# generated using pymatgen
data_In86Cu29Se144
_symmetry_space_group_name_H-M   'P 1'
_cell_length_a   17.57787738
_cell_length_b   17.57931044
_cell_length_c   23.44030964
_cell_angle_alpha   89.98036916
_cell_angle_beta   90.01639478
_cell_angle_gamma   90.00261144
_symmetry_Int_Tables_number   1
_chemical_formula_structural   In86Cu29Se144
_chemical_formula_sum   'In86 Cu29 Se144'
_cell_volume   7243.21817137
_cell_formula_units_Z   1
loop_
 _symmetry_equiv_pos_site_id
 _symmetry_equiv_pos_as_xyz
  1  'x, y, z'
loop_
 _atom_site_type_symbol
 _atom_site_label
 _atom_site_symmetry_multiplicity
 _atom_site_fract_x
 _atom_site_fract_y
 _atom_site_fract_z
 _atom_site_occupancy
  In  In0  1  -0.00056746  0.16837622  0.13900164  1
  In  In1  1  -0.01168224  0.16292980  0.60833793  1
  In  In2  1  0.00199537  0.50020065  0.13474629  1
  In  In3  1  -0.00263116  0.51348390  0.62464182  1
  In  In4  1  0.00135959  0.83715663  0.14180494  1
  In  In5  1  -0.01031916  0.83968330  0.62876365  1
  In  In6  1  0.33141996  0.16222205  0.12587226  1
  In  In7  1  0.32935621  0.16986225  0.61886978  1
  In  In8  1  0.34760569  0.48729128  0.12329212  1
  In  In9  1  0.33236352  0.50104181  0.63119929  1
  In  In10  1  0.34443113  0.84256536  0.12878628  1
  In  In11  1  0.34685944  0.82265849  0.62787696  1
  In  In12  1  0.65812532  0.17616785  0.13828117  1
  In  In13  1  0.67065980  0.17519181  0.61535987  1
  In  In14  1  0.66549882  0.50052185  0.12771425  1
  In  In15  1  0.67395569  0.49337743  0.62826332  1
  In  In16  1  0.67253517  0.82757321  0.13662320  1
  In  In17  1  0.66238199  0.83108552  0.61759448  1
  In  In18  1  0.17863269  0.00305371  0.36634977  1
  In  In19  1  0.16515137  -0.00238914  0.86553119  1
  In  In20  1  0.15151659  0.33454278  0.38383512  1
  In  In21  1  0.17240252  0.31689588  0.87447714  1
  In  In22  1  0.15782623  0.68372770  0.37605090  1
  In  In23  1  0.16876030  0.66499102  0.86334188  1
  In  In24  1  0.50087976  0.00107773  0.37715662  1
  In  In25  1  0.49751565  0.01756297  0.87548859  1
  In  In26  1  0.50227933  0.31417977  0.38200936  1
  In  In27  1  0.49905292  0.33039459  0.87252401  1
  In  In28  1  0.51590017  0.65978371  0.37881023  1
  In  In29  1  0.49198696  0.65390955  0.86320802  1
  In  In30  1  0.83124096  0.00020463  0.37873860  1
  In  In31  1  0.83564457  -0.00974296  0.86878085  1
  In  In32  1  0.83365270  0.33609885  0.38076709  1
  In  In33  1  0.83269146  0.34290662  0.87235083  1
  In  In34  1  0.83177265  0.66772159  0.37936731  1
  In  In35  1  0.82626316  0.66781479  0.85468507  1
  In  In36  1  0.00356664  0.17214476  0.38545352  1
  In  In37  1  0.01021420  0.16122279  0.87364382  1
  In  In38  1  -0.01886742  0.48562421  0.37135809  1
  In  In39  1  -0.01064652  0.50272327  0.87511281  1
  In  In40  1  -0.00445588  0.82219263  0.36770165  1
  In  In41  1  -0.00779543  0.83451841  0.85766484  1
  In  In42  1  0.34491594  0.16008895  0.39017980  1
  In  In43  1  0.34894155  0.18116100  0.85568413  1
  In  In44  1  0.33756704  0.49662519  0.37888725  1
  In  In45  1  0.34133875  0.50104228  0.86844633  1
  In  In46  1  0.32755978  0.84756276  0.37906885  1
  In  In47  1  0.33094058  0.83105849  0.86278875  1
  In  In48  1  0.66637827  0.16531624  0.37647742  1
  In  In49  1  0.64691048  0.16359091  0.87446885  1
  In  In50  1  0.67930378  0.51145531  0.36857079  1
  In  In51  1  0.65658621  0.48893257  0.86249222  1
  In  In52  1  0.66684901  0.83497817  0.37995217  1
  In  In53  1  0.67689375  0.82209336  0.86931082  1
  In  In54  1  0.16611200  0.00181084  0.14391625  1
  In  In55  1  0.16064785  0.00946604  0.62637064  1
  In  In56  1  0.16772419  0.32555729  0.12892788  1
  In  In57  1  0.17632025  0.33028773  0.61919602  1
  In  In58  1  0.15990302  0.65881131  0.12900339  1
  In  In59  1  0.16711481  0.66402752  0.63129457  1
  In  In60  1  0.48951924  0.01164119  0.13544544  1
  In  In61  1  0.49238551  -0.00789930  0.61810851  1
  In  In62  1  0.50586050  0.34223397  0.11452908  1
  In  In63  1  0.50244651  0.33200800  0.62569722  1
  In  In64  1  0.51259103  0.66024588  0.12561130  1
  In  In65  1  0.49190591  0.68060182  0.62810687  1
  In  In66  1  0.83683744  -0.00179940  0.14252597  1
  In  In67  1  0.83652197  0.00646022  0.61418368  1
  In  In68  1  0.83662514  0.32792248  0.13643961  1
  In  In69  1  0.82618497  0.32238008  0.61035061  1
  In  In70  1  0.83217020  0.66799389  0.13398856  1
  In  In71  1  0.83517765  0.66981678  0.62261144  1
  In  In72  1  0.16412055  0.50175441  0.50370531  1
  In  In73  1  0.17344717  0.49455008  0.00028264  1
  In  In74  1  0.83129386  0.83229607  -0.00283325  1
  In  In75  1  0.50039133  0.50081653  0.50663151  1
  In  In76  1  0.17198074  0.16582645  0.00369194  1
  In  In77  1  0.33188458  0.33170421  0.24989745  1
  In  In78  1  0.66547648  0.00001687  0.74814652  1
  In  In79  1  0.83020518  0.16753966  0.01201120  1
  In  In80  1  0.32656635  0.67991934  0.25231128  1
  In  In81  1  0.16600468  0.83739291  0.00132312  1
  In  In82  1  0.50136587  0.83634316  0.00098331  1
  In  In83  1  0.00215436  0.33216821  0.74896977  1
  In  In84  1  0.82876377  0.49797964  -0.00716489  1
  In  In85  1  0.16709744  0.83752721  0.50108783  1
  Cu  Cu86  1  -0.00320800  -0.00485098  0.49590294  1
  Cu  Cu87  1  0.33978816  0.66057639  -0.00770155  1
  Cu  Cu88  1  0.15613829  0.50623777  0.25697499  1
  Cu  Cu89  1  0.66485617  0.00431550  0.49724064  1
  Cu  Cu90  1  0.50841966  0.49679209  0.24834475  1
  Cu  Cu91  1  0.82888342  0.83104607  0.26020789  1
  Cu  Cu92  1  0.65837191  0.00437065  0.00644328  1
  Cu  Cu93  1  0.17156054  0.49617794  0.74813540  1
  Cu  Cu94  1  0.67130479  0.66897927  0.49953104  1
  Cu  Cu95  1  0.83220397  0.16605940  0.73750368  1
  Cu  Cu96  1  -0.00606753  0.66564183  0.49792218  1
  Cu  Cu97  1  0.65847679  0.65666540  -0.00234839  1
  Cu  Cu98  1  0.16761779  0.83608718  0.74171315  1
  Cu  Cu99  1  0.16607669  0.17204772  0.25822813  1
  Cu  Cu100  1  0.66378413  0.33628674  0.49771442  1
  Cu  Cu101  1  0.83583303  0.16645737  0.26282875  1
  Cu  Cu102  1  0.50348256  0.83359769  0.74601170  1
  Cu  Cu103  1  0.33557537  0.00873565  -0.00002108  1
  Cu  Cu104  1  0.50552796  0.50060741  0.74556959  1
  Cu  Cu105  1  -0.00145857  0.00141489  0.00305260  1
  Cu  Cu106  1  0.83100001  0.50089562  0.25383098  1
  Cu  Cu107  1  0.50095453  0.16249195  0.25664571  1
  Cu  Cu108  1  0.49737270  0.16919224  0.74498267  1
  Cu  Cu109  1  0.83276112  0.50085915  0.74560823  1
  Cu  Cu110  1  0.16609489  0.16011648  0.74481177  1
  Cu  Cu111  1  0.66394144  0.32979819  -0.00196121  1
  Cu  Cu112  1  0.33762892  0.00148396  0.50118346  1
  Cu  Cu113  1  0.50346770  0.83672818  0.25441012  1
  Cu  Cu114  1  -0.00563584  0.66659637  -0.00102944  1
  Se  Se115  1  0.07894016  0.07709491  0.06464558  1
  Se  Se116  1  0.08111096  0.07763296  0.54871850  1
  Se  Se117  1  0.07855215  0.41173699  0.06111063  1
  Se  Se118  1  0.07362853  0.41234852  0.56189121  1
  Se  Se119  1  0.07244287  0.74654410  0.05969716  1
  Se  Se120  1  0.07857611  0.74239570  0.55833495  1
  Se  Se121  1  0.41923734  0.08730843  0.05568525  1
  Se  Se122  1  0.41975084  0.08791210  0.55316225  1
  Se  Se123  1  0.41532104  0.41346022  0.04590205  1
  Se  Se124  1  0.40442373  0.40992452  0.55836342  1
  Se  Se125  1  0.41131795  0.74140044  0.05906675  1
  Se  Se126  1  0.42384741  0.75633544  0.54861493  1
  Se  Se127  1  0.74362419  0.07312110  0.06950213  1
  Se  Se128  1  0.75068942  0.08885877  0.54809859  1
  Se  Se129  1  0.74875749  0.40503043  0.05850133  1
  Se  Se130  1  0.74770378  0.42009022  0.54973142  1
  Se  Se131  1  0.74044511  0.73841621  0.05569996  1
  Se  Se132  1  0.75432234  0.75352711  0.55204657  1
  Se  Se133  1  0.26347433  0.26311887  0.05629490  1
  Se  Se134  1  0.23181644  0.23379570  0.54772393  1
  Se  Se135  1  0.26030161  0.59035129  0.06045742  1
  Se  Se136  1  0.25879783  0.59282368  0.55778520  1
  Se  Se137  1  0.25510824  0.93016138  0.06084539  1
  Se  Se138  1  0.25867951  0.92168752  0.56379204  1
  Se  Se139  1  0.58736737  0.24488914  0.05555832  1
  Se  Se140  1  0.57907547  0.25370098  0.55009447  1
  Se  Se141  1  0.58036690  0.57241248  0.05256233  1
  Se  Se142  1  0.59102029  0.59242143  0.56363940  1
  Se  Se143  1  0.58743402  0.91906696  0.06824323  1
  Se  Se144  1  0.58272180  0.91794829  0.55015358  1
  Se  Se145  1  0.92874300  0.25703371  0.06196722  1
  Se  Se146  1  0.92053975  0.25813402  0.54207421  1
  Se  Se147  1  0.91714116  0.58595542  0.05920030  1
  Se  Se148  1  0.91143970  0.58141373  0.55068083  1
  Se  Se149  1  0.91987876  0.91916654  0.06259459  1
  Se  Se150  1  0.91498545  0.91212622  0.55012119  1
  Se  Se151  1  0.09922563  0.23850551  0.45680056  1
  Se  Se152  1  0.07410921  0.25523406  0.94740437  1
  Se  Se153  1  0.07615206  0.58711995  0.43769649  1
  Se  Se154  1  0.08081082  0.59009351  0.94178025  1
  Se  Se155  1  0.07932738  0.91960680  0.43485713  1
  Se  Se156  1  0.07153175  0.92031780  0.93917641  1
  Se  Se157  1  0.41176291  0.25766388  0.45546796  1
  Se  Se158  1  0.42120801  0.23893578  0.93855439  1
  Se  Se159  1  0.41112183  0.59212719  0.44474471  1
  Se  Se160  1  0.42340436  0.57735451  0.94279114  1
  Se  Se161  1  0.41913545  0.91690738  0.44805933  1
  Se  Se162  1  0.40715555  0.92076193  0.93950904  1
  Se  Se163  1  0.74665360  0.25043763  0.44577190  1
  Se  Se164  1  0.74740663  0.25085364  0.93926197  1
  Se  Se165  1  0.75245644  0.58070436  0.44911299  1
  Se  Se166  1  0.74268824  0.58945298  0.93223539  1
  Se  Se167  1  0.75005593  0.91698408  0.44929700  1
  Se  Se168  1  0.73591730  0.92675420  0.94289545  1
  Se  Se169  1  0.24777521  0.07678154  0.44729640  1
  Se  Se170  1  0.25343097  0.08014735  0.93520197  1
  Se  Se171  1  0.25641930  0.40991171  0.44581463  1
  Se  Se172  1  0.25941450  0.40684973  0.93736998  1
  Se  Se173  1  0.25883790  0.74305599  0.44548535  1
  Se  Se174  1  0.25472433  0.74368490  0.94070388  1
  Se  Se175  1  0.57901452  0.08809125  0.44670418  1
  Se  Se176  1  0.57659650  0.08730197  0.95323221  1
  Se  Se177  1  0.58706303  0.41985604  0.43674110  1
  Se  Se178  1  0.58596487  0.41373497  0.94104379  1
  Se  Se179  1  0.58338914  0.75049255  0.44944296  1
  Se  Se180  1  0.58471654  0.74354744  0.93785980  1
  Se  Se181  1  0.91423046  0.08430696  0.44714423  1
  Se  Se182  1  0.91665887  0.07869458  0.94327770  1
  Se  Se183  1  0.91695655  0.41421268  0.45273622  1
  Se  Se184  1  0.92943285  0.40331403  0.94715237  1
  Se  Se185  1  0.91537646  0.75469217  0.44597077  1
  Se  Se186  1  0.91855184  0.74241492  0.93447904  1
  Se  Se187  1  0.24918363  0.24882956  0.31877011  1
  Se  Se188  1  0.24702219  0.25084606  0.79403948  1
  Se  Se189  1  0.24503473  0.57990854  0.31334243  1
  Se  Se190  1  0.25568560  0.58196277  0.80006550  1
  Se  Se191  1  0.24804758  0.90765187  0.29991125  1
  Se  Se192  1  0.25063562  0.91829523  0.79762317  1
  Se  Se193  1  0.58474328  0.24982940  0.30480467  1
  Se  Se194  1  0.58276852  0.24970878  0.80000347  1
  Se  Se195  1  0.58707791  0.58549097  0.30000647  1
  Se  Se196  1  0.59022978  0.58779551  0.79651064  1
  Se  Se197  1  0.58603460  0.91900517  0.30902114  1
  Se  Se198  1  0.57580846  0.91200997  0.81383228  1
  Se  Se199  1  0.91968760  0.25167165  0.31361008  1
  Se  Se200  1  0.90931972  0.23982717  0.80784705  1
  Se  Se201  1  0.91354153  0.58554276  0.30742119  1
  Se  Se202  1  0.92015008  0.58103778  0.79855005  1
  Se  Se203  1  0.91369179  0.91750305  0.30816357  1
  Se  Se204  1  0.91778402  0.92620540  0.79360253  1
  Se  Se205  1  0.08244326  0.08928053  0.31144305  1
  Se  Se206  1  0.07949412  0.08036494  0.79855895  1
  Se  Se207  1  0.08026572  0.41403287  0.30714363  1
  Se  Se208  1  0.09138497  0.42147499  0.81334365  1
  Se  Se209  1  0.08776887  0.75399849  0.29737295  1
  Se  Se210  1  0.08673792  0.75211617  0.79901287  1
  Se  Se211  1  0.41274578  0.08437401  0.30971146  1
  Se  Se212  1  0.41708664  0.07751838  0.79469578  1
  Se  Se213  1  0.42796746  0.41939698  0.30940538  1
  Se  Se214  1  0.42238576  0.41641678  0.80055559  1
  Se  Se215  1  0.42498331  0.75466645  0.31542547  1
  Se  Se216  1  0.41789304  0.74879684  0.79883788  1
  Se  Se217  1  0.74750868  0.08049387  0.30755392  1
  Se  Se218  1  0.75473150  0.09412671  0.80840121  1
  Se  Se219  1  0.75051701  0.41276817  0.30569702  1
  Se  Se220  1  0.75157717  0.41310872  0.79789824  1
  Se  Se221  1  0.74407027  0.74600390  0.31004946  1
  Se  Se222  1  0.76231026  0.76823719  0.79171430  1
  Se  Se223  1  0.25271912  0.09222998  0.20289462  1
  Se  Se224  1  0.25523310  0.08239063  0.69218091  1
  Se  Se225  1  0.24119107  0.43119804  0.19432331  1
  Se  Se226  1  0.25019395  0.41046679  0.69443427  1
  Se  Se227  1  0.23904858  0.76357796  0.18553627  1
  Se  Se228  1  0.25335216  0.74903390  0.69504714  1
  Se  Se229  1  0.58564882  0.07935178  0.20278043  1
  Se  Se230  1  0.57936273  0.08933143  0.68510317  1
  Se  Se231  1  0.58547703  0.40999717  0.19314270  1
  Se  Se232  1  0.58647932  0.41281315  0.69455480  1
  Se  Se233  1  0.57933150  0.74781475  0.19879857  1
  Se  Se234  1  0.58836748  0.75184594  0.69439862  1
  Se  Se235  1  0.91996596  0.08414407  0.20696185  1
  Se  Se236  1  0.91816871  0.08504781  0.68742240  1
  Se  Se237  1  0.91668212  0.41802667  0.20048053  1
  Se  Se238  1  0.91052082  0.41611514  0.68653859  1
  Se  Se239  1  0.91252645  0.75071965  0.20194618  1
  Se  Se240  1  0.93137225  0.73468061  0.69172506  1
  Se  Se241  1  0.08486375  0.25535219  0.20279149  1
  Se  Se242  1  0.08417575  0.24108323  0.68533707  1
  Se  Se243  1  0.07520831  0.59120398  0.20337397  1
  Se  Se244  1  0.08468655  0.57991233  0.69901270  1
  Se  Se245  1  0.07492209  0.92704381  0.20705996  1
  Se  Se246  1  0.08164378  0.91961793  0.69233308  1
  Se  Se247  1  0.42650129  0.24565755  0.19144127  1
  Se  Se248  1  0.41272446  0.25061092  0.69052248  1
  Se  Se249  1  0.41784837  0.57976729  0.19659185  1
  Se  Se250  1  0.42008042  0.58465285  0.69446193  1
  Se  Se251  1  0.41584073  0.92053040  0.20463508  1
  Se  Se252  1  0.41793919  0.91750855  0.69613599  1
  Se  Se253  1  0.75354689  0.24733575  0.20409051  1
  Se  Se254  1  0.74873900  0.25332556  0.69035174  1
  Se  Se255  1  0.74727300  0.58226579  0.19708672  1
  Se  Se256  1  0.75097176  0.58632673  0.69289802  1
  Se  Se257  1  0.74747896  0.91517979  0.20485504  1
  Se  Se258  1  0.75373133  0.91736038  0.68432036  1
