# generated using pymatgen
data_In86Cu29Se144
_symmetry_space_group_name_H-M   'P 1'
_cell_length_a   17.57283121
_cell_length_b   17.56817221
_cell_length_c   23.42474944
_cell_angle_alpha   90.00219644
_cell_angle_beta   90.00591531
_cell_angle_gamma   90.01770666
_symmetry_Int_Tables_number   1
_chemical_formula_structural   In86Cu29Se144
_chemical_formula_sum   'In86 Cu29 Se144'
_cell_volume   7231.74740636
_cell_formula_units_Z   1
loop_
 _symmetry_equiv_pos_site_id
 _symmetry_equiv_pos_as_xyz
  1  'x, y, z'
loop_
 _atom_site_type_symbol
 _atom_site_label
 _atom_site_symmetry_multiplicity
 _atom_site_fract_x
 _atom_site_fract_y
 _atom_site_fract_z
 _atom_site_occupancy
  In  In0  1  -0.00408194  0.17679655  0.13334396  1
  In  In1  1  -0.00351215  0.16773129  0.62717646  1
  In  In2  1  0.00043724  0.49877627  0.12518650  1
  In  In3  1  0.00415795  0.48874518  0.62954405  1
  In  In4  1  -0.00672320  0.83766236  0.13628867  1
  In  In5  1  0.00833653  0.84488573  0.61615734  1
  In  In6  1  0.33981105  0.16698960  0.12576056  1
  In  In7  1  0.32528918  0.15322221  0.61149492  1
  In  In8  1  0.34718215  0.51915071  0.11118628  1
  In  In9  1  0.33108556  0.52515504  0.62056018  1
  In  In10  1  0.32356849  0.83448169  0.13189609  1
  In  In11  1  0.33517717  0.83012081  0.61597218  1
  In  In12  1  0.67053178  0.15468639  0.12116398  1
  In  In13  1  0.67280276  0.17094501  0.62273039  1
  In  In14  1  0.66032270  0.50626328  0.11143690  1
  In  In15  1  0.66143557  0.49804203  0.64200810  1
  In  In16  1  0.67822320  0.81691960  0.12469564  1
  In  In17  1  0.65575547  0.81804545  0.61219783  1
  In  In18  1  0.16306576  0.00347560  0.38804166  1
  In  In19  1  0.16898008  -0.00010395  0.85958661  1
  In  In20  1  0.15645845  0.33387369  0.38126143  1
  In  In21  1  0.16590682  0.35047496  0.87132937  1
  In  In22  1  0.16603486  0.66735997  0.37973784  1
  In  In23  1  0.16736226  0.65812137  0.87256761  1
  In  In24  1  0.49707426  -0.00945430  0.39237888  1
  In  In25  1  0.49744522  0.01408222  0.86113266  1
  In  In26  1  0.48933835  0.33470482  0.37766265  1
  In  In27  1  0.52212727  0.33854436  0.86271544  1
  In  In28  1  0.49240736  0.68198014  0.37674546  1
  In  In29  1  0.49525146  0.66284356  0.86818778  1
  In  In30  1  0.84370781  -0.01084679  0.38200095  1
  In  In31  1  0.84498684  -0.00474026  0.87783911  1
  In  In32  1  0.83856568  0.31869247  0.37438193  1
  In  In33  1  0.83412404  0.33446036  0.87757580  1
  In  In34  1  0.84045442  0.66042253  0.37552469  1
  In  In35  1  0.82433494  0.67340392  0.88760414  1
  In  In36  1  0.00131942  0.16195972  0.37656816  1
  In  In37  1  -0.00708263  0.15843870  0.86781986  1
  In  In38  1  0.00764747  0.50708421  0.36160667  1
  In  In39  1  0.00474280  0.49481360  0.88004473  1
  In  In40  1  -0.00042207  0.83153127  0.37693091  1
  In  In41  1  -0.00735993  0.83394460  0.87171569  1
  In  In42  1  0.33911430  0.15309894  0.39989160  1
  In  In43  1  0.34686772  0.16352946  0.86137486  1
  In  In44  1  0.32369795  0.49884760  0.37435602  1
  In  In45  1  0.32252480  0.51146136  0.87841905  1
  In  In46  1  0.34639405  0.81384027  0.40531520  1
  In  In47  1  0.33852264  0.83784019  0.86022657  1
  In  In48  1  0.67413362  0.16321283  0.38677250  1
  In  In49  1  0.67113608  0.18821351  0.86365133  1
  In  In50  1  0.66881352  0.51303856  0.37482408  1
  In  In51  1  0.67031817  0.50328456  0.87804433  1
  In  In52  1  0.65553313  0.83139936  0.39055114  1
  In  In53  1  0.68059011  0.83525013  0.87282605  1
  In  In54  1  0.16400249  -0.01342067  0.13097669  1
  In  In55  1  0.16723942  -0.00342868  0.61938002  1
  In  In56  1  0.15496958  0.33611977  0.12868032  1
  In  In57  1  0.15885821  0.32498058  0.61808907  1
  In  In58  1  0.17642185  0.65526021  0.13326154  1
  In  In59  1  0.18870725  0.68758354  0.59644796  1
  In  In60  1  0.49392210  0.00395826  0.12554605  1
  In  In61  1  0.48956202  -0.00759686  0.61541836  1
  In  In62  1  0.49013874  0.34529815  0.12661752  1
  In  In63  1  0.51200082  0.33156151  0.62871454  1
  In  In64  1  0.50013420  0.65738432  0.13635820  1
  In  In65  1  0.49695408  0.67204461  0.62952546  1
  In  In66  1  0.84261007  0.00641447  0.11847513  1
  In  In67  1  0.83897844  0.00536508  0.62245257  1
  In  In68  1  0.84013779  0.34274499  0.11553490  1
  In  In69  1  0.83824075  0.32623278  0.63813117  1
  In  In70  1  0.83476935  0.67468976  0.11488498  1
  In  In71  1  0.81957276  0.66939621  0.62667271  1
  In  In72  1  0.83471581  0.50120875  0.50019309  1
  In  In73  1  0.32697142  -0.00831998  0.26711014  1
  In  In74  1  0.31942366  0.33733530  0.26099647  1
  In  In75  1  0.50843797  0.83079871  0.00267264  1
  In  In76  1  0.00385144  0.66180093  0.74933092  1
  In  In77  1  0.16561347  0.17240035  0.00245346  1
  In  In78  1  0.50029358  0.50011543  0.50314473  1
  In  In79  1  0.16173447  0.82883269  0.00428317  1
  In  In80  1  0.66513336  -0.00473444  0.74085717  1
  In  In81  1  0.67255350  0.33694314  0.23964147  1
  In  In82  1  0.32825338  0.33034220  0.74241988  1
  In  In83  1  0.51299444  0.17863512  -0.01924125  1
  In  In84  1  0.66964419  -0.00640652  0.26679898  1
  In  In85  1  0.66645702  0.66834097  0.24880539  1
  Cu  Cu86  1  0.85013874  0.16506732  0.24818126  1
  Cu  Cu87  1  0.50054980  0.82522214  0.73934234  1
  Cu  Cu88  1  0.33306831  0.33232397  0.50176237  1
  Cu  Cu89  1  0.83429843  0.83346136  0.25204078  1
  Cu  Cu90  1  -0.00587606  0.00503878  0.50154049  1
  Cu  Cu91  1  0.83082026  0.16985309  0.74885175  1
  Cu  Cu92  1  0.16138885  0.82595122  0.25969023  1
  Cu  Cu93  1  0.83007449  0.49852592  0.75634606  1
  Cu  Cu94  1  -0.00366434  0.32892095  0.50232260  1
  Cu  Cu95  1  -0.00166163  0.66144652  0.00190371  1
  Cu  Cu96  1  0.83813359  0.83495685  0.75045452  1
  Cu  Cu97  1  -0.00116411  0.33418471  0.00157333  1
  Cu  Cu98  1  0.67261004  0.33390676  0.50486234  1
  Cu  Cu99  1  0.50648294  0.17012323  0.25934778  1
  Cu  Cu100  1  0.15927517  0.16718431  0.73963496  1
  Cu  Cu101  1  0.16692386  0.15900826  0.25971483  1
  Cu  Cu102  1  -0.00456863  0.66272674  0.49219116  1
  Cu  Cu103  1  0.33520093  0.66882648  -0.00235621  1
  Cu  Cu104  1  0.33516053  0.34746370  -0.00337372  1
  Cu  Cu105  1  0.66697992  0.00306082  0.50620309  1
  Cu  Cu106  1  0.16578588  0.50073821  0.24983616  1
  Cu  Cu107  1  0.50005534  0.49736105  0.75138832  1
  Cu  Cu108  1  -0.00227172  -0.00048750  0.00117482  1
  Cu  Cu109  1  0.83795127  0.49492404  0.24358616  1
  Cu  Cu110  1  0.17260592  0.83290287  0.73513201  1
  Cu  Cu111  1  0.67853258  -0.00415394  -0.00303232  1
  Cu  Cu112  1  0.66593794  0.33459795  -0.00480796  1
  Cu  Cu113  1  0.33880298  0.00566517  -0.01052833  1
  Cu  Cu114  1  0.16665148  0.50680689  0.74713134  1
  Se  Se115  1  0.08124463  0.07603655  0.06233172  1
  Se  Se116  1  0.07809612  0.08542846  0.55747713  1
  Se  Se117  1  0.08446937  0.41707025  0.05354596  1
  Se  Se118  1  0.07992413  0.41609811  0.55160884  1
  Se  Se119  1  0.07559144  0.74074109  0.06666148  1
  Se  Se120  1  0.07413176  0.75038940  0.54607793  1
  Se  Se121  1  0.42034584  0.08860626  0.04673526  1
  Se  Se122  1  0.41936665  0.08269836  0.54495166  1
  Se  Se123  1  0.42527187  0.42462719  0.04798630  1
  Se  Se124  1  0.40986628  0.41144655  0.56569648  1
  Se  Se125  1  0.40759984  0.75086079  0.06134482  1
  Se  Se126  1  0.42009365  0.74150857  0.55242613  1
  Se  Se127  1  0.75655351  0.08563146  0.04896730  1
  Se  Se128  1  0.75376841  0.08720267  0.55443177  1
  Se  Se129  1  0.74710636  0.41769697  0.05090459  1
  Se  Se130  1  0.74746737  0.41554457  0.56674250  1
  Se  Se131  1  0.74488102  0.74571499  0.04503429  1
  Se  Se132  1  0.76100633  0.75564425  0.55042459  1
  Se  Se133  1  0.26335636  0.26257661  0.05956756  1
  Se  Se134  1  0.24548852  0.24803813  0.54969854  1
  Se  Se135  1  0.24525516  0.58774579  0.04866147  1
  Se  Se136  1  0.23652118  0.56712710  0.54394096  1
  Se  Se137  1  0.26051627  0.92805429  0.05300078  1
  Se  Se138  1  0.24052315  0.90597631  0.55200399  1
  Se  Se139  1  0.58694590  0.25783435  0.06226736  1
  Se  Se140  1  0.58485643  0.25097163  0.55377243  1
  Se  Se141  1  0.57864279  0.60206781  0.05484984  1
  Se  Se142  1  0.59263106  0.58311286  0.56488648  1
  Se  Se143  1  0.59511382  0.92746406  0.06269891  1
  Se  Se144  1  0.58051204  0.91352243  0.54964280  1
  Se  Se145  1  0.91913683  0.24599850  0.05410564  1
  Se  Se146  1  0.91080885  0.25227506  0.55904898  1
  Se  Se147  1  0.91520157  0.57829111  0.05525247  1
  Se  Se148  1  0.92366831  0.58847020  0.56361733  1
  Se  Se149  1  0.92054384  0.91088798  0.05583747  1
  Se  Se150  1  0.91131019  0.91669422  0.55133377  1
  Se  Se151  1  0.08064748  0.24495882  0.44906962  1
  Se  Se152  1  0.07868460  0.25752728  0.93730742  1
  Se  Se153  1  0.07911693  0.57615971  0.44286415  1
  Se  Se154  1  0.08538111  0.58552941  0.94570231  1
  Se  Se155  1  0.07417682  0.91683289  0.44954641  1
  Se  Se156  1  0.08305561  0.92569103  0.94016553  1
  Se  Se157  1  0.42429069  0.25198947  0.45364894  1
  Se  Se158  1  0.40832481  0.26512255  0.93257131  1
  Se  Se159  1  0.40934347  0.58486340  0.44216783  1
  Se  Se160  1  0.41757487  0.58536398  0.94390279  1
  Se  Se161  1  0.39225939  0.93560402  0.45677998  1
  Se  Se162  1  0.42109188  0.92151333  0.93646453  1
  Se  Se163  1  0.75695892  0.25141611  0.45141499  1
  Se  Se164  1  0.74915180  0.24751449  0.94560013  1
  Se  Se165  1  0.74010661  0.59721982  0.44925609  1
  Se  Se166  1  0.75886908  0.57290888  0.94974121  1
  Se  Se167  1  0.74554186  0.92033229  0.44748819  1
  Se  Se168  1  0.76159640  0.91121810  0.94592720  1
  Se  Se169  1  0.24107668  0.08349034  0.46024665  1
  Se  Se170  1  0.25306535  0.08505594  0.93546183  1
  Se  Se171  1  0.25076733  0.41175601  0.44468461  1
  Se  Se172  1  0.24319589  0.42447485  0.94719830  1
  Se  Se173  1  0.23539747  0.74822579  0.45721974  1
  Se  Se174  1  0.25808751  0.75311652  0.93783561  1
  Se  Se175  1  0.58299361  0.08434140  0.45012854  1
  Se  Se176  1  0.59944845  0.07350921  0.93296788  1
  Se  Se177  1  0.59506933  0.41136120  0.44074625  1
  Se  Se178  1  0.58038565  0.41754402  0.94408969  1
  Se  Se179  1  0.57612796  0.74315819  0.45439596  1
  Se  Se180  1  0.58974628  0.74580760  0.93529730  1
  Se  Se181  1  0.91105606  0.08842933  0.44691071  1
  Se  Se182  1  0.91849005  0.08640192  0.94740797  1
  Se  Se183  1  0.92363799  0.41308129  0.43802535  1
  Se  Se184  1  0.91565606  0.41787630  0.94754967  1
  Se  Se185  1  0.91099007  0.75013612  0.44499395  1
  Se  Se186  1  0.92441538  0.75125040  0.94662691  1
  Se  Se187  1  0.25016879  0.23270890  0.32149349  1
  Se  Se188  1  0.23684521  0.24341183  0.80723527  1
  Se  Se189  1  0.24522089  0.58426875  0.30604452  1
  Se  Se190  1  0.25309037  0.58886937  0.79872566  1
  Se  Se191  1  0.24055559  0.90024824  0.32477975  1
  Se  Se192  1  0.25268297  0.91741083  0.79313750  1
  Se  Se193  1  0.58984943  0.25205699  0.31326783  1
  Se  Se194  1  0.55086417  0.21712301  0.80526838  1
  Se  Se195  1  0.57176065  0.58269291  0.30890607  1
  Se  Se196  1  0.58529432  0.57972596  0.80519342  1
  Se  Se197  1  0.56809030  0.90552434  0.31396195  1
  Se  Se198  1  0.57620807  0.90527592  0.80555550  1
  Se  Se199  1  0.92802209  0.25115032  0.30292262  1
  Se  Se200  1  0.91413109  0.25183528  0.80508143  1
  Se  Se201  1  0.91310603  0.58435384  0.29831909  1
  Se  Se202  1  0.91178747  0.58157244  0.81445723  1
  Se  Se203  1  0.91895308  0.91608301  0.30446994  1
  Se  Se204  1  0.92158904  0.92111561  0.79987606  1
  Se  Se205  1  0.08340002  0.07397874  0.30944584  1
  Se  Se206  1  0.07997747  0.08325471  0.79794223  1
  Se  Se207  1  0.08699433  0.41023389  0.30107281  1
  Se  Se208  1  0.08168570  0.42433015  0.79928081  1
  Se  Se209  1  0.07541165  0.74078406  0.30859096  1
  Se  Se210  1  0.09522093  0.76029926  0.80535438  1
  Se  Se211  1  0.42476554  0.08867139  0.31655415  1
  Se  Se212  1  0.40100206  0.06777238  0.78999711  1
  Se  Se213  1  0.42481263  0.42755600  0.30489260  1
  Se  Se214  1  0.41242623  0.41956273  0.80969967  1
  Se  Se215  1  0.40437352  0.76105701  0.31245800  1
  Se  Se216  1  0.41615173  0.74573754  0.79710866  1
  Se  Se217  1  0.76467038  0.09289821  0.31077705  1
  Se  Se218  1  0.75338725  0.08208781  0.80799258  1
  Se  Se219  1  0.75775858  0.42304690  0.30989440  1
  Se  Se220  1  0.74671484  0.41302426  0.80844972  1
  Se  Se221  1  0.75075748  0.75890968  0.31374216  1
  Se  Se222  1  0.75865117  0.74905909  0.80421852  1
  Se  Se223  1  0.24882287  0.08638610  0.19416805  1
  Se  Se224  1  0.24561631  0.08454595  0.68997952  1
  Se  Se225  1  0.24971264  0.42526823  0.18688486  1
  Se  Se226  1  0.24343215  0.42547453  0.68373145  1
  Se  Se227  1  0.24670799  0.75072930  0.20084454  1
  Se  Se228  1  0.25284520  0.74353872  0.68662275  1
  Se  Se229  1  0.58052525  0.08615554  0.19895826  1
  Se  Se230  1  0.57539671  0.08408498  0.68310679  1
  Se  Se231  1  0.57654349  0.43210968  0.19262933  1
  Se  Se232  1  0.58443858  0.40607310  0.70791160  1
  Se  Se233  1  0.57439445  0.76560900  0.19566267  1
  Se  Se234  1  0.59378178  0.74377138  0.69620436  1
  Se  Se235  1  0.92566074  0.07445532  0.19506009  1
  Se  Se236  1  0.91406910  0.08432537  0.69773279  1
  Se  Se237  1  0.92093430  0.40861386  0.19396324  1
  Se  Se238  1  0.91636499  0.41962080  0.70202530  1
  Se  Se239  1  0.90908766  0.74436062  0.19612027  1
  Se  Se240  1  0.91851727  0.75514682  0.68851713  1
  Se  Se241  1  0.09169492  0.24494865  0.20130461  1
  Se  Se242  1  0.07640934  0.25791001  0.69539717  1
  Se  Se243  1  0.07929873  0.58262700  0.19678898  1
  Se  Se244  1  0.09572191  0.58833553  0.68129833  1
  Se  Se245  1  0.08363212  0.91386447  0.20461402  1
  Se  Se246  1  0.08243121  0.91932631  0.69367186  1
  Se  Se247  1  0.42285491  0.24691919  0.20007191  1
  Se  Se248  1  0.41456351  0.24065420  0.68257173  1
  Se  Se249  1  0.40168112  0.58807901  0.19816334  1
  Se  Se250  1  0.41897009  0.58233918  0.69806952  1
  Se  Se251  1  0.42077490  0.91515824  0.19629784  1
  Se  Se252  1  0.41658780  0.91025291  0.68975449  1
  Se  Se253  1  0.76195541  0.23772915  0.18792544  1
  Se  Se254  1  0.74047115  0.25190771  0.70177310  1
  Se  Se255  1  0.75326948  0.57598364  0.18764697  1
  Se  Se256  1  0.75126721  0.58452800  0.70207808  1
  Se  Se257  1  0.75405474  0.91537849  0.19233955  1
  Se  Se258  1  0.75542890  0.90440272  0.68424150  1
