# generated using pymatgen
data_In86Cu29Se144
_symmetry_space_group_name_H-M   'P 1'
_cell_length_a   17.57687746
_cell_length_b   17.57698548
_cell_length_c   23.43112709
_cell_angle_alpha   89.99815615
_cell_angle_beta   90.00787644
_cell_angle_gamma   89.97663794
_symmetry_Int_Tables_number   1
_chemical_formula_structural   In86Cu29Se144
_chemical_formula_sum   'In86 Cu29 Se144'
_cell_volume   7239.01135994
_cell_formula_units_Z   1
loop_
 _symmetry_equiv_pos_site_id
 _symmetry_equiv_pos_as_xyz
  1  'x, y, z'
loop_
 _atom_site_type_symbol
 _atom_site_label
 _atom_site_symmetry_multiplicity
 _atom_site_fract_x
 _atom_site_fract_y
 _atom_site_fract_z
 _atom_site_occupancy
  In  In0  1  0.01285386  0.17204176  0.10947316  1
  In  In1  1  0.00044092  0.16516714  0.63554832  1
  In  In2  1  -0.00758074  0.49136426  0.11413562  1
  In  In3  1  0.00546136  0.49774802  0.63637788  1
  In  In4  1  -0.00264422  0.84088261  0.10575026  1
  In  In5  1  -0.00223791  0.83503505  0.63831705  1
  In  In6  1  0.32849652  0.17798819  0.13147793  1
  In  In7  1  0.33495475  0.17380303  0.63030668  1
  In  In8  1  0.32033592  0.48697466  0.11500505  1
  In  In9  1  0.32829105  0.50330910  0.63004914  1
  In  In10  1  0.34009842  0.84748992  0.12450090  1
  In  In11  1  0.33180456  0.81938985  0.62442094  1
  In  In12  1  0.66027658  0.15757444  0.12343926  1
  In  In13  1  0.67212907  0.16019397  0.63622386  1
  In  In14  1  0.67905475  0.50828255  0.10989097  1
  In  In15  1  0.66776325  0.49833413  0.63873826  1
  In  In16  1  0.66982965  0.83609583  0.12457891  1
  In  In17  1  0.65916566  0.83801310  0.63086958  1
  In  In18  1  0.17389208  -0.01028878  0.37032995  1
  In  In19  1  0.13877413  0.01891599  0.89662178  1
  In  In20  1  0.17446009  0.33944172  0.36878556  1
  In  In21  1  0.16573557  0.33563778  0.87363852  1
  In  In22  1  0.15645403  0.64924404  0.37938209  1
  In  In23  1  0.16500025  0.66566041  0.87554906  1
  In  In24  1  0.49962789  -0.00280015  0.37166062  1
  In  In25  1  0.50422654  -0.01054732  0.87243899  1
  In  In26  1  0.48813929  0.34461420  0.37453323  1
  In  In27  1  0.51518933  0.34894897  0.86958140  1
  In  In28  1  0.51659248  0.66297241  0.37378593  1
  In  In29  1  0.48988945  0.65758757  0.86868884  1
  In  In30  1  0.83468153  0.00744788  0.37182187  1
  In  In31  1  0.83669833  0.00351530  0.88310328  1
  In  In32  1  0.83585787  0.32417686  0.36881514  1
  In  In33  1  0.83186439  0.33189754  0.88312840  1
  In  In34  1  0.83192016  0.67789096  0.37315419  1
  In  In35  1  0.83374294  0.66658064  0.87369216  1
  In  In36  1  -0.01308218  0.17297904  0.37225974  1
  In  In37  1  -0.00676571  0.16917046  0.87926471  1
  In  In38  1  0.02127858  0.50266223  0.37714767  1
  In  In39  1  0.00113487  0.50001003  0.87455341  1
  In  In40  1  0.00281357  0.82904096  0.37877079  1
  In  In41  1  0.00027333  0.83536614  0.87831167  1
  In  In42  1  0.34098603  0.16980198  0.36206064  1
  In  In43  1  0.31599892  0.16929532  0.87761898  1
  In  In44  1  0.32236888  0.48738807  0.37028724  1
  In  In45  1  0.33456909  0.49804443  0.87618567  1
  In  In46  1  0.33080297  0.85016022  0.37169524  1
  In  In47  1  0.32685660  0.81913487  0.87031543  1
  In  In48  1  0.67201771  0.15758739  0.36865989  1
  In  In49  1  0.68508068  0.18184256  0.87156422  1
  In  In50  1  0.65534884  0.50338847  0.36996249  1
  In  In51  1  0.66450211  0.49758936  0.88177659  1
  In  In52  1  0.66618703  0.82744384  0.37073247  1
  In  In53  1  0.67840139  0.84394821  0.86671848  1
  In  In54  1  0.16629982  0.00986089  0.11077971  1
  In  In55  1  0.15990746  -0.01078943  0.62922282  1
  In  In56  1  0.16515602  0.33090762  0.12081922  1
  In  In57  1  0.16047883  0.33883073  0.63485473  1
  In  In58  1  0.16001085  0.65827329  0.11192495  1
  In  In59  1  0.17348118  0.66473384  0.63616112  1
  In  In60  1  0.50099137  0.01852186  0.14179965  1
  In  In61  1  0.51740520  -0.00531095  0.62080548  1
  In  In62  1  0.48724948  0.32675557  0.12369495  1
  In  In63  1  0.49436722  0.33878009  0.63537401  1
  In  In64  1  0.51641381  0.67002615  0.12368466  1
  In  In65  1  0.49440845  0.67309184  0.62911315  1
  In  In66  1  0.82958068  -0.00617954  0.11158647  1
  In  In67  1  0.83249394  -0.00271234  0.63405348  1
  In  In68  1  0.84128990  0.34832922  0.11121749  1
  In  In69  1  0.83427593  0.33066471  0.64102098  1
  In  In70  1  0.82789950  0.66612406  0.11431731  1
  In  In71  1  0.83738793  0.66195134  0.64148306  1
  In  In72  1  0.16543587  0.16801240  0.50695226  1
  In  In73  1  0.34130495  0.67059464  0.24512714  1
  In  In74  1  -0.00640111  0.66664208  0.25212221  1
  In  In75  1  0.49962824  0.16993621  0.00189789  1
  In  In76  1  0.83727663  0.83301378  0.50178222  1
  In  In77  1  0.49433568  0.50560744  0.50751363  1
  In  In78  1  0.66102465  0.32954291  0.24306714  1
  In  In79  1  0.00113535  0.00489457  0.24521594  1
  In  In80  1  0.50151175  0.83225559  0.00076886  1
  In  In81  1  0.32875987  -0.00402584  0.75054045  1
  In  In82  1  0.83397896  0.15956307  0.50793012  1
  In  In83  1  0.16961074  0.82887573  0.49980357  1
  In  In84  1  0.83880873  0.49867929  0.51186079  1
  In  In85  1  0.49806247  0.16762434  0.49000618  1
  Cu  Cu86  1  0.00586025  0.33735840  -0.00606579  1
  Cu  Cu87  1  0.83627733  0.16977665  0.24350756  1
  Cu  Cu88  1  0.83148614  0.50251263  0.23840025  1
  Cu  Cu89  1  0.16180646  0.83511721  0.75735998  1
  Cu  Cu90  1  0.33620922  0.66478737  0.50313778  1
  Cu  Cu91  1  0.34074185  0.00363384  0.49360225  1
  Cu  Cu92  1  0.49935997  0.49986420  0.24673580  1
  Cu  Cu93  1  0.50534256  0.82829136  0.75063468  1
  Cu  Cu94  1  0.15655108  0.17091526  0.75870935  1
  Cu  Cu95  1  0.00485169  0.34033142  0.50398144  1
  Cu  Cu96  1  0.33065504  0.33229808  -0.00214018  1
  Cu  Cu97  1  0.66741138  0.67022229  -0.00596721  1
  Cu  Cu98  1  0.66641572  0.00324684  -0.00142938  1
  Cu  Cu99  1  0.83361695  0.83256734  0.75783079  1
  Cu  Cu100  1  0.33280580  0.65963454  -0.00599895  1
  Cu  Cu101  1  0.16724498  0.16793130  0.24155317  1
  Cu  Cu102  1  0.66111361  0.32461545  0.50611609  1
  Cu  Cu103  1  0.83188491  0.49707054  0.76205493  1
  Cu  Cu104  1  0.50156935  0.49696243  0.75332892  1
  Cu  Cu105  1  -0.00330971  0.66450881  -0.00762293  1
  Cu  Cu106  1  0.83276255  0.16468323  0.75978740  1
  Cu  Cu107  1  0.17185854  0.83484098  0.24300426  1
  Cu  Cu108  1  0.17044178  0.50197576  0.75695294  1
  Cu  Cu109  1  0.67429478  0.66925609  0.49892232  1
  Cu  Cu110  1  0.82748187  0.83346747  0.24367932  1
  Cu  Cu111  1  0.49955298  0.16692684  0.75094648  1
  Cu  Cu112  1  0.16407761  0.48888151  0.24333291  1
  Cu  Cu113  1  0.50836776  0.84025325  0.24948234  1
  Cu  Cu114  1  0.32462069  -0.00145481  0.00192153  1
  Se  Se115  1  0.06549504  0.06674670  0.04295727  1
  Se  Se116  1  0.07337699  0.07461921  0.56062035  1
  Se  Se117  1  0.08939129  0.41887247  0.05052752  1
  Se  Se118  1  0.08442107  0.42078424  0.56089383  1
  Se  Se119  1  0.08040894  0.74654353  0.04712851  1
  Se  Se120  1  0.08204751  0.74925796  0.56701454  1
  Se  Se121  1  0.41012826  0.07676118  0.06075176  1
  Se  Se122  1  0.41317387  0.08050032  0.56092514  1
  Se  Se123  1  0.41666087  0.41323203  0.05082853  1
  Se  Se124  1  0.40674887  0.40786378  0.55870849  1
  Se  Se125  1  0.40860476  0.74019285  0.05908370  1
  Se  Se126  1  0.42025570  0.75067536  0.55165314  1
  Se  Se127  1  0.74804631  0.08915404  0.05080892  1
  Se  Se128  1  0.73870250  0.06876252  0.55963999  1
  Se  Se129  1  0.75020839  0.41835639  0.04261588  1
  Se  Se130  1  0.74241614  0.40444515  0.56414808  1
  Se  Se131  1  0.74566807  0.75626312  0.05029056  1
  Se  Se132  1  0.75264317  0.74153346  0.56461680  1
  Se  Se133  1  0.25024655  0.24655527  0.05280040  1
  Se  Se134  1  0.25494481  0.26119577  0.56144363  1
  Se  Se135  1  0.24685462  0.57691535  0.04671439  1
  Se  Se136  1  0.25125498  0.58865200  0.55919044  1
  Se  Se137  1  0.24651818  0.90916804  0.05348625  1
  Se  Se138  1  0.26048679  0.92568392  0.55751201  1
  Se  Se139  1  0.59202513  0.26061944  0.05780949  1
  Se  Se140  1  0.58163559  0.24725529  0.56570621  1
  Se  Se141  1  0.58302424  0.58790995  0.04748655  1
  Se  Se142  1  0.59632088  0.58840068  0.56145403  1
  Se  Se143  1  0.57999436  0.93197631  0.06138664  1
  Se  Se144  1  0.58414298  0.90511378  0.55084593  1
  Se  Se145  1  0.92163060  0.25557521  0.04842027  1
  Se  Se146  1  0.92269076  0.25919041  0.56200827  1
  Se  Se147  1  0.91425203  0.58280842  0.04954854  1
  Se  Se148  1  0.92684834  0.59303435  0.56581027  1
  Se  Se149  1  0.90920316  0.91592410  0.03987641  1
  Se  Se150  1  0.92554091  0.92315904  0.56187655  1
  Se  Se151  1  0.07579561  0.25456175  0.44161845  1
  Se  Se152  1  0.08712217  0.24974523  0.94341289  1
  Se  Se153  1  0.07792759  0.58458437  0.45700103  1
  Se  Se154  1  0.08529922  0.58028177  0.94522726  1
  Se  Se155  1  0.07830073  0.92618509  0.44407339  1
  Se  Se156  1  0.10028980  0.89599228  0.94674150  1
  Se  Se157  1  0.39994062  0.26178560  0.44288268  1
  Se  Se158  1  0.41285757  0.25558737  0.93633784  1
  Se  Se159  1  0.41059216  0.58751140  0.43543721  1
  Se  Se160  1  0.42165802  0.57783127  0.94645786  1
  Se  Se161  1  0.42081046  0.91453312  0.44460962  1
  Se  Se162  1  0.40538350  0.92025926  0.94126991  1
  Se  Se163  1  0.74455864  0.25231939  0.44394680  1
  Se  Se164  1  0.75466502  0.24601376  0.95365969  1
  Se  Se165  1  0.74854242  0.58193864  0.44106947  1
  Se  Se166  1  0.75247853  0.58442799  0.94494906  1
  Se  Se167  1  0.75005156  0.92074220  0.43877205  1
  Se  Se168  1  0.74766403  0.91585305  0.94747913  1
  Se  Se169  1  0.25470428  0.08242782  0.43897332  1
  Se  Se170  1  0.24532325  0.08942734  0.95336901  1
  Se  Se171  1  0.23676938  0.42569795  0.44502672  1
  Se  Se172  1  0.24824633  0.41726989  0.94439565  1
  Se  Se173  1  0.25878663  0.74080092  0.43471358  1
  Se  Se174  1  0.24931468  0.74775370  0.94706809  1
  Se  Se175  1  0.59557559  0.07443123  0.44276839  1
  Se  Se176  1  0.58599721  0.08067337  0.93739207  1
  Se  Se177  1  0.58822953  0.41097466  0.44650664  1
  Se  Se178  1  0.58031775  0.41791945  0.95175373  1
  Se  Se179  1  0.58809640  0.74872486  0.44594806  1
  Se  Se180  1  0.58626851  0.74975090  0.93310657  1
  Se  Se181  1  0.92815880  0.07420034  0.44560062  1
  Se  Se182  1  0.92489646  0.07931040  0.95173917  1
  Se  Se183  1  0.91863127  0.41036229  0.44066500  1
  Se  Se184  1  0.91788257  0.42111805  0.94585951  1
  Se  Se185  1  0.92993847  0.73516609  0.44752254  1
  Se  Se186  1  0.91208186  0.75120410  0.94421390  1
  Se  Se187  1  0.24806011  0.24986787  0.30012084  1
  Se  Se188  1  0.24907816  0.25277230  0.80203781  1
  Se  Se189  1  0.24121568  0.58032876  0.29923065  1
  Se  Se190  1  0.25526599  0.58661331  0.80770261  1
  Se  Se191  1  0.25392153  0.92123572  0.29320628  1
  Se  Se192  1  0.23826533  0.92015594  0.81777164  1
  Se  Se193  1  0.57637626  0.24937084  0.31447336  1
  Se  Se194  1  0.58339745  0.24703592  0.80682738  1
  Se  Se195  1  0.58552302  0.58528056  0.29476009  1
  Se  Se196  1  0.58510386  0.57945451  0.80737409  1
  Se  Se197  1  0.59234305  0.92090322  0.30475906  1
  Se  Se198  1  0.58586825  0.91849346  0.79824908  1
  Se  Se199  1  0.92004150  0.25391680  0.29477340  1
  Se  Se200  1  0.91459731  0.25363612  0.80892626  1
  Se  Se201  1  0.90728677  0.57167249  0.31171102  1
  Se  Se202  1  0.91960406  0.58491894  0.80541006  1
  Se  Se203  1  0.91396455  0.90678729  0.30561775  1
  Se  Se204  1  0.91467510  0.91837372  0.81057078  1
  Se  Se205  1  0.09104428  0.09237995  0.30981256  1
  Se  Se206  1  0.07599256  0.08284885  0.80901077  1
  Se  Se207  1  0.07930993  0.41294586  0.30165670  1
  Se  Se208  1  0.08240745  0.41682331  0.80379045  1
  Se  Se209  1  0.09630341  0.75537314  0.30669071  1
  Se  Se210  1  0.07950055  0.74782271  0.80759566  1
  Se  Se211  1  0.41315806  0.07262863  0.30262032  1
  Se  Se212  1  0.41770398  0.08789494  0.81204800  1
  Se  Se213  1  0.41252613  0.41926231  0.29807820  1
  Se  Se214  1  0.41457664  0.41451554  0.80442474  1
  Se  Se215  1  0.42729971  0.75881862  0.30999224  1
  Se  Se216  1  0.41549299  0.74850426  0.79987401  1
  Se  Se217  1  0.75718246  0.08339584  0.29705165  1
  Se  Se218  1  0.74928954  0.07724214  0.80949779  1
  Se  Se219  1  0.75347501  0.42287061  0.30491696  1
  Se  Se220  1  0.74725327  0.41287413  0.81236459  1
  Se  Se221  1  0.74941571  0.74692013  0.29883464  1
  Se  Se222  1  0.74670107  0.74453207  0.80284081  1
  Se  Se223  1  0.24509184  0.07988538  0.18857611  1
  Se  Se224  1  0.23584639  0.09204639  0.69354883  1
  Se  Se225  1  0.25205094  0.40822737  0.19324648  1
  Se  Se226  1  0.25112719  0.41787541  0.70027760  1
  Se  Se227  1  0.24428906  0.74977047  0.18267693  1
  Se  Se228  1  0.25048762  0.75651261  0.70321923  1
  Se  Se229  1  0.59162589  0.09286808  0.20670468  1
  Se  Se230  1  0.57967579  0.07946295  0.69873874  1
  Se  Se231  1  0.58079433  0.42601975  0.18212817  1
  Se  Se232  1  0.58671374  0.40999156  0.70297834  1
  Se  Se233  1  0.58813979  0.75451976  0.19590566  1
  Se  Se234  1  0.58789037  0.74289402  0.69771973  1
  Se  Se235  1  0.91394375  0.08930965  0.18077228  1
  Se  Se236  1  0.91363605  0.08325557  0.70060974  1
  Se  Se237  1  0.91756798  0.41681930  0.19217482  1
  Se  Se238  1  0.91657112  0.41877751  0.70352447  1
  Se  Se239  1  0.91518093  0.75884926  0.18524396  1
  Se  Se240  1  0.91971275  0.74889024  0.70627321  1
  Se  Se241  1  0.08030320  0.24853685  0.19000968  1
  Se  Se242  1  0.07644609  0.25473481  0.70179295  1
  Se  Se243  1  0.08292312  0.57688499  0.19014140  1
  Se  Se244  1  0.08599885  0.58542327  0.70321303  1
  Se  Se245  1  0.08572584  0.91066320  0.18499392  1
  Se  Se246  1  0.07958049  0.92152963  0.70558788  1
  Se  Se247  1  0.42713286  0.24002392  0.19865116  1
  Se  Se248  1  0.41329638  0.25182033  0.70253334  1
  Se  Se249  1  0.42052913  0.57661695  0.18192648  1
  Se  Se250  1  0.42104544  0.57997301  0.69526875  1
  Se  Se251  1  0.41980365  0.91999344  0.19883153  1
  Se  Se252  1  0.42293122  0.90979062  0.68945223  1
  Se  Se253  1  0.75895736  0.25099152  0.18216025  1
  Se  Se254  1  0.74765929  0.24742844  0.70493377  1
  Se  Se255  1  0.74869967  0.58768267  0.18884778  1
  Se  Se256  1  0.74959331  0.58092259  0.70616826  1
  Se  Se257  1  0.75173368  0.92386162  0.19106427  1
  Se  Se258  1  0.74996885  0.91195222  0.69936390  1
