# generated using pymatgen
data_In86Cu29Se144
_symmetry_space_group_name_H-M   'P 1'
_cell_length_a   17.58541883
_cell_length_b   17.58075589
_cell_length_c   23.44674330
_cell_angle_alpha   89.99902966
_cell_angle_beta   89.99721734
_cell_angle_gamma   90.01948755
_symmetry_Int_Tables_number   1
_chemical_formula_structural   In86Cu29Se144
_chemical_formula_sum   'In86 Cu29 Se144'
_cell_volume   7248.91092498
_cell_formula_units_Z   1
loop_
 _symmetry_equiv_pos_site_id
 _symmetry_equiv_pos_as_xyz
  1  'x, y, z'
loop_
 _atom_site_type_symbol
 _atom_site_label
 _atom_site_symmetry_multiplicity
 _atom_site_fract_x
 _atom_site_fract_y
 _atom_site_fract_z
 _atom_site_occupancy
  In  In0  1  0.01161431  0.16453984  0.12427716  1
  In  In1  1  0.00127463  0.17092390  0.61685412  1
  In  In2  1  0.00537234  0.50309371  0.12220268  1
  In  In3  1  0.00237432  0.50320310  0.62296010  1
  In  In4  1  -0.00950509  0.81659668  0.13409066  1
  In  In5  1  -0.01108695  0.82244142  0.61279475  1
  In  In6  1  0.33322659  0.16702573  0.12902982  1
  In  In7  1  0.32983689  0.18076630  0.62754366  1
  In  In8  1  0.32636915  0.49880327  0.11996180  1
  In  In9  1  0.32506366  0.49092717  0.61859521  1
  In  In10  1  0.34766694  0.82719784  0.12815124  1
  In  In11  1  0.33385441  0.83327088  0.61340196  1
  In  In12  1  0.66064547  0.19149229  0.12720061  1
  In  In13  1  0.67700395  0.17096997  0.62493676  1
  In  In14  1  0.64805143  0.47272795  0.10074614  1
  In  In15  1  0.66769754  0.50280669  0.62875142  1
  In  In16  1  0.65694085  0.83529297  0.12518416  1
  In  In17  1  0.65998819  0.82128475  0.61824753  1
  In  In18  1  0.17206967  0.00071261  0.37554289  1
  In  In19  1  0.17875032  0.00609448  0.87551181  1
  In  In20  1  0.17550793  0.32795062  0.38017852  1
  In  In21  1  0.18086355  0.32504749  0.88134635  1
  In  In22  1  0.15602410  0.67567496  0.38158242  1
  In  In23  1  0.15483240  0.65868646  0.86873366  1
  In  In24  1  0.48616430  0.00123233  0.37225952  1
  In  In25  1  0.50461281  0.00265209  0.88530722  1
  In  In26  1  0.49901367  0.34296209  0.36302833  1
  In  In27  1  0.50157197  0.34207634  0.87598655  1
  In  In28  1  0.50469993  0.65806687  0.38286427  1
  In  In29  1  0.51634305  0.64633579  0.89527538  1
  In  In30  1  0.83817954  -0.00321979  0.38422296  1
  In  In31  1  0.82984098  0.00203661  0.87323223  1
  In  In32  1  0.82588725  0.34218086  0.38472564  1
  In  In33  1  0.83111608  0.35685727  0.87588424  1
  In  In34  1  0.83438173  0.66104935  0.37947578  1
  In  In35  1  0.79796045  0.61558146  0.82589531  1
  In  In36  1  0.00544570  0.16394195  0.38253449  1
  In  In37  1  0.01005627  0.17928052  0.87708327  1
  In  In38  1  -0.01009315  0.51017186  0.38286280  1
  In  In39  1  -0.00455376  0.50765647  0.87954494  1
  In  In40  1  0.00100688  0.82992893  0.37772848  1
  In  In41  1  0.00381406  0.80963763  0.87254417  1
  In  In42  1  0.32363334  0.16766134  0.36077757  1
  In  In43  1  0.32497493  0.18483930  0.88236522  1
  In  In44  1  0.33822842  0.49113581  0.37981654  1
  In  In45  1  0.35143609  0.48722084  0.88948429  1
  In  In46  1  0.32788597  0.83551116  0.37993525  1
  In  In47  1  0.34023268  0.84278647  0.87387288  1
  In  In48  1  0.66329930  0.18251524  0.37503208  1
  In  In49  1  0.65064987  0.17773981  0.88200593  1
  In  In50  1  0.66552040  0.49489744  0.37889032  1
  In  In51  1  0.65810248  0.49733645  0.87568862  1
  In  In52  1  0.67002112  0.82545476  0.38552521  1
  In  In53  1  0.67646414  0.82030247  0.87650854  1
  In  In54  1  0.17291315  0.01753297  0.12879454  1
  In  In55  1  0.17065841  0.00248545  0.61498615  1
  In  In56  1  0.17677523  0.33926360  0.12389401  1
  In  In57  1  0.16822343  0.33360146  0.62006967  1
  In  In58  1  0.16145901  0.65471740  0.12556874  1
  In  In59  1  0.15760905  0.65822272  0.61786515  1
  In  In60  1  0.48635534  -0.00716581  0.12412757  1
  In  In61  1  0.50806970  -0.00478210  0.62272580  1
  In  In62  1  0.50227096  0.33246030  0.12244364  1
  In  In63  1  0.49180262  0.34521386  0.63420406  1
  In  In64  1  0.48558683  0.65997657  0.10774454  1
  In  In65  1  0.50523512  0.66924015  0.62176514  1
  In  In66  1  0.82884402  -0.00516650  0.12814817  1
  In  In67  1  0.84144081  0.00596758  0.61444697  1
  In  In68  1  0.81121055  0.34030325  0.12530517  1
  In  In69  1  0.83101621  0.33727022  0.62399794  1
  In  In70  1  0.84477243  0.65472455  0.13445125  1
  In  In71  1  0.82995120  0.65887362  0.62440538  1
  In  In72  1  0.83547042  0.82740575  0.00345125  1
  In  In73  1  -0.00172212  0.34112437  0.74476645  1
  In  In74  1  0.00575664  0.33425994  0.25038706  1
  In  In75  1  0.17413647  0.83309905  -0.00183989  1
  In  In76  1  0.33224225  0.65935870  0.24425096  1
  In  In77  1  0.00749812  -0.00206268  0.25962560  1
  In  In78  1  0.66389755  0.65481673  0.25380069  1
  In  In79  1  0.49708427  0.16491268  0.49731039  1
  In  In80  1  0.66670180  -0.00233837  0.24622777  1
  In  In81  1  0.66821616  -0.00003401  0.74229103  1
  In  In82  1  0.33596007  0.66367822  0.75614452  1
  In  In83  1  0.83687506  0.17714646  -0.00451132  1
  In  In84  1  0.00055894  -0.00424931  0.75410671  1
  In  In85  1  0.33735582  0.00466513  0.74546152  1
  Cu  Cu86  1  0.66381875  0.33610088  0.50072520  1
  Cu  Cu87  1  0.33852065  0.33047372  0.00410743  1
  Cu  Cu88  1  0.66825198  0.65982789  0.50240260  1
  Cu  Cu89  1  0.00333843  0.00126801  0.49621331  1
  Cu  Cu90  1  0.66237482  0.00662564  0.00866162  1
  Cu  Cu91  1  0.00850500  0.33665055  0.00296063  1
  Cu  Cu92  1  0.83658610  0.16716453  0.25381708  1
  Cu  Cu93  1  0.82740130  0.49672498  0.25603560  1
  Cu  Cu94  1  0.16560209  0.83727145  0.25788482  1
  Cu  Cu95  1  0.33156883  -0.00053357  0.49321158  1
  Cu  Cu96  1  0.50007558  0.82700567  0.25133287  1
  Cu  Cu97  1  0.83700140  0.82324206  0.73976987  1
  Cu  Cu98  1  0.33139438  0.33208232  0.49951542  1
  Cu  Cu99  1  0.33738351  0.00723192  0.00144085  1
  Cu  Cu100  1  0.82942231  0.17564856  0.74771540  1
  Cu  Cu101  1  -0.00515387  0.65991120  -0.00328191  1
  Cu  Cu102  1  0.50033519  0.50104239  0.75397553  1
  Cu  Cu103  1  0.66861379  -0.00442603  0.50242250  1
  Cu  Cu104  1  -0.00063724  0.66786490  0.50059029  1
  Cu  Cu105  1  0.67343988  0.66509528  -0.00734702  1
  Cu  Cu106  1  0.49727046  0.17287837  0.24810254  1
  Cu  Cu107  1  0.50938958  0.82469680  0.75116758  1
  Cu  Cu108  1  0.16249253  0.50458367  0.25045647  1
  Cu  Cu109  1  0.01183495  -0.00045041  0.00224478  1
  Cu  Cu110  1  0.17066903  0.49010306  0.74644066  1
  Cu  Cu111  1  -0.00119435  0.33605213  0.50144562  1
  Cu  Cu112  1  0.16145661  0.82857260  0.74013413  1
  Cu  Cu113  1  0.33518646  0.66220529  0.49882147  1
  Cu  Cu114  1  0.49503282  0.17773580  0.75699512  1
  Se  Se115  1  0.09213338  0.08728075  0.05156005  1
  Se  Se116  1  0.08437796  0.08626417  0.55054896  1
  Se  Se117  1  0.09114701  0.42101939  0.05628223  1
  Se  Se118  1  0.08354166  0.41804456  0.55490725  1
  Se  Se119  1  0.07317049  0.74704537  0.05446055  1
  Se  Se120  1  0.08819174  0.75240872  0.54955488  1
  Se  Se121  1  0.41970402  0.08934800  0.05700047  1
  Se  Se122  1  0.40740259  0.07570310  0.56134468  1
  Se  Se123  1  0.41729726  0.41907064  0.05574145  1
  Se  Se124  1  0.41744672  0.41283441  0.55295448  1
  Se  Se125  1  0.41682682  0.76086834  0.04678573  1
  Se  Se126  1  0.41944031  0.74709291  0.55139444  1
  Se  Se127  1  0.74962639  0.08652449  0.06196240  1
  Se  Se128  1  0.74799365  0.08575548  0.55249355  1
  Se  Se129  1  0.76624495  0.42757031  0.04514731  1
  Se  Se130  1  0.74643659  0.41907925  0.55600005  1
  Se  Se131  1  0.74477545  0.73907826  0.06468835  1
  Se  Se132  1  0.75261454  0.74597797  0.55332742  1
  Se  Se133  1  0.25225028  0.24871968  0.05655861  1
  Se  Se134  1  0.24798189  0.24612735  0.55034205  1
  Se  Se135  1  0.26043424  0.60172812  0.05730946  1
  Se  Se136  1  0.24896031  0.58114683  0.55220484  1
  Se  Se137  1  0.25767274  0.92420522  0.06188403  1
  Se  Se138  1  0.24850923  0.91543134  0.54742560  1
  Se  Se139  1  0.58752479  0.25824588  0.04870795  1
  Se  Se140  1  0.58236618  0.25487209  0.56104107  1
  Se  Se141  1  0.58630957  0.58696715  0.04737057  1
  Se  Se142  1  0.58244911  0.57828904  0.55573983  1
  Se  Se143  1  0.57906251  0.91783241  0.05612940  1
  Se  Se144  1  0.58164377  0.91219087  0.55139517  1
  Se  Se145  1  0.92461238  0.25970249  0.06480497  1
  Se  Se146  1  0.91277492  0.25372038  0.55464850  1
  Se  Se147  1  0.91398470  0.57982216  0.05484744  1
  Se  Se148  1  0.91692597  0.58237220  0.55365179  1
  Se  Se149  1  0.92938918  0.92221332  0.06060543  1
  Se  Se150  1  0.91718131  0.91754387  0.54712204  1
  Se  Se151  1  0.08404522  0.25333119  0.44802650  1
  Se  Se152  1  0.09000567  0.24929849  0.95202379  1
  Se  Se153  1  0.08411307  0.58259882  0.44945715  1
  Se  Se154  1  0.08809831  0.58144747  0.94889078  1
  Se  Se155  1  0.08519346  0.91845257  0.44111514  1
  Se  Se156  1  0.07816873  0.91801348  0.93455579  1
  Se  Se157  1  0.41081924  0.25377740  0.43584913  1
  Se  Se158  1  0.42325140  0.25275798  0.94591506  1
  Se  Se159  1  0.41831800  0.57636663  0.44852178  1
  Se  Se160  1  0.40170567  0.59789975  0.95147223  1
  Se  Se161  1  0.41954894  0.91479348  0.44620361  1
  Se  Se162  1  0.41664330  0.91913578  0.94887610  1
  Se  Se163  1  0.74748650  0.24933272  0.45035030  1
  Se  Se164  1  0.74289813  0.26740352  0.94245928  1
  Se  Se165  1  0.74968024  0.57762299  0.44592965  1
  Se  Se166  1  0.75349178  0.58889974  0.93089835  1
  Se  Se167  1  0.75334413  0.91266263  0.44978667  1
  Se  Se168  1  0.74423716  0.92731695  0.94742134  1
  Se  Se169  1  0.25498764  0.08921807  0.44054124  1
  Se  Se170  1  0.25164259  0.08753500  0.94809411  1
  Se  Se171  1  0.24736235  0.41910957  0.44973325  1
  Se  Se172  1  0.25223082  0.41448256  0.95148853  1
  Se  Se173  1  0.25071291  0.74828487  0.44784500  1
  Se  Se174  1  0.25257661  0.74539935  0.93070985  1
  Se  Se175  1  0.59061463  0.07443007  0.43808106  1
  Se  Se176  1  0.58159319  0.09001286  0.95387789  1
  Se  Se177  1  0.57699431  0.41064557  0.44332072  1
  Se  Se178  1  0.56495188  0.43559890  0.94741855  1
  Se  Se179  1  0.58280324  0.74498639  0.45077107  1
  Se  Se180  1  0.58720040  0.75658044  0.94918900  1
  Se  Se181  1  0.91525581  0.08783132  0.44919241  1
  Se  Se182  1  0.92723823  0.07601276  0.94101656  1
  Se  Se183  1  0.91358963  0.42079780  0.45092430  1
  Se  Se184  1  0.92302154  0.41705157  0.94948641  1
  Se  Se185  1  0.91525441  0.74944978  0.44586690  1
  Se  Se186  1  0.91042629  0.73508036  0.93738259  1
  Se  Se187  1  0.25942858  0.27246777  0.29993909  1
  Se  Se188  1  0.24737539  0.24696031  0.80252750  1
  Se  Se189  1  0.24253189  0.58258023  0.31365688  1
  Se  Se190  1  0.24931465  0.56682746  0.81162388  1
  Se  Se191  1  0.25420217  0.91802966  0.30566355  1
  Se  Se192  1  0.24134402  0.90839465  0.80037127  1
  Se  Se193  1  0.58381373  0.25348937  0.30006742  1
  Se  Se194  1  0.58505753  0.25882105  0.80479854  1
  Se  Se195  1  0.56760363  0.56584065  0.30728096  1
  Se  Se196  1  0.57975963  0.58879829  0.80623763  1
  Se  Se197  1  0.58069807  0.90730621  0.31105662  1
  Se  Se198  1  0.58287652  0.91401106  0.80989440  1
  Se  Se199  1  0.91431550  0.24837016  0.31406756  1
  Se  Se200  1  0.90992801  0.24962460  0.81117445  1
  Se  Se201  1  0.91236513  0.58180775  0.30482645  1
  Se  Se202  1  0.93954389  0.59723785  0.80320587  1
  Se  Se203  1  0.90665407  0.90986371  0.30783019  1
  Se  Se204  1  0.90580799  0.90219478  0.80894458  1
  Se  Se205  1  0.09676137  0.09877319  0.30633503  1
  Se  Se206  1  0.09158673  0.09117558  0.80667673  1
  Se  Se207  1  0.08564972  0.42644977  0.31525191  1
  Se  Se208  1  0.09005735  0.41761201  0.81312346  1
  Se  Se209  1  0.08029325  0.75052443  0.30410926  1
  Se  Se210  1  0.08316673  0.74339353  0.79443741  1
  Se  Se211  1  0.41669979  0.08514789  0.29931459  1
  Se  Se212  1  0.42206256  0.08857787  0.81380688  1
  Se  Se213  1  0.39669461  0.40852143  0.30015874  1
  Se  Se214  1  0.41376567  0.41776226  0.80421398  1
  Se  Se215  1  0.41958568  0.74640427  0.31159684  1
  Se  Se216  1  0.42956396  0.75092755  0.81489401  1
  Se  Se217  1  0.75402913  0.08597323  0.31173946  1
  Se  Se218  1  0.74975570  0.09456132  0.80869149  1
  Se  Se219  1  0.74553330  0.41156005  0.30759794  1
  Se  Se220  1  0.75192918  0.43061440  0.80347943  1
  Se  Se221  1  0.75127729  0.75119616  0.30912360  1
  Se  Se222  1  0.74744168  0.75142656  0.79616426  1
  Se  Se223  1  0.26076410  0.07930226  0.20145541  1
  Se  Se224  1  0.23958146  0.09054261  0.69195827  1
  Se  Se225  1  0.24810841  0.42530745  0.19713453  1
  Se  Se226  1  0.25313433  0.40794879  0.69334209  1
  Se  Se227  1  0.23996094  0.75772486  0.19115305  1
  Se  Se228  1  0.25070965  0.75020200  0.68687485  1
  Se  Se229  1  0.57789466  0.08996162  0.18858238  1
  Se  Se230  1  0.57133864  0.09699232  0.69286512  1
  Se  Se231  1  0.59352522  0.41019563  0.18973232  1
  Se  Se232  1  0.58502756  0.41928869  0.69913745  1
  Se  Se233  1  0.57263809  0.74402445  0.18962524  1
  Se  Se234  1  0.58944980  0.74286381  0.69593199  1
  Se  Se235  1  0.91390464  0.08720240  0.19340433  1
  Se  Se236  1  0.91176904  0.09122554  0.69426886  1
  Se  Se237  1  0.90973665  0.42005876  0.19208512  1
  Se  Se238  1  0.90437550  0.43353410  0.69408694  1
  Se  Se239  1  0.90983037  0.74495836  0.20612826  1
  Se  Se240  1  0.92221618  0.74140407  0.68981065  1
  Se  Se241  1  0.09759844  0.24348709  0.19442131  1
  Se  Se242  1  0.08647088  0.24354855  0.69196260  1
  Se  Se243  1  0.07554415  0.58557354  0.19932304  1
  Se  Se244  1  0.08929305  0.57723999  0.69535465  1
  Se  Se245  1  0.08842256  0.91060366  0.18838983  1
  Se  Se246  1  0.08369317  0.91294559  0.68334030  1
  Se  Se247  1  0.41589073  0.25622659  0.19377872  1
  Se  Se248  1  0.41150147  0.25537277  0.69979865  1
  Se  Se249  1  0.42804837  0.57295093  0.18904088  1
  Se  Se250  1  0.41939186  0.57643731  0.68932114  1
  Se  Se251  1  0.41608384  0.91380196  0.20219378  1
  Se  Se252  1  0.42667674  0.90365955  0.69249132  1
  Se  Se253  1  0.75272551  0.25064325  0.20182163  1
  Se  Se254  1  0.74632613  0.25890835  0.69649285  1
  Se  Se255  1  0.74649113  0.56634202  0.18838994  1
  Se  Se256  1  0.74475074  0.58967094  0.69964520  1
  Se  Se257  1  0.75891263  0.89823185  0.19614734  1
  Se  Se258  1  0.76062306  0.91214348  0.68343074  1
