# generated using pymatgen
data_In86Cu29Se144
_symmetry_space_group_name_H-M   'P 1'
_cell_length_a   17.57680059
_cell_length_b   17.57825218
_cell_length_c   23.43750983
_cell_angle_alpha   90.00517471
_cell_angle_beta   89.98837852
_cell_angle_gamma   89.98210249
_symmetry_Int_Tables_number   1
_chemical_formula_structural   In86Cu29Se144
_chemical_formula_sum   'In86 Cu29 Se144'
_cell_volume   7241.47359613
_cell_formula_units_Z   1
loop_
 _symmetry_equiv_pos_site_id
 _symmetry_equiv_pos_as_xyz
  1  'x, y, z'
loop_
 _atom_site_type_symbol
 _atom_site_label
 _atom_site_symmetry_multiplicity
 _atom_site_fract_x
 _atom_site_fract_y
 _atom_site_fract_z
 _atom_site_occupancy
  In  In0  1  0.01163956  0.17507143  0.12885674  1
  In  In1  1  0.01841468  0.15305844  0.63504773  1
  In  In2  1  0.00699946  0.49675148  0.12964782  1
  In  In3  1  0.00103494  0.49980533  0.62045791  1
  In  In4  1  -0.00456191  0.82123787  0.12588428  1
  In  In5  1  0.01459626  0.84790547  0.61696978  1
  In  In6  1  0.33272893  0.14899428  0.12892893  1
  In  In7  1  0.33085902  0.17121445  0.62564915  1
  In  In8  1  0.33582624  0.51353378  0.12733400  1
  In  In9  1  0.31653559  0.49885013  0.61613531  1
  In  In10  1  0.33389381  0.83471386  0.12784370  1
  In  In11  1  0.34055910  0.83699909  0.61868039  1
  In  In12  1  0.66146663  0.17514000  0.12538970  1
  In  In13  1  0.65369222  0.16185274  0.61740893  1
  In  In14  1  0.66651598  0.49987430  0.13693628  1
  In  In15  1  0.68194339  0.49944710  0.62055274  1
  In  In16  1  0.65332053  0.83408131  0.12945238  1
  In  In17  1  0.65305457  0.82902836  0.61381195  1
  In  In18  1  0.18170989  -0.01470675  0.38132028  1
  In  In19  1  0.16351530  -0.01460308  0.85926756  1
  In  In20  1  0.15968512  0.34518862  0.39009537  1
  In  In21  1  0.17068963  0.33409815  0.86716489  1
  In  In22  1  0.16648926  0.66992115  0.37439438  1
  In  In23  1  0.16666083  0.66924669  0.88228682  1
  In  In24  1  0.49332005  0.01014856  0.38671018  1
  In  In25  1  0.48634372  0.01214061  0.88914104  1
  In  In26  1  0.49577598  0.31534236  0.37709863  1
  In  In27  1  0.47998734  0.32609874  0.86603947  1
  In  In28  1  0.50438209  0.67460384  0.37059341  1
  In  In29  1  0.51167792  0.66575211  0.87153280  1
  In  In30  1  0.82063163  -0.01183374  0.38242180  1
  In  In31  1  0.83714953  -0.00495165  0.86778077  1
  In  In32  1  0.84369258  0.34582043  0.37074368  1
  In  In33  1  0.83767206  0.32314489  0.87254887  1
  In  In34  1  0.83511795  0.66322017  0.37715551  1
  In  In35  1  0.82560941  0.67751932  0.87346134  1
  In  In36  1  0.00123233  0.18152386  0.37394413  1
  In  In37  1  -0.00334300  0.16581121  0.86433533  1
  In  In38  1  0.00127140  0.50112616  0.37737973  1
  In  In39  1  0.01848380  0.50338824  0.87549190  1
  In  In40  1  0.01376055  0.81803790  0.38225213  1
  In  In41  1  0.01582967  0.84994793  0.86798842  1
  In  In42  1  0.34270054  0.16188891  0.38783442  1
  In  In43  1  0.33832362  0.16238041  0.86549993  1
  In  In44  1  0.30973615  0.50390218  0.38573635  1
  In  In45  1  0.32898508  0.48916568  0.87439175  1
  In  In46  1  0.33068809  0.83201431  0.37478110  1
  In  In47  1  0.32290046  0.84655770  0.87943209  1
  In  In48  1  0.64981389  0.16203838  0.37563187  1
  In  In49  1  0.64411493  0.15263696  0.87183285  1
  In  In50  1  0.67649710  0.51075701  0.36923282  1
  In  In51  1  0.65399685  0.50939578  0.87161043  1
  In  In52  1  0.67476416  0.82881982  0.38721598  1
  In  In53  1  0.66825834  0.82446060  0.87517138  1
  In  In54  1  0.17911048  0.00567651  0.12646667  1
  In  In55  1  0.16748404  0.00015133  0.62664006  1
  In  In56  1  0.15383560  0.33361411  0.12899846  1
  In  In57  1  0.17144629  0.33063039  0.62463805  1
  In  In58  1  0.17017624  0.66855551  0.12696809  1
  In  In59  1  0.18070486  0.67143608  0.60525353  1
  In  In60  1  0.49408915  -0.01802938  0.11042221  1
  In  In61  1  0.49333826  -0.00770698  0.62094800  1
  In  In62  1  0.50466260  0.33755825  0.12730795  1
  In  In63  1  0.49294377  0.31533222  0.62020924  1
  In  In64  1  0.48745704  0.67341072  0.13795278  1
  In  In65  1  0.49653325  0.68610488  0.61923106  1
  In  In66  1  0.83111143  -0.00783762  0.12339117  1
  In  In67  1  0.85005870  0.00204973  0.62413763  1
  In  In68  1  0.82964699  0.33523476  0.13256491  1
  In  In69  1  0.84034499  0.34833504  0.62187487  1
  In  In70  1  0.83698207  0.66552146  0.13767401  1
  In  In71  1  0.82948147  0.66195661  0.61864661  1
  In  In72  1  0.82814663  0.16184098  -0.00727793  1
  In  In73  1  0.33579744  0.67022072  0.74039739  1
  In  In74  1  0.67143404  0.33637135  0.74713343  1
  In  In75  1  0.83784869  0.16799751  0.50003208  1
  In  In76  1  0.66644765  -0.00435503  0.74684111  1
  In  In77  1  0.83356501  0.49735089  0.01150424  1
  In  In78  1  0.65910803  0.00017162  0.25331721  1
  In  In79  1  0.49348137  0.50454459  0.00148292  1
  In  In80  1  0.32995603  0.33652988  0.26277852  1
  In  In81  1  -0.00046153  0.00037052  0.24818136  1
  In  In82  1  0.16801282  0.16224339  0.00041377  1
  In  In83  1  0.00351450  0.66874264  0.74919451  1
  In  In84  1  0.83720598  0.83394082  -0.00430072  1
  In  In85  1  0.49796526  0.50157200  0.49003767  1
  Cu  Cu86  1  0.50200050  0.50172851  0.74575850  1
  Cu  Cu87  1  0.50102882  0.50003688  0.25585283  1
  Cu  Cu88  1  0.83542462  0.82449369  0.26024533  1
  Cu  Cu89  1  0.49343626  0.16193576  0.25398266  1
  Cu  Cu90  1  0.49582020  0.83701745  0.25187738  1
  Cu  Cu91  1  0.49995005  0.83579119  0.74645851  1
  Cu  Cu92  1  -0.00358619  0.66410474  0.49781045  1
  Cu  Cu93  1  0.83293850  0.82807762  0.74690889  1
  Cu  Cu94  1  0.33236685  0.67490127  0.00600269  1
  Cu  Cu95  1  0.01326963  0.67220438  0.00029410  1
  Cu  Cu96  1  0.17148140  0.16991609  0.74660563  1
  Cu  Cu97  1  0.00559983  0.33373108  0.50272054  1
  Cu  Cu98  1  0.16660527  0.49870429  0.74579577  1
  Cu  Cu99  1  0.00224896  -0.00198311  0.50211951  1
  Cu  Cu100  1  0.83647013  0.50063846  0.25264307  1
  Cu  Cu101  1  0.17134221  0.82909665  0.25362565  1
  Cu  Cu102  1  0.32664659  0.32628645  -0.00770347  1
  Cu  Cu103  1  0.33203352  -0.00472958  -0.00009306  1
  Cu  Cu104  1  0.16704433  0.16820712  0.25398736  1
  Cu  Cu105  1  0.66318580  0.67038332  0.00387069  1
  Cu  Cu106  1  0.83844424  0.17273239  0.74314828  1
  Cu  Cu107  1  0.66779736  0.66515897  0.49587904  1
  Cu  Cu108  1  0.16227662  0.50330531  0.25509675  1
  Cu  Cu109  1  0.83108110  0.17622032  0.25149164  1
  Cu  Cu110  1  0.64889147  0.32546525  -0.00057638  1
  Cu  Cu111  1  0.33007883  0.00051609  0.50366103  1
  Cu  Cu112  1  0.00200309  0.33468209  0.00317110  1
  Cu  Cu113  1  0.83691240  0.50451530  0.74393555  1
  Cu  Cu114  1  0.67080306  0.33270275  0.49888913  1
  Se  Se115  1  0.07404120  0.07531184  0.06020950  1
  Se  Se116  1  0.08597658  0.08260145  0.55322387  1
  Se  Se117  1  0.08534183  0.41854682  0.05440570  1
  Se  Se118  1  0.08893194  0.41786864  0.55583803  1
  Se  Se119  1  0.09031775  0.75592975  0.05690405  1
  Se  Se120  1  0.07943760  0.74923784  0.54962829  1
  Se  Se121  1  0.41399642  0.08170870  0.05259783  1
  Se  Se122  1  0.41368042  0.08398424  0.55682282  1
  Se  Se123  1  0.40299466  0.40790702  0.05754669  1
  Se  Se124  1  0.41558115  0.41390345  0.55664981  1
  Se  Se125  1  0.42104086  0.75203173  0.05887458  1
  Se  Se126  1  0.40659677  0.74554305  0.54688931  1
  Se  Se127  1  0.74192809  0.07710252  0.05976184  1
  Se  Se128  1  0.74917822  0.07671265  0.55889207  1
  Se  Se129  1  0.73183408  0.40465716  0.05840307  1
  Se  Se130  1  0.75636716  0.41737753  0.54682805  1
  Se  Se131  1  0.75187933  0.74423378  0.06205114  1
  Se  Se132  1  0.74813851  0.74888658  0.55223196  1
  Se  Se133  1  0.25457847  0.25346969  0.06442804  1
  Se  Se134  1  0.23919043  0.23901733  0.55446423  1
  Se  Se135  1  0.25126410  0.58473067  0.05480057  1
  Se  Se136  1  0.24935574  0.57729319  0.53910843  1
  Se  Se137  1  0.24937690  0.91577991  0.05689324  1
  Se  Se138  1  0.24668225  0.91584121  0.55546189  1
  Se  Se139  1  0.56871987  0.24483296  0.05521621  1
  Se  Se140  1  0.58326333  0.24998924  0.54646237  1
  Se  Se141  1  0.58574755  0.58817075  0.06478737  1
  Se  Se142  1  0.58717417  0.58579639  0.55768633  1
  Se  Se143  1  0.59739963  0.91573132  0.05040585  1
  Se  Se144  1  0.58332864  0.92416263  0.54965208  1
  Se  Se145  1  0.91666252  0.25393803  0.05793772  1
  Se  Se146  1  0.92877262  0.25082637  0.56442001  1
  Se  Se147  1  0.92637754  0.59628782  0.05915155  1
  Se  Se148  1  0.91506230  0.57935714  0.55233654  1
  Se  Se149  1  0.92854367  0.92356073  0.05604579  1
  Se  Se150  1  0.91488908  0.91381593  0.54976544  1
  Se  Se151  1  0.08431748  0.24476677  0.45120031  1
  Se  Se152  1  0.07580038  0.25201586  0.94006520  1
  Se  Se153  1  0.08489889  0.58449922  0.44456357  1
  Se  Se154  1  0.09158246  0.57983817  0.95141096  1
  Se  Se155  1  0.08408642  0.91556701  0.44658736  1
  Se  Se156  1  0.09275620  0.92141799  0.94320100  1
  Se  Se157  1  0.42200068  0.24727547  0.45543707  1
  Se  Se158  1  0.41279413  0.24418184  0.94257539  1
  Se  Se159  1  0.40715903  0.59695010  0.43836668  1
  Se  Se160  1  0.40601573  0.59442702  0.93841950  1
  Se  Se161  1  0.41057641  0.91706401  0.44625136  1
  Se  Se162  1  0.41845816  0.90901933  0.95052852  1
  Se  Se163  1  0.74941505  0.25325035  0.43504934  1
  Se  Se164  1  0.73312361  0.25535558  0.93628318  1
  Se  Se165  1  0.75376654  0.57911688  0.44818962  1
  Se  Se166  1  0.74392958  0.58677004  0.94619445  1
  Se  Se167  1  0.74307288  0.91966980  0.45791510  1
  Se  Se168  1  0.74472267  0.92608190  0.93961210  1
  Se  Se169  1  0.24656140  0.08298072  0.44895727  1
  Se  Se170  1  0.25415586  0.07573181  0.93733409  1
  Se  Se171  1  0.26559941  0.39966707  0.45427426  1
  Se  Se172  1  0.24330634  0.41371731  0.94478079  1
  Se  Se173  1  0.22910571  0.77009272  0.44068567  1
  Se  Se174  1  0.24979680  0.75428965  0.94760258  1
  Se  Se175  1  0.59146018  0.07767617  0.45212740  1
  Se  Se176  1  0.58503905  0.07971922  0.95387291  1
  Se  Se177  1  0.59320247  0.41042644  0.43419564  1
  Se  Se178  1  0.57817202  0.41126304  0.93740092  1
  Se  Se179  1  0.57946141  0.74884887  0.44860572  1
  Se  Se180  1  0.58192815  0.74921719  0.94681946  1
  Se  Se181  1  0.92475712  0.07613067  0.43693438  1
  Se  Se182  1  0.92646117  0.07432970  0.93961954  1
  Se  Se183  1  0.92089616  0.41568034  0.44868807  1
  Se  Se184  1  0.92023377  0.41342543  0.94212376  1
  Se  Se185  1  0.91314759  0.75099141  0.44646732  1
  Se  Se186  1  0.93140195  0.74488644  0.93570060  1
  Se  Se187  1  0.24263806  0.24414156  0.32046022  1
  Se  Se188  1  0.25544271  0.25164048  0.80162919  1
  Se  Se189  1  0.24958809  0.58463689  0.30499347  1
  Se  Se190  1  0.24580870  0.58149691  0.80594943  1
  Se  Se191  1  0.25481105  0.91777552  0.30020412  1
  Se  Se192  1  0.26414664  0.91972397  0.79600014  1
  Se  Se193  1  0.58042166  0.24721282  0.30104436  1
  Se  Se194  1  0.57541992  0.24574353  0.80010856  1
  Se  Se195  1  0.58568672  0.58774534  0.30349851  1
  Se  Se196  1  0.58585798  0.58815257  0.79425666  1
  Se  Se197  1  0.57622673  0.91067790  0.31699239  1
  Se  Se198  1  0.57801038  0.91210376  0.81186830  1
  Se  Se199  1  0.91975476  0.25633185  0.30117151  1
  Se  Se200  1  0.92047422  0.25696744  0.79670838  1
  Se  Se201  1  0.91934459  0.58344872  0.30682622  1
  Se  Se202  1  0.91218340  0.57937581  0.81272209  1
  Se  Se203  1  0.91503857  0.91170552  0.31411388  1
  Se  Se204  1  0.91642702  0.91159044  0.79943136  1
  Se  Se205  1  0.08801669  0.08346735  0.31359180  1
  Se  Se206  1  0.08747871  0.08664047  0.80094159  1
  Se  Se207  1  0.08544406  0.41499531  0.30952000  1
  Se  Se208  1  0.08280509  0.41717675  0.80081792  1
  Se  Se209  1  0.08158975  0.74662846  0.30034710  1
  Se  Se210  1  0.10016839  0.75642078  0.80376089  1
  Se  Se211  1  0.41235388  0.08111563  0.30966796  1
  Se  Se212  1  0.42433692  0.07511231  0.80347869  1
  Se  Se213  1  0.42152472  0.42678462  0.32059499  1
  Se  Se214  1  0.41497317  0.42343620  0.79880995  1
  Se  Se215  1  0.41346534  0.75077663  0.30332439  1
  Se  Se216  1  0.42101489  0.75420405  0.80876233  1
  Se  Se217  1  0.75713876  0.08936334  0.30996958  1
  Se  Se218  1  0.75554452  0.09566401  0.80531728  1
  Se  Se219  1  0.75007760  0.41623058  0.30261147  1
  Se  Se220  1  0.75853828  0.42836676  0.81150857  1
  Se  Se221  1  0.74558543  0.74711957  0.31146138  1
  Se  Se222  1  0.74533627  0.74826372  0.79825445  1
  Se  Se223  1  0.25017308  0.08157242  0.20517071  1
  Se  Se224  1  0.25199325  0.08258654  0.69508108  1
  Se  Se225  1  0.24493778  0.42246822  0.19412653  1
  Se  Se226  1  0.25321868  0.41675473  0.69470366  1
  Se  Se227  1  0.25516737  0.74778824  0.19682093  1
  Se  Se228  1  0.24101405  0.75792447  0.68597013  1
  Se  Se229  1  0.57095646  0.08451590  0.18867044  1
  Se  Se230  1  0.57337383  0.08720856  0.69286401  1
  Se  Se231  1  0.58091734  0.41469289  0.20150133  1
  Se  Se232  1  0.58008158  0.42057344  0.68356384  1
  Se  Se233  1  0.58218882  0.75043288  0.20223517  1
  Se  Se234  1  0.58367608  0.75223089  0.69413414  1
  Se  Se235  1  0.90616874  0.09345877  0.18893691  1
  Se  Se236  1  0.92188645  0.08026776  0.70058597  1
  Se  Se237  1  0.91769809  0.41744779  0.19577159  1
  Se  Se238  1  0.92275180  0.42043732  0.69623367  1
  Se  Se239  1  0.92199805  0.74783201  0.20428422  1
  Se  Se240  1  0.91621852  0.75385100  0.68467746  1
  Se  Se241  1  0.08197668  0.25376620  0.20549299  1
  Se  Se242  1  0.08477953  0.25520503  0.69772317  1
  Se  Se243  1  0.08443016  0.58606608  0.19574188  1
  Se  Se244  1  0.09582004  0.58619252  0.68532170  1
  Se  Se245  1  0.09124225  0.90920166  0.19068931  1
  Se  Se246  1  0.07878341  0.92339139  0.69630722  1
  Se  Se247  1  0.41448639  0.24765521  0.19463158  1
  Se  Se248  1  0.41411025  0.25102227  0.69736413  1
  Se  Se249  1  0.41323768  0.58182647  0.20523915  1
  Se  Se250  1  0.42330716  0.57690475  0.68059281  1
  Se  Se251  1  0.41908927  0.92183263  0.19416185  1
  Se  Se252  1  0.41348832  0.91622217  0.69534554  1
  Se  Se253  1  0.74242149  0.25270006  0.19759794  1
  Se  Se254  1  0.75494823  0.24478499  0.68155802  1
  Se  Se255  1  0.74911074  0.58495097  0.20241979  1
  Se  Se256  1  0.74989676  0.58595062  0.69506830  1
  Se  Se257  1  0.75717179  0.90644986  0.19867892  1
  Se  Se258  1  0.75612418  0.90950241  0.68416434  1
