# generated using pymatgen
data_In86Cu29Se144
_symmetry_space_group_name_H-M   'P 1'
_cell_length_a   17.58228387
_cell_length_b   17.58426545
_cell_length_c   23.44700261
_cell_angle_alpha   90.00782569
_cell_angle_beta   90.01935159
_cell_angle_gamma   89.97488619
_symmetry_Int_Tables_number   1
_chemical_formula_structural   In86Cu29Se144
_chemical_formula_sum   'In86 Cu29 Se144'
_cell_volume   7249.14488962
_cell_formula_units_Z   1
loop_
 _symmetry_equiv_pos_site_id
 _symmetry_equiv_pos_as_xyz
  1  'x, y, z'
loop_
 _atom_site_type_symbol
 _atom_site_label
 _atom_site_symmetry_multiplicity
 _atom_site_fract_x
 _atom_site_fract_y
 _atom_site_fract_z
 _atom_site_occupancy
  In  In0  1  0.01033621  0.18494150  0.12104434  1
  In  In1  1  -0.01281905  0.16398839  0.62648343  1
  In  In2  1  -0.00650178  0.49002597  0.11746424  1
  In  In3  1  0.01669486  0.49752136  0.62867019  1
  In  In4  1  0.00661655  0.82834473  0.11836071  1
  In  In5  1  -0.00076537  0.83191848  0.63102823  1
  In  In6  1  0.33704962  0.16471963  0.12469570  1
  In  In7  1  0.34022982  0.15829877  0.62929970  1
  In  In8  1  0.33469637  0.49802904  0.11888357  1
  In  In9  1  0.33566465  0.49902056  0.62898430  1
  In  In10  1  0.32050087  0.83559720  0.13298967  1
  In  In11  1  0.33627889  0.83459948  0.63072595  1
  In  In12  1  0.66674660  0.16776746  0.11989481  1
  In  In13  1  0.66617130  0.16327149  0.61457301  1
  In  In14  1  0.67269887  0.50381313  0.11990610  1
  In  In15  1  0.65600335  0.51231794  0.63095744  1
  In  In16  1  0.65973652  0.82379691  0.12723009  1
  In  In17  1  0.66766314  0.82261791  0.62271840  1
  In  In18  1  0.17664320  -0.01001961  0.37059042  1
  In  In19  1  0.15365006  -0.01016611  0.87017518  1
  In  In20  1  0.18025346  0.34517375  0.36400204  1
  In  In21  1  0.18956373  0.34787730  0.87183695  1
  In  In22  1  0.16419969  0.65699252  0.37408855  1
  In  In23  1  0.17212479  0.66268543  0.87914126  1
  In  In24  1  0.49360193  0.01086297  0.37645799  1
  In  In25  1  0.49507349  0.01474842  0.87493808  1
  In  In26  1  0.49428678  0.34284009  0.38123542  1
  In  In27  1  0.45930117  0.36283091  0.91194724  1
  In  In28  1  0.48724024  0.65753154  0.36988644  1
  In  In29  1  0.46111088  0.62922155  0.84024005  1
  In  In30  1  0.82243744  0.00173444  0.38925076  1
  In  In31  1  0.85036083  0.00203522  0.87848757  1
  In  In32  1  0.82632463  0.32804198  0.37128899  1
  In  In33  1  0.83229908  0.33395685  0.88293980  1
  In  In34  1  0.83822398  0.67775585  0.37739299  1
  In  In35  1  0.82504493  0.65454021  0.86850878  1
  In  In36  1  -0.01320407  0.16844785  0.37199498  1
  In  In37  1  0.00125649  0.15431412  0.87769096  1
  In  In38  1  0.01598293  0.50676947  0.37439967  1
  In  In39  1  -0.00011224  0.50351983  0.87714044  1
  In  In40  1  -0.00707655  0.82089791  0.37744929  1
  In  In41  1  0.01564968  0.83899382  0.87425185  1
  In  In42  1  0.34231025  0.17935118  0.36521900  1
  In  In43  1  0.34090198  0.17819854  0.86938276  1
  In  In44  1  0.33274771  0.49761119  0.37488775  1
  In  In45  1  0.32653237  0.50095217  0.88241024  1
  In  In46  1  0.32689112  0.83195912  0.35883011  1
  In  In47  1  0.31810071  0.82233025  0.86970345  1
  In  In48  1  0.66478452  0.16598376  0.38581882  1
  In  In49  1  0.65799785  0.17748742  0.88168244  1
  In  In50  1  0.65140797  0.49419451  0.37347204  1
  In  In51  1  0.65464804  0.51000325  0.87846727  1
  In  In52  1  0.67832249  0.83309969  0.37832893  1
  In  In53  1  0.67038727  0.81795109  0.87324787  1
  In  In54  1  0.17230009  0.00150858  0.12088732  1
  In  In55  1  0.16823009  -0.00671303  0.63622674  1
  In  In56  1  0.16193472  0.33905302  0.12669298  1
  In  In57  1  0.17287073  0.35127470  0.62412126  1
  In  In58  1  0.17969751  0.67507703  0.11595501  1
  In  In59  1  0.18532354  0.64410215  0.64324963  1
  In  In60  1  0.48671347  -0.00070271  0.12156563  1
  In  In61  1  0.49603300  0.00421865  0.62330321  1
  In  In62  1  0.48954428  0.32963996  0.11414563  1
  In  In63  1  0.49642835  0.33269801  0.62296677  1
  In  In64  1  0.50433888  0.65405557  0.12837415  1
  In  In65  1  0.50244406  0.65870015  0.63431725  1
  In  In66  1  0.82551322  0.00071246  0.12261137  1
  In  In67  1  0.83779670  0.00428894  0.62087059  1
  In  In68  1  0.84988619  0.34828386  0.12000169  1
  In  In69  1  0.83740335  0.31855963  0.62063260  1
  In  In70  1  0.83469052  0.64760292  0.12927317  1
  In  In71  1  0.82988787  0.67327550  0.63280501  1
  In  In72  1  0.66693958  -0.00234668  0.74561971  1
  In  In73  1  0.01117191  0.33257569  0.75558694  1
  In  In74  1  0.65570695  0.33698638  0.75008728  1
  In  In75  1  0.00356140  0.00268885  0.24811972  1
  In  In76  1  0.16120415  0.82630873  0.49902064  1
  In  In77  1  0.66121524  -0.00067416  0.26437229  1
  In  In78  1  0.49995102  0.82786223  -0.00204329  1
  In  In79  1  0.84125963  0.83265664  -0.00282985  1
  In  In80  1  0.16452462  0.16895146  0.49711817  1
  In  In81  1  0.50487067  0.83675452  0.50548969  1
  In  In82  1  0.00687150  0.66616615  0.24900278  1
  In  In83  1  0.66348739  0.33980218  0.25295270  1
  In  In84  1  0.82962869  0.49628530  0.50179679  1
  In  In85  1  0.16905290  0.17071885  -0.00583398  1
  Cu  Cu86  1  0.66954835  0.00684476  -0.00242700  1
  Cu  Cu87  1  0.49140685  0.17712730  0.75374770  1
  Cu  Cu88  1  0.48999017  0.49821940  0.24886989  1
  Cu  Cu89  1  0.00146868  0.66490953  0.50299241  1
  Cu  Cu90  1  0.66953880  0.33008804  0.00440432  1
  Cu  Cu91  1  0.66131963  0.33124659  0.50011991  1
  Cu  Cu92  1  0.49680490  0.82314756  0.24434446  1
  Cu  Cu93  1  0.49549111  0.16635607  0.24848916  1
  Cu  Cu94  1  0.84274704  0.82814468  0.75637818  1
  Cu  Cu95  1  0.00175460  0.33496257  -0.00286174  1
  Cu  Cu96  1  0.66247912  0.66373571  0.50434154  1
  Cu  Cu97  1  0.83674892  0.49681948  0.74967953  1
  Cu  Cu98  1  0.33480041  0.33576520  0.49785277  1
  Cu  Cu99  1  0.16867976  0.16604781  0.75373598  1
  Cu  Cu100  1  0.83233464  0.15773456  0.75081827  1
  Cu  Cu101  1  0.50237273  0.83867232  0.74393448  1
  Cu  Cu102  1  0.33747743  0.00288610  0.50099577  1
  Cu  Cu103  1  0.16263125  0.83060133  0.75318426  1
  Cu  Cu104  1  0.17017569  0.17034909  0.24353968  1
  Cu  Cu105  1  0.33582048  0.66522541  -0.00366266  1
  Cu  Cu106  1  0.33317722  0.65536031  0.50099460  1
  Cu  Cu107  1  0.83844278  0.17820159  0.24751333  1
  Cu  Cu108  1  0.00460510  0.66202075  -0.00154736  1
  Cu  Cu109  1  0.33021413  0.00060680  -0.00091319  1
  Cu  Cu110  1  -0.00586538  -0.00029970  0.50418652  1
  Cu  Cu111  1  0.17176705  0.50301836  0.24529087  1
  Cu  Cu112  1  0.00212622  0.33380675  0.50027218  1
  Cu  Cu113  1  0.83211119  0.83035932  0.25601848  1
  Cu  Cu114  1  0.66647237  0.66185320  -0.00207397  1
  Se  Se115  1  0.07813519  0.08224623  0.05575403  1
  Se  Se116  1  0.08193626  0.07471213  0.56116302  1
  Se  Se117  1  0.08641077  0.41675710  0.05045930  1
  Se  Se118  1  0.08529005  0.41837121  0.55032368  1
  Se  Se119  1  0.08647553  0.74971830  0.04812280  1
  Se  Se120  1  0.08532679  0.73709077  0.56702148  1
  Se  Se121  1  0.41526390  0.08446815  0.04975492  1
  Se  Se122  1  0.42013441  0.08793802  0.55122807  1
  Se  Se123  1  0.42506478  0.42743489  0.04771322  1
  Se  Se124  1  0.41548845  0.41838393  0.55497459  1
  Se  Se125  1  0.41113599  0.74478212  0.06292780  1
  Se  Se126  1  0.41050511  0.74260978  0.55848986  1
  Se  Se127  1  0.75299481  0.08690277  0.05231885  1
  Se  Se128  1  0.76196879  0.09143502  0.55319372  1
  Se  Se129  1  0.75331932  0.41708776  0.05344740  1
  Se  Se130  1  0.73925019  0.40889747  0.56508069  1
  Se  Se131  1  0.74693221  0.74423463  0.05685827  1
  Se  Se132  1  0.75210914  0.74352420  0.55360985  1
  Se  Se133  1  0.25459600  0.25716460  0.05821537  1
  Se  Se134  1  0.25555630  0.25420708  0.55902778  1
  Se  Se135  1  0.25114103  0.58150174  0.04933129  1
  Se  Se136  1  0.24846343  0.57780762  0.55710766  1
  Se  Se137  1  0.25218174  0.91495146  0.05347991  1
  Se  Se138  1  0.25363101  0.92129963  0.55596590  1
  Se  Se139  1  0.58138850  0.24657370  0.05241662  1
  Se  Se140  1  0.57748201  0.24839244  0.55345926  1
  Se  Se141  1  0.58207237  0.58039937  0.05200531  1
  Se  Se142  1  0.57571670  0.58327696  0.55485559  1
  Se  Se143  1  0.59224973  0.92307642  0.05757190  1
  Se  Se144  1  0.59755984  0.92878630  0.56037013  1
  Se  Se145  1  0.91830141  0.25267911  0.05117410  1
  Se  Se146  1  0.92046465  0.24520069  0.54788986  1
  Se  Se147  1  0.91628770  0.58327130  0.05136075  1
  Se  Se148  1  0.92084633  0.58285490  0.56299394  1
  Se  Se149  1  0.92511051  0.92756978  0.05765302  1
  Se  Se150  1  0.91893165  0.91085728  0.55832222  1
  Se  Se151  1  0.08015720  0.25868638  0.43373556  1
  Se  Se152  1  0.08189459  0.26252910  0.93121617  1
  Se  Se153  1  0.08797583  0.58376664  0.45175117  1
  Se  Se154  1  0.08885490  0.57763962  0.94697091  1
  Se  Se155  1  0.07394733  0.92429546  0.44007230  1
  Se  Se156  1  0.07948295  0.92304791  0.95050667  1
  Se  Se157  1  0.41628270  0.24873566  0.44551704  1
  Se  Se158  1  0.41909292  0.23327515  0.95225235  1
  Se  Se159  1  0.41853949  0.57620983  0.44642215  1
  Se  Se160  1  0.42320384  0.58738117  0.94242028  1
  Se  Se161  1  0.40662007  0.91319391  0.43996658  1
  Se  Se162  1  0.41023862  0.91900942  0.93796455  1
  Se  Se163  1  0.75110619  0.25387846  0.44790129  1
  Se  Se164  1  0.75220811  0.24719249  0.94924048  1
  Se  Se165  1  0.74254286  0.58711981  0.43998696  1
  Se  Se166  1  0.75271139  0.57852423  0.94638695  1
  Se  Se167  1  0.75228908  0.90747594  0.45349848  1
  Se  Se168  1  0.74337393  0.92084659  0.93830754  1
  Se  Se169  1  0.25753643  0.08045696  0.43818118  1
  Se  Se170  1  0.25381914  0.07756018  0.93310737  1
  Se  Se171  1  0.24786091  0.41739711  0.44590897  1
  Se  Se172  1  0.25380183  0.41541917  0.95527825  1
  Se  Se173  1  0.26018241  0.74302389  0.44059015  1
  Se  Se174  1  0.24809263  0.75192727  0.95075031  1
  Se  Se175  1  0.59023269  0.06896457  0.44498513  1
  Se  Se176  1  0.58003455  0.08568309  0.94741378  1
  Se  Se177  1  0.57983496  0.42013698  0.45163027  1
  Se  Se178  1  0.59066324  0.41265959  0.94704473  1
  Se  Se179  1  0.58372502  0.74195134  0.44040065  1
  Se  Se180  1  0.58242285  0.73489974  0.93732068  1
  Se  Se181  1  0.91789439  0.08498088  0.44685445  1
  Se  Se182  1  0.91049727  0.09372554  0.95020274  1
  Se  Se183  1  0.92251052  0.41397040  0.43811174  1
  Se  Se184  1  0.91719297  0.42033011  0.94587453  1
  Se  Se185  1  0.91602511  0.75002121  0.45483119  1
  Se  Se186  1  0.92267808  0.73910726  0.93512612  1
  Se  Se187  1  0.25437299  0.25426614  0.29660153  1
  Se  Se188  1  0.25224919  0.25407065  0.80028609  1
  Se  Se189  1  0.25125825  0.58294118  0.30481089  1
  Se  Se190  1  0.27221043  0.60205370  0.81093914  1
  Se  Se191  1  0.25377876  0.92407627  0.29354276  1
  Se  Se192  1  0.24751228  0.91800399  0.80285496  1
  Se  Se193  1  0.57727166  0.24271813  0.31119299  1
  Se  Se194  1  0.56746283  0.25596541  0.81555456  1
  Se  Se195  1  0.57667827  0.57876461  0.30236564  1
  Se  Se196  1  0.59268991  0.59132128  0.80033237  1
  Se  Se197  1  0.56864172  0.90110122  0.31400207  1
  Se  Se198  1  0.57945445  0.91303062  0.81188286  1
  Se  Se199  1  0.92028523  0.26082341  0.30098507  1
  Se  Se200  1  0.90982656  0.24502676  0.80788878  1
  Se  Se201  1  0.91384794  0.58138117  0.31039565  1
  Se  Se202  1  0.91921259  0.57965766  0.80303303  1
  Se  Se203  1  0.90999120  0.91669726  0.31203346  1
  Se  Se204  1  0.92182198  0.91571546  0.80774976  1
  Se  Se205  1  0.09335624  0.09359475  0.30996723  1
  Se  Se206  1  0.08031471  0.08340468  0.80133020  1
  Se  Se207  1  0.08570168  0.42265507  0.30018945  1
  Se  Se208  1  0.09837249  0.43202689  0.80582070  1
  Se  Se209  1  0.09412819  0.76160737  0.30819266  1
  Se  Se210  1  0.08605350  0.74358684  0.80877690  1
  Se  Se211  1  0.41272407  0.08025296  0.30009699  1
  Se  Se212  1  0.41183815  0.08318116  0.79995350  1
  Se  Se213  1  0.41306600  0.41154605  0.30466456  1
  Se  Se214  1  0.41648207  0.41778648  0.81678227  1
  Se  Se215  1  0.41166105  0.74219604  0.29850857  1
  Se  Se216  1  0.41955176  0.76165347  0.80285600  1
  Se  Se217  1  0.76070762  0.09604383  0.30920949  1
  Se  Se218  1  0.74815268  0.08639618  0.81319153  1
  Se  Se219  1  0.75767420  0.43179440  0.30727036  1
  Se  Se220  1  0.75403673  0.41986162  0.80929178  1
  Se  Se221  1  0.74767041  0.74540702  0.30516438  1
  Se  Se222  1  0.75076271  0.74501363  0.79920298  1
  Se  Se223  1  0.25021196  0.08351363  0.19175378  1
  Se  Se224  1  0.25150353  0.08234550  0.69779768  1
  Se  Se225  1  0.25333637  0.41728590  0.19188246  1
  Se  Se226  1  0.25153094  0.41851385  0.69928424  1
  Se  Se227  1  0.24726138  0.74297266  0.19867597  1
  Se  Se228  1  0.25083354  0.75487779  0.69781460  1
  Se  Se229  1  0.57962218  0.08457914  0.19274076  1
  Se  Se230  1  0.57634479  0.09814690  0.69469993  1
  Se  Se231  1  0.57276734  0.42023690  0.18735562  1
  Se  Se232  1  0.56451706  0.43052908  0.69622273  1
  Se  Se233  1  0.58561257  0.74064564  0.19766340  1
  Se  Se234  1  0.58570986  0.75106616  0.69611144  1
  Se  Se235  1  0.91230793  0.09236676  0.18777418  1
  Se  Se236  1  0.91754060  0.07661992  0.69873023  1
  Se  Se237  1  0.91727700  0.42463758  0.19789617  1
  Se  Se238  1  0.91289996  0.41236875  0.68992527  1
  Se  Se239  1  0.91093955  0.75761525  0.19020146  1
  Se  Se240  1  0.92296745  0.74389591  0.70067888  1
  Se  Se241  1  0.08207699  0.25685422  0.19959760  1
  Se  Se242  1  0.09158940  0.24276841  0.68616923  1
  Se  Se243  1  0.08994614  0.57924909  0.18287176  1
  Se  Se244  1  0.07557501  0.58690566  0.70230078  1
  Se  Se245  1  0.09023512  0.90890618  0.19093417  1
  Se  Se246  1  0.07896849  0.91585836  0.70119843  1
  Se  Se247  1  0.41822405  0.25142561  0.19249252  1
  Se  Se248  1  0.41145060  0.25569064  0.69388772  1
  Se  Se249  1  0.40902041  0.58258385  0.19395214  1
  Se  Se250  1  0.40386370  0.59484940  0.69869995  1
  Se  Se251  1  0.41875063  0.91336807  0.19389938  1
  Se  Se252  1  0.41793561  0.92425091  0.69494433  1
  Se  Se253  1  0.75266074  0.25292904  0.18861319  1
  Se  Se254  1  0.75115113  0.24141232  0.69468981  1
  Se  Se255  1  0.73807566  0.58750214  0.19666515  1
  Se  Se256  1  0.75224622  0.57983459  0.69681019  1
  Se  Se257  1  0.75076445  0.91197858  0.19687673  1
  Se  Se258  1  0.76148448  0.90549016  0.69252085  1
