# generated using pymatgen
data_In86Cu29Se144
_symmetry_space_group_name_H-M   'P 1'
_cell_length_a   17.57972614
_cell_length_b   17.58377527
_cell_length_c   23.44310978
_cell_angle_alpha   90.00093842
_cell_angle_beta   89.99979058
_cell_angle_gamma   89.98418062
_symmetry_Int_Tables_number   1
_chemical_formula_structural   In86Cu29Se144
_chemical_formula_sum   'In86 Cu29 Se144'
_cell_volume   7246.68584891
_cell_formula_units_Z   1
loop_
 _symmetry_equiv_pos_site_id
 _symmetry_equiv_pos_as_xyz
  1  'x, y, z'
loop_
 _atom_site_type_symbol
 _atom_site_label
 _atom_site_symmetry_multiplicity
 _atom_site_fract_x
 _atom_site_fract_y
 _atom_site_fract_z
 _atom_site_occupancy
  In  In0  1  0.01033511  0.18137202  0.11674064  1
  In  In1  1  0.01040344  0.16538071  0.63254909  1
  In  In2  1  0.01301714  0.49323317  0.13607168  1
  In  In3  1  -0.00859773  0.49064407  0.61733834  1
  In  In4  1  0.00944887  0.80855993  0.11976902  1
  In  In5  1  0.01404066  0.83763407  0.63209102  1
  In  In6  1  0.33129831  0.17031559  0.12575541  1
  In  In7  1  0.34356412  0.17992070  0.61707564  1
  In  In8  1  0.29657712  0.50128480  0.12906714  1
  In  In9  1  0.33024921  0.49984510  0.61924004  1
  In  In10  1  0.33581619  0.84164594  0.12450502  1
  In  In11  1  0.32954053  0.82724534  0.63350802  1
  In  In12  1  0.67325358  0.17862631  0.11591263  1
  In  In13  1  0.66719186  0.18491539  0.62606655  1
  In  In14  1  0.66860889  0.50004903  0.13933350  1
  In  In15  1  0.66578699  0.49741613  0.62310606  1
  In  In16  1  0.65564230  0.82208230  0.12806218  1
  In  In17  1  0.65861637  0.81019350  0.62726932  1
  In  In18  1  0.17912834  -0.00717477  0.37115230  1
  In  In19  1  0.16121354  0.01254089  0.88209017  1
  In  In20  1  0.16550992  0.33451369  0.37524394  1
  In  In21  1  0.16925576  0.33619002  0.87496948  1
  In  In22  1  0.16081184  0.66207620  0.37422016  1
  In  In23  1  0.18032328  0.64434841  0.89733227  1
  In  In24  1  0.49811833  0.01726372  0.37660084  1
  In  In25  1  0.50733105  0.00370276  0.87648748  1
  In  In26  1  0.49393669  0.33285211  0.37525345  1
  In  In27  1  0.49041115  0.32897296  0.86600549  1
  In  In28  1  0.48231968  0.64442267  0.37756892  1
  In  In29  1  0.49850726  0.66662305  0.86002979  1
  In  In30  1  0.83385746  0.00669708  0.37156340  1
  In  In31  1  0.84996561  0.00192739  0.87353151  1
  In  In32  1  0.85407378  0.36218467  0.35379829  1
  In  In33  1  0.82646093  0.32683109  0.87025839  1
  In  In34  1  0.81135883  0.62036465  0.34517659  1
  In  In35  1  0.83222686  0.67319439  0.87684526  1
  In  In36  1  -0.00241631  0.19110939  0.37158980  1
  In  In37  1  0.00340796  0.17213201  0.87710151  1
  In  In38  1  0.00563190  0.49773785  0.37783389  1
  In  In39  1  0.01759666  0.49831426  0.87770734  1
  In  In40  1  0.01566782  0.82021180  0.37396632  1
  In  In41  1  -0.00348250  0.83750983  0.87688132  1
  In  In42  1  0.33036550  0.16750890  0.37256803  1
  In  In43  1  0.32542281  0.17731462  0.88185013  1
  In  In44  1  0.34171429  0.49522892  0.38479481  1
  In  In45  1  0.33213018  0.49738170  0.86882767  1
  In  In46  1  0.32084136  0.83202713  0.36729351  1
  In  In47  1  0.33004796  0.80659127  0.87883572  1
  In  In48  1  0.65192508  0.17773678  0.37871935  1
  In  In49  1  0.65606496  0.17864733  0.88124933  1
  In  In50  1  0.65813444  0.48992492  0.37495228  1
  In  In51  1  0.66882025  0.50141851  0.86730547  1
  In  In52  1  0.67034833  0.82255507  0.37429763  1
  In  In53  1  0.66990835  0.82400337  0.87182218  1
  In  In54  1  0.17336754  0.01518036  0.11827956  1
  In  In55  1  0.15733903  0.00075732  0.63127038  1
  In  In56  1  0.16999350  0.33482676  0.12905617  1
  In  In57  1  0.16960384  0.33590086  0.62411587  1
  In  In58  1  0.15727959  0.64738070  0.09458394  1
  In  In59  1  0.17778783  0.65968821  0.62505824  1
  In  In60  1  0.48303591  0.00160114  0.12969396  1
  In  In61  1  0.48901008  0.00450499  0.62294519  1
  In  In62  1  0.50253684  0.32944291  0.12868439  1
  In  In63  1  0.49958437  0.33508763  0.62306316  1
  In  In64  1  0.50201743  0.67633209  0.13174729  1
  In  In65  1  0.50691132  0.65953687  0.62937985  1
  In  In66  1  0.82274122  0.00469212  0.12140801  1
  In  In67  1  0.83817906  0.01309689  0.63117673  1
  In  In68  1  0.84386794  0.33641892  0.13575336  1
  In  In69  1  0.82627101  0.34148737  0.63002890  1
  In  In70  1  0.84439378  0.64639653  0.14394127  1
  In  In71  1  0.83440780  0.64601315  0.62158244  1
  In  In72  1  0.00483237  0.00357173  0.24643726  1
  In  In73  1  0.84210846  0.82913252  0.49201257  1
  In  In74  1  -0.00081084  0.66666913  0.75505700  1
  In  In75  1  0.49352641  0.49676771  -0.00087566  1
  In  In76  1  0.83023176  0.18186255  0.49644661  1
  In  In77  1  0.67292027  -0.00306073  0.75646112  1
  In  In78  1  0.84196748  0.49558788  0.01291694  1
  In  In79  1  0.32993450  0.66225782  0.24827662  1
  In  In80  1  0.83412358  0.83461776  -0.00139088  1
  In  In81  1  0.49591650  0.83129633  0.50465957  1
  In  In82  1  0.32989344  -0.00014382  0.74972084  1
  In  In83  1  0.65989273  -0.00231361  0.25160391  1
  In  In84  1  0.49778896  0.83775688  0.00389059  1
  In  In85  1  0.16950459  0.82823353  0.50125522  1
  Cu  Cu86  1  0.49488584  0.49663469  0.25338879  1
  Cu  Cu87  1  0.33465476  0.00654601  0.00079304  1
  Cu  Cu88  1  0.00125146  0.00840999  0.50666619  1
  Cu  Cu89  1  0.66257492  0.33802297  0.49874179  1
  Cu  Cu90  1  0.82917118  0.17396057  0.24301137  1
  Cu  Cu91  1  0.50221673  0.17072122  0.74822196  1
  Cu  Cu92  1  0.66979455  0.66565526  0.00492405  1
  Cu  Cu93  1  0.33121580  0.00719030  0.49774017  1
  Cu  Cu94  1  0.16857299  0.17502970  0.75550657  1
  Cu  Cu95  1  0.49425101  0.16949311  0.25045978  1
  Cu  Cu96  1  -0.00367770  0.00678827  0.00043963  1
  Cu  Cu97  1  0.66116122  0.00552356  0.49905766  1
  Cu  Cu98  1  -0.00360364  0.65694969  0.49483566  1
  Cu  Cu99  1  0.32901740  0.33259280  0.00096871  1
  Cu  Cu100  1  0.66595077  0.65334064  0.49571419  1
  Cu  Cu101  1  0.83098973  0.49468286  0.74628398  1
  Cu  Cu102  1  0.16559514  0.83154343  0.75777737  1
  Cu  Cu103  1  0.17244937  0.83177509  0.24174030  1
  Cu  Cu104  1  0.00210508  0.33246430  0.00151758  1
  Cu  Cu105  1  0.83043736  0.82826757  0.75271317  1
  Cu  Cu106  1  0.50096178  0.49675076  0.74263798  1
  Cu  Cu107  1  0.33074657  0.32998897  0.49840724  1
  Cu  Cu108  1  0.17036808  0.49920019  0.75030365  1
  Cu  Cu109  1  0.00503015  0.33580466  0.49817644  1
  Cu  Cu110  1  0.84552690  0.17051540  0.75201818  1
  Cu  Cu111  1  0.16901455  0.17051003  0.24616823  1
  Cu  Cu112  1  0.66645590  0.01139159  -0.00165208  1
  Cu  Cu113  1  0.66290858  0.32877561  -0.00054722  1
  Cu  Cu114  1  0.84076710  0.82645376  0.24997941  1
  Se  Se115  1  0.08385678  0.09006024  0.05007156  1
  Se  Se116  1  0.08884996  0.08707029  0.55754030  1
  Se  Se117  1  0.08314852  0.41391619  0.05848456  1
  Se  Se118  1  0.08764875  0.41871254  0.55302141  1
  Se  Se119  1  0.10457570  0.76724344  0.04276731  1
  Se  Se120  1  0.07106452  0.73948136  0.55813224  1
  Se  Se121  1  0.41717763  0.08789717  0.05554626  1
  Se  Se122  1  0.41902848  0.08714338  0.54954284  1
  Se  Se123  1  0.40619445  0.41271909  0.06357443  1
  Se  Se124  1  0.41428947  0.41260341  0.55320937  1
  Se  Se125  1  0.40987461  0.74007246  0.05619605  1
  Se  Se126  1  0.40663868  0.74125899  0.56227892  1
  Se  Se127  1  0.75469624  0.09109658  0.04891979  1
  Se  Se128  1  0.74600477  0.08282590  0.55774443  1
  Se  Se129  1  0.73795261  0.41063151  0.06224751  1
  Se  Se130  1  0.75086313  0.41575312  0.55324427  1
  Se  Se131  1  0.75295518  0.74226018  0.06433276  1
  Se  Se132  1  0.74687335  0.74014337  0.55148443  1
  Se  Se133  1  0.24633060  0.25012501  0.05604253  1
  Se  Se134  1  0.24557904  0.24822227  0.55250752  1
  Se  Se135  1  0.26723977  0.58132863  0.04096393  1
  Se  Se136  1  0.24397858  0.57925995  0.55000446  1
  Se  Se137  1  0.25380070  0.92274719  0.05503208  1
  Se  Se138  1  0.25726254  0.92451319  0.56158360  1
  Se  Se139  1  0.57475253  0.24926357  0.05150342  1
  Se  Se140  1  0.58239025  0.25093693  0.55176192  1
  Se  Se141  1  0.58674265  0.58484293  0.06167174  1
  Se  Se142  1  0.58086276  0.57912081  0.55421651  1
  Se  Se143  1  0.59282348  0.92820502  0.06120632  1
  Se  Se144  1  0.59284685  0.92101585  0.56296019  1
  Se  Se145  1  0.91122237  0.25736966  0.05625825  1
  Se  Se146  1  0.92492925  0.25711508  0.56211972  1
  Se  Se147  1  0.93169357  0.59271784  0.06258733  1
  Se  Se148  1  0.91126325  0.57357340  0.54611723  1
  Se  Se149  1  0.92459939  0.92139234  0.06367399  1
  Se  Se150  1  0.92301890  0.92184146  0.56133453  1
  Se  Se151  1  0.08595537  0.24788835  0.44786699  1
  Se  Se152  1  0.08780088  0.25330114  0.94605992  1
  Se  Se153  1  0.09029317  0.57850741  0.44878929  1
  Se  Se154  1  0.07789601  0.57685649  0.95728021  1
  Se  Se155  1  0.07674434  0.92421670  0.44403853  1
  Se  Se156  1  0.07588416  0.92348086  0.94464689  1
  Se  Se157  1  0.41399697  0.24607157  0.44405712  1
  Se  Se158  1  0.41855002  0.25575752  0.94606105  1
  Se  Se159  1  0.41247960  0.58016826  0.45908299  1
  Se  Se160  1  0.41518049  0.59241370  0.93627741  1
  Se  Se161  1  0.40738470  0.91967432  0.43953560  1
  Se  Se162  1  0.40753674  0.92215005  0.93766038  1
  Se  Se163  1  0.74759515  0.27021241  0.43239664  1
  Se  Se164  1  0.75188309  0.25014985  0.94738591  1
  Se  Se165  1  0.74992983  0.57416874  0.43954784  1
  Se  Se166  1  0.74934784  0.58293332  0.94642715  1
  Se  Se167  1  0.74324154  0.92688248  0.44178624  1
  Se  Se168  1  0.74178623  0.92608253  0.93814116  1
  Se  Se169  1  0.24516524  0.08340528  0.44215652  1
  Se  Se170  1  0.24858721  0.09046081  0.95010275  1
  Se  Se171  1  0.24757217  0.41456058  0.44646945  1
  Se  Se172  1  0.25370423  0.41943383  0.94351841  1
  Se  Se173  1  0.25975252  0.73935774  0.44255882  1
  Se  Se174  1  0.23191944  0.76254466  0.95248699  1
  Se  Se175  1  0.57884313  0.09178617  0.45051877  1
  Se  Se176  1  0.57668794  0.08997294  0.94836994  1
  Se  Se177  1  0.57247507  0.41690612  0.44774298  1
  Se  Se178  1  0.58842981  0.41250756  0.93817396  1
  Se  Se179  1  0.58427173  0.73968885  0.44210177  1
  Se  Se180  1  0.58706283  0.74165710  0.94382754  1
  Se  Se181  1  0.92324691  0.08359329  0.44169977  1
  Se  Se182  1  0.91532427  0.09042160  0.94618739  1
  Se  Se183  1  0.91629019  0.41525267  0.44540637  1
  Se  Se184  1  0.92008302  0.41056426  0.94050178  1
  Se  Se185  1  0.91999630  0.73447755  0.43092660  1
  Se  Se186  1  0.92767720  0.73821015  0.94790788  1
  Se  Se187  1  0.24910042  0.25226352  0.30449468  1
  Se  Se188  1  0.25643357  0.25686783  0.80448513  1
  Se  Se189  1  0.24689917  0.57138043  0.31156531  1
  Se  Se190  1  0.24459832  0.58729363  0.80743729  1
  Se  Se191  1  0.25300495  0.91862499  0.29323597  1
  Se  Se192  1  0.24589433  0.91396613  0.81690342  1
  Se  Se193  1  0.57852228  0.25331020  0.30251318  1
  Se  Se194  1  0.58651649  0.25352345  0.80146011  1
  Se  Se195  1  0.57564175  0.57997261  0.30803439  1
  Se  Se196  1  0.58416285  0.57985013  0.79847616  1
  Se  Se197  1  0.57479529  0.91137810  0.31644049  1
  Se  Se198  1  0.57466856  0.90572979  0.80736621  1
  Se  Se199  1  0.91817206  0.25560064  0.29245198  1
  Se  Se200  1  0.92459694  0.25665531  0.80580262  1
  Se  Se201  1  0.94468110  0.59678700  0.30746841  1
  Se  Se202  1  0.90883300  0.57163172  0.81267777  1
  Se  Se203  1  0.91664869  0.91105386  0.30981880  1
  Se  Se204  1  0.91683334  0.91237143  0.80118483  1
  Se  Se205  1  0.08903015  0.09256141  0.31083342  1
  Se  Se206  1  0.08520098  0.08846070  0.80575352  1
  Se  Se207  1  0.06335066  0.39584152  0.30951246  1
  Se  Se208  1  0.08583320  0.41600111  0.80252242  1
  Se  Se209  1  0.09332423  0.74847546  0.29839153  1
  Se  Se210  1  0.09109962  0.74676087  0.81883563  1
  Se  Se211  1  0.41274461  0.08233343  0.30170184  1
  Se  Se212  1  0.42146139  0.09099502  0.80871925  1
  Se  Se213  1  0.40992505  0.41548634  0.30624941  1
  Se  Se214  1  0.41503407  0.41802021  0.79863070  1
  Se  Se215  1  0.42137062  0.75098384  0.30987059  1
  Se  Se216  1  0.41406640  0.75453518  0.79938975  1
  Se  Se217  1  0.75188110  0.09676654  0.30641599  1
  Se  Se218  1  0.75843406  0.09435533  0.81240745  1
  Se  Se219  1  0.74059208  0.41785648  0.29993887  1
  Se  Se220  1  0.74735082  0.41276025  0.80142446  1
  Se  Se221  1  0.75542492  0.74841540  0.30492940  1
  Se  Se222  1  0.74836170  0.74109948  0.80127898  1
  Se  Se223  1  0.25194328  0.08335563  0.19667632  1
  Se  Se224  1  0.24697087  0.09639964  0.69040480  1
  Se  Se225  1  0.25788558  0.40344764  0.20266929  1
  Se  Se226  1  0.25248722  0.41817697  0.69375866  1
  Se  Se227  1  0.24462514  0.74616716  0.18067279  1
  Se  Se228  1  0.24250642  0.74826407  0.69998997  1
  Se  Se229  1  0.57983909  0.09298663  0.18879625  1
  Se  Se230  1  0.58247105  0.08554004  0.69167937  1
  Se  Se231  1  0.57955031  0.41425885  0.19947177  1
  Se  Se232  1  0.58704356  0.41197872  0.69305990  1
  Se  Se233  1  0.58551024  0.74632286  0.20443266  1
  Se  Se234  1  0.57650225  0.74770110  0.70226115  1
  Se  Se235  1  0.91145905  0.09113285  0.18701834  1
  Se  Se236  1  0.92589501  0.08211618  0.70157354  1
  Se  Se237  1  0.89336636  0.45212908  0.19139788  1
  Se  Se238  1  0.92082550  0.41481298  0.69667424  1
  Se  Se239  1  0.92694209  0.74631667  0.19822710  1
  Se  Se240  1  0.90976775  0.75218421  0.68702330  1
  Se  Se241  1  0.08069477  0.25272335  0.19690431  1
  Se  Se242  1  0.08703718  0.25669233  0.69752831  1
  Se  Se243  1  0.10814159  0.58463565  0.18582808  1
  Se  Se244  1  0.08352142  0.57682335  0.69091341  1
  Se  Se245  1  0.08888886  0.91259440  0.18348670  1
  Se  Se246  1  0.08464895  0.91930275  0.70672005  1
  Se  Se247  1  0.41221944  0.25287325  0.19626633  1
  Se  Se248  1  0.41752684  0.25266871  0.69519155  1
  Se  Se249  1  0.41808421  0.57064639  0.18530356  1
  Se  Se250  1  0.41376165  0.57934248  0.69184105  1
  Se  Se251  1  0.43290057  0.89786568  0.19573190  1
  Se  Se252  1  0.42698140  0.90927669  0.69548128  1
  Se  Se253  1  0.74305688  0.25729508  0.19328422  1
  Se  Se254  1  0.75552901  0.24856316  0.69963121  1
  Se  Se255  1  0.73366076  0.59842089  0.20468324  1
  Se  Se256  1  0.74807599  0.58095301  0.69527339  1
  Se  Se257  1  0.75711102  0.90748153  0.19358347  1
  Se  Se258  1  0.75512440  0.90757124  0.68693600  1
