# generated using pymatgen
data_In86Cu29Se144
_symmetry_space_group_name_H-M   'P 1'
_cell_length_a   17.58568059
_cell_length_b   17.58282871
_cell_length_c   23.44338147
_cell_angle_alpha   90.00648127
_cell_angle_beta   89.99081080
_cell_angle_gamma   90.01278918
_symmetry_Int_Tables_number   1
_chemical_formula_structural   In86Cu29Se144
_chemical_formula_sum   'In86 Cu29 Se144'
_cell_volume   7248.83411447
_cell_formula_units_Z   1
loop_
 _symmetry_equiv_pos_site_id
 _symmetry_equiv_pos_as_xyz
  1  'x, y, z'
loop_
 _atom_site_type_symbol
 _atom_site_label
 _atom_site_symmetry_multiplicity
 _atom_site_fract_x
 _atom_site_fract_y
 _atom_site_fract_z
 _atom_site_occupancy
  In  In0  1  -0.00705199  0.17444011  0.13666274  1
  In  In1  1  0.00330178  0.18170486  0.62368897  1
  In  In2  1  -0.00214404  0.50144328  0.12378579  1
  In  In3  1  -0.00428671  0.48848259  0.62361423  1
  In  In4  1  0.01948173  0.81685475  0.14791353  1
  In  In5  1  0.00274591  0.83324161  0.61499878  1
  In  In6  1  0.33043470  0.17070125  0.13606251  1
  In  In7  1  0.34131624  0.15965897  0.61710093  1
  In  In8  1  0.32205471  0.50018402  0.12445428  1
  In  In9  1  0.34547506  0.51875197  0.61326868  1
  In  In10  1  0.33821457  0.83517993  0.12250253  1
  In  In11  1  0.33362074  0.82747156  0.61873806  1
  In  In12  1  0.68411337  0.16475285  0.12556894  1
  In  In13  1  0.66739577  0.17004622  0.60708070  1
  In  In14  1  0.67725291  0.48866817  0.13465154  1
  In  In15  1  0.66323430  0.51185571  0.62633392  1
  In  In16  1  0.65072243  0.83550229  0.12531884  1
  In  In17  1  0.65157025  0.81407183  0.60966114  1
  In  In18  1  0.15678245  -0.02187827  0.35632156  1
  In  In19  1  0.16348504  -0.00515312  0.88390180  1
  In  In20  1  0.17276672  0.34099985  0.36658652  1
  In  In21  1  0.16759069  0.35981591  0.88172715  1
  In  In22  1  0.15554017  0.67969594  0.37743880  1
  In  In23  1  0.17549015  0.65478478  0.88726270  1
  In  In24  1  0.49197851  0.00577314  0.37850336  1
  In  In25  1  0.49081903  -0.00586377  0.87297758  1
  In  In26  1  0.49816270  0.33559868  0.37704510  1
  In  In27  1  0.49719040  0.33313662  0.87540912  1
  In  In28  1  0.50884468  0.65518364  0.38133364  1
  In  In29  1  0.51070450  0.67646232  0.85715083  1
  In  In30  1  0.83630535  -0.00216620  0.37628433  1
  In  In31  1  0.84136671  -0.00039947  0.88412770  1
  In  In32  1  0.82439147  0.32457518  0.37148571  1
  In  In33  1  0.84062689  0.32588465  0.88248400  1
  In  In34  1  0.83896541  0.66997369  0.36738416  1
  In  In35  1  0.81943636  0.66953889  0.87813890  1
  In  In36  1  -0.00773030  0.16109963  0.36845187  1
  In  In37  1  -0.01252459  0.16735818  0.88210058  1
  In  In38  1  0.00957499  0.51019561  0.36806039  1
  In  In39  1  0.01102757  0.49441402  0.88682851  1
  In  In40  1  -0.00027732  0.83019220  0.36869878  1
  In  In41  1  0.00251516  0.83779189  0.88387248  1
  In  In42  1  0.33532772  0.16770229  0.36858041  1
  In  In43  1  0.34398563  0.16817169  0.87516667  1
  In  In44  1  0.33730920  0.49548980  0.38035014  1
  In  In45  1  0.32180787  0.50679725  0.87483667  1
  In  In46  1  0.32363361  0.84117055  0.37553520  1
  In  In47  1  0.34843564  0.81643997  0.88677016  1
  In  In48  1  0.65810509  0.18690085  0.38962490  1
  In  In49  1  0.67109419  0.17774713  0.87837304  1
  In  In50  1  0.65543329  0.48755930  0.36941436  1
  In  In51  1  0.66119501  0.51609007  0.87655212  1
  In  In52  1  0.67382875  0.82476358  0.37950170  1
  In  In53  1  0.66573246  0.82099514  0.87317824  1
  In  In54  1  0.17836265  -0.01563321  0.14279352  1
  In  In55  1  0.17480286  -0.00544917  0.61892102  1
  In  In56  1  0.16343228  0.33885691  0.13240279  1
  In  In57  1  0.15342906  0.33980447  0.62469950  1
  In  In58  1  0.15435343  0.66086049  0.11415454  1
  In  In59  1  0.17684929  0.67553335  0.61642946  1
  In  In60  1  0.50292094  -0.01656019  0.12597428  1
  In  In61  1  0.49873620  -0.00230139  0.61032783  1
  In  In62  1  0.50093985  0.33782632  0.13562857  1
  In  In63  1  0.50790150  0.34040139  0.60760117  1
  In  In64  1  0.49800426  0.67949528  0.12660777  1
  In  In65  1  0.49819070  0.66478454  0.62897547  1
  In  In66  1  0.83215264  0.01557791  0.12343255  1
  In  In67  1  0.83294788  -0.00329047  0.61547901  1
  In  In68  1  0.83671114  0.33488185  0.12706287  1
  In  In69  1  0.83894496  0.33856367  0.62053917  1
  In  In70  1  0.84535303  0.65324436  0.13110662  1
  In  In71  1  0.82104033  0.66380443  0.62311077  1
  In  In72  1  0.16068156  0.16925041  0.01644237  1
  In  In73  1  0.50455188  0.16349699  -0.00376090  1
  In  In74  1  0.33056855  0.66593155  0.25031197  1
  In  In75  1  0.82642598  0.49633004  0.49920583  1
  In  In76  1  0.66837385  -0.00480427  0.75149815  1
  In  In77  1  0.00151044  0.66360892  0.75773734  1
  In  In78  1  0.66655810  0.00443205  0.25205398  1
  In  In79  1  0.32968497  -0.00658283  0.73807465  1
  In  In80  1  0.83550060  0.82991035  0.00681819  1
  In  In81  1  -0.00039682  -0.00067218  0.75824721  1
  In  In82  1  0.49821826  0.50416158  -0.00035452  1
  In  In83  1  0.33157419  0.34306708  0.75035729  1
  In  In84  1  0.67082784  0.34168501  0.73907704  1
  In  In85  1  0.16771010  0.16121753  0.49398112  1
  Cu  Cu86  1  -0.00183352  0.33525973  0.49771129  1
  Cu  Cu87  1  0.67233078  -0.00160149  0.49344290  1
  Cu  Cu88  1  0.33069953  -0.00843518  0.49408578  1
  Cu  Cu89  1  0.82880193  0.17549794  0.25263697  1
  Cu  Cu90  1  0.50483666  0.16895621  0.73760050  1
  Cu  Cu91  1  0.66473494  0.66731478  0.49943257  1
  Cu  Cu92  1  0.17286216  0.83048399  0.74967235  1
  Cu  Cu93  1  0.16460215  0.49937460  0.24745165  1
  Cu  Cu94  1  0.83179030  0.83446852  0.25374451  1
  Cu  Cu95  1  0.82442144  0.82225061  0.74656475  1
  Cu  Cu96  1  0.83794180  0.49894571  0.25035210  1
  Cu  Cu97  1  0.50215230  0.49814490  0.25718958  1
  Cu  Cu98  1  0.16262559  0.18012389  0.75112950  1
  Cu  Cu99  1  0.67745902  0.33294420  0.00573189  1
  Cu  Cu100  1  0.32994996  0.00024899  0.00527432  1
  Cu  Cu101  1  0.33490889  0.67225383  0.00255795  1
  Cu  Cu102  1  -0.00048912  -0.00331027  0.00888455  1
  Cu  Cu103  1  0.50172335  0.16936421  0.25645695  1
  Cu  Cu104  1  0.84203070  0.17013543  0.75168292  1
  Cu  Cu105  1  0.00134227  0.66907267  0.49257975  1
  Cu  Cu106  1  -0.00091670  -0.00417181  0.48965538  1
  Cu  Cu107  1  0.66451565  0.66501746  -0.00015021  1
  Cu  Cu108  1  -0.00033477  0.33245756  0.00915343  1
  Cu  Cu109  1  0.83652452  0.49336924  0.75068537  1
  Cu  Cu110  1  0.33598801  0.66572644  0.49713380  1
  Cu  Cu111  1  0.32873470  0.33279881  0.49170330  1
  Cu  Cu112  1  0.16231293  0.50603853  0.75233867  1
  Cu  Cu113  1  0.49773660  0.83072851  0.25090057  1
  Cu  Cu114  1  0.16586511  0.16662083  0.25222951  1
  Se  Se115  1  0.07722017  0.07379007  0.07349144  1
  Se  Se116  1  0.07385796  0.07465321  0.55763676  1
  Se  Se117  1  0.08620169  0.41608573  0.05779982  1
  Se  Se118  1  0.08161616  0.42032592  0.54872380  1
  Se  Se119  1  0.08041868  0.76315164  0.05719631  1
  Se  Se120  1  0.08588620  0.75090340  0.54864025  1
  Se  Se121  1  0.41186692  0.08183778  0.06275660  1
  Se  Se122  1  0.41404275  0.08028257  0.54288595  1
  Se  Se123  1  0.41395195  0.41185912  0.06071005  1
  Se  Se124  1  0.40901242  0.41600737  0.54883387  1
  Se  Se125  1  0.42213230  0.75562918  0.05132618  1
  Se  Se126  1  0.42040785  0.74603344  0.55340840  1
  Se  Se127  1  0.74027459  0.07550298  0.05049218  1
  Se  Se128  1  0.75531505  0.08277487  0.54710914  1
  Se  Se129  1  0.75702802  0.42111390  0.05639390  1
  Se  Se130  1  0.73409629  0.40859728  0.55918654  1
  Se  Se131  1  0.74259560  0.74095958  0.06544310  1
  Se  Se132  1  0.75652285  0.74926446  0.54738373  1
  Se  Se133  1  0.25978036  0.26072685  0.06226914  1
  Se  Se134  1  0.25137006  0.25544355  0.55848809  1
  Se  Se135  1  0.25204688  0.58499330  0.05167807  1
  Se  Se136  1  0.24570597  0.58278227  0.54686710  1
  Se  Se137  1  0.24691173  0.91721950  0.05816886  1
  Se  Se138  1  0.24837826  0.90974116  0.54951515  1
  Se  Se139  1  0.58790080  0.25655767  0.06120764  1
  Se  Se140  1  0.56800887  0.23680839  0.54559989  1
  Se  Se141  1  0.58892984  0.58570266  0.06547758  1
  Se  Se142  1  0.58084918  0.58542162  0.55397730  1
  Se  Se143  1  0.58472686  0.91868579  0.05017940  1
  Se  Se144  1  0.58631524  0.91585320  0.54611686  1
  Se  Se145  1  0.91595963  0.24587667  0.05807307  1
  Se  Se146  1  0.91648179  0.25129137  0.55125092  1
  Se  Se147  1  0.91786666  0.58317786  0.05260562  1
  Se  Se148  1  0.92230957  0.58959006  0.55611866  1
  Se  Se149  1  0.92246343  0.91561585  0.07103729  1
  Se  Se150  1  0.91773928  0.91450318  0.54878608  1
  Se  Se151  1  0.07874627  0.25473958  0.43685225  1
  Se  Se152  1  0.08122429  0.25538238  0.94422886  1
  Se  Se153  1  0.08657363  0.58276121  0.44543058  1
  Se  Se154  1  0.08030584  0.58764280  0.95283797  1
  Se  Se155  1  0.08453075  0.91276508  0.43959258  1
  Se  Se156  1  0.08431891  0.91585746  0.95540618  1
  Se  Se157  1  0.41218943  0.24718023  0.44213589  1
  Se  Se158  1  0.40718250  0.26219009  0.94868550  1
  Se  Se159  1  0.41969391  0.57829683  0.44852659  1
  Se  Se160  1  0.41496498  0.59608118  0.93793335  1
  Se  Se161  1  0.41926101  0.90987782  0.44387292  1
  Se  Se162  1  0.41465905  0.92077913  0.94896983  1
  Se  Se163  1  0.75867799  0.25264409  0.45310547  1
  Se  Se164  1  0.75599672  0.24488687  0.95230340  1
  Se  Se165  1  0.74337973  0.58780187  0.43630544  1
  Se  Se166  1  0.75004965  0.58053541  0.95060148  1
  Se  Se167  1  0.75618579  0.91228611  0.44446616  1
  Se  Se168  1  0.74481030  0.91497298  0.94130531  1
  Se  Se169  1  0.24961481  0.06945219  0.43161110  1
  Se  Se170  1  0.25509697  0.08635004  0.94596725  1
  Se  Se171  1  0.24247643  0.41838368  0.44518259  1
  Se  Se172  1  0.25945683  0.42256145  0.95138810  1
  Se  Se173  1  0.25180488  0.74919321  0.44444426  1
  Se  Se174  1  0.24599342  0.75480363  0.95085663  1
  Se  Se175  1  0.58427692  0.08133903  0.44457874  1
  Se  Se176  1  0.59154853  0.07353871  0.93466319  1
  Se  Se177  1  0.57892500  0.41894333  0.44647447  1
  Se  Se178  1  0.59317326  0.40793676  0.94392601  1
  Se  Se179  1  0.58089460  0.75160969  0.44693451  1
  Se  Se180  1  0.58057728  0.74269968  0.94282596  1
  Se  Se181  1  0.91606237  0.08582435  0.44482849  1
  Se  Se182  1  0.91776453  0.08166620  0.95587161  1
  Se  Se183  1  0.92147388  0.41708417  0.43557187  1
  Se  Se184  1  0.91914566  0.41317999  0.94983596  1
  Se  Se185  1  0.91568740  0.75058515  0.44091250  1
  Se  Se186  1  0.92205453  0.73975173  0.94357250  1
  Se  Se187  1  0.25194667  0.25144228  0.30160230  1
  Se  Se188  1  0.24542610  0.25082048  0.81448432  1
  Se  Se189  1  0.24215388  0.57787852  0.31229121  1
  Se  Se190  1  0.24640963  0.59041380  0.80273181  1
  Se  Se191  1  0.25688481  0.91103634  0.29344692  1
  Se  Se192  1  0.24705791  0.91509917  0.81114457  1
  Se  Se193  1  0.58488168  0.25361935  0.30766864  1
  Se  Se194  1  0.57976858  0.24686801  0.80212557  1
  Se  Se195  1  0.58727476  0.58648573  0.30270029  1
  Se  Se196  1  0.58331705  0.57690938  0.79751831  1
  Se  Se197  1  0.57930510  0.91121511  0.31166287  1
  Se  Se198  1  0.57322287  0.90618120  0.80548176  1
  Se  Se199  1  0.91914399  0.25604239  0.30258771  1
  Se  Se200  1  0.92207243  0.25284655  0.80623387  1
  Se  Se201  1  0.92142108  0.58654165  0.29971188  1
  Se  Se202  1  0.90959654  0.57456359  0.81553682  1
  Se  Se203  1  0.91550550  0.91975949  0.30357152  1
  Se  Se204  1  0.90350391  0.90160718  0.80853304  1
  Se  Se205  1  0.08047832  0.08214741  0.30160687  1
  Se  Se206  1  0.09253334  0.09387902  0.81387191  1
  Se  Se207  1  0.08018812  0.41571442  0.30019812  1
  Se  Se208  1  0.08128548  0.42070042  0.80496697  1
  Se  Se209  1  0.08315444  0.75002715  0.29900536  1
  Se  Se210  1  0.09153704  0.75775605  0.81370048  1
  Se  Se211  1  0.41697567  0.08024679  0.30120051  1
  Se  Se212  1  0.42331931  0.08974250  0.79720696  1
  Se  Se213  1  0.41372315  0.41616072  0.30602854  1
  Se  Se214  1  0.42454713  0.42942899  0.81026518  1
  Se  Se215  1  0.42250260  0.74906313  0.31357136  1
  Se  Se216  1  0.40947037  0.75277098  0.80084679  1
  Se  Se217  1  0.74907177  0.09603198  0.31509441  1
  Se  Se218  1  0.76096275  0.08946721  0.81011517  1
  Se  Se219  1  0.75244305  0.41736242  0.30381188  1
  Se  Se220  1  0.75378748  0.41778269  0.81362311  1
  Se  Se221  1  0.74641273  0.74854573  0.30180550  1
  Se  Se222  1  0.74229586  0.73980957  0.79965140  1
  Se  Se223  1  0.25384869  0.08284936  0.20341024  1
  Se  Se224  1  0.23782661  0.09813205  0.68958546  1
  Se  Se225  1  0.25440064  0.41685430  0.20016739  1
  Se  Se226  1  0.24219806  0.42881376  0.68796759  1
  Se  Se227  1  0.24489523  0.74822985  0.18418552  1
  Se  Se228  1  0.25306566  0.75014010  0.69318073  1
  Se  Se229  1  0.57626193  0.09178112  0.18872564  1
  Se  Se230  1  0.58446220  0.08454469  0.68339907  1
  Se  Se231  1  0.58730801  0.41503937  0.20376940  1
  Se  Se232  1  0.56778115  0.42583603  0.69025288  1
  Se  Se233  1  0.58427349  0.74853157  0.20062752  1
  Se  Se234  1  0.59050108  0.74577119  0.69296666  1
  Se  Se235  1  0.90874171  0.08646431  0.20172623  1
  Se  Se236  1  0.91600722  0.08542227  0.69012539  1
  Se  Se237  1  0.92110854  0.41614378  0.19570719  1
  Se  Se238  1  0.91809505  0.41016292  0.69775107  1
  Se  Se239  1  0.91246259  0.74652945  0.20201281  1
  Se  Se240  1  0.91661635  0.75154083  0.68950051  1
  Se  Se241  1  0.08369519  0.25345730  0.20083958  1
  Se  Se242  1  0.07724039  0.25997577  0.69919589  1
  Se  Se243  1  0.08410871  0.58360968  0.19289990  1
  Se  Se244  1  0.08509205  0.58251265  0.68622248  1
  Se  Se245  1  0.06894061  0.93160771  0.20449902  1
  Se  Se246  1  0.08953323  0.91218899  0.69320156  1
  Se  Se247  1  0.41798382  0.25248523  0.20142297  1
  Se  Se248  1  0.41989125  0.25204059  0.68579227  1
  Se  Se249  1  0.42462612  0.57538487  0.19120945  1
  Se  Se250  1  0.40820183  0.58673137  0.69613648  1
  Se  Se251  1  0.41557179  0.91454076  0.19818127  1
  Se  Se252  1  0.42981440  0.90894159  0.68654493  1
  Se  Se253  1  0.74719387  0.25712774  0.19708514  1
  Se  Se254  1  0.75707690  0.23884766  0.68764678  1
  Se  Se255  1  0.75121070  0.58327402  0.19954952  1
  Se  Se256  1  0.75459613  0.57823566  0.69815759  1
  Se  Se257  1  0.75339859  0.91312916  0.19012057  1
  Se  Se258  1  0.75353316  0.90877552  0.68615466  1
