# generated using pymatgen
data_In86Cu29Se144
_symmetry_space_group_name_H-M   'P 1'
_cell_length_a   17.58165502
_cell_length_b   17.58019015
_cell_length_c   23.43705317
_cell_angle_alpha   89.98779685
_cell_angle_beta   89.96662391
_cell_angle_gamma   89.99226071
_symmetry_Int_Tables_number   1
_chemical_formula_structural   In86Cu29Se144
_chemical_formula_sum   'In86 Cu29 Se144'
_cell_volume   7244.13007834
_cell_formula_units_Z   1
loop_
 _symmetry_equiv_pos_site_id
 _symmetry_equiv_pos_as_xyz
  1  'x, y, z'
loop_
 _atom_site_type_symbol
 _atom_site_label
 _atom_site_symmetry_multiplicity
 _atom_site_fract_x
 _atom_site_fract_y
 _atom_site_fract_z
 _atom_site_occupancy
  In  In0  1  0.00725552  0.15864436  0.12828427  1
  In  In1  1  -0.01452800  0.16175327  0.61662821  1
  In  In2  1  -0.00484284  0.49112682  0.12426143  1
  In  In3  1  0.01062170  0.50425759  0.62649925  1
  In  In4  1  0.00344967  0.83787412  0.12900296  1
  In  In5  1  -0.01139476  0.83918511  0.63614922  1
  In  In6  1  0.32033439  0.16459451  0.12151168  1
  In  In7  1  0.34240694  0.16144479  0.63312917  1
  In  In8  1  0.34833685  0.50961320  0.11223944  1
  In  In9  1  0.33655024  0.50124017  0.63349956  1
  In  In10  1  0.34323571  0.82010475  0.13197986  1
  In  In11  1  0.33109840  0.83096551  0.63527486  1
  In  In12  1  0.67309355  0.16261236  0.13341997  1
  In  In13  1  0.67842778  0.15657449  0.62983784  1
  In  In14  1  0.64942301  0.51017340  0.13552944  1
  In  In15  1  0.65230055  0.51486539  0.62943342  1
  In  In16  1  0.66012725  0.83636205  0.12726683  1
  In  In17  1  0.68139447  0.82533219  0.63553931  1
  In  In18  1  0.16946742  0.00408388  0.36881085  1
  In  In19  1  0.17268346  -0.00091861  0.86556785  1
  In  In20  1  0.16545650  0.34897511  0.37004666  1
  In  In21  1  0.17874302  0.32559004  0.88179387  1
  In  In22  1  0.16998247  0.66210572  0.37287072  1
  In  In23  1  0.16047822  0.66131404  0.86846679  1
  In  In24  1  0.49804258  -0.01128908  0.36792469  1
  In  In25  1  0.49016244  -0.01077717  0.87121740  1
  In  In26  1  0.51335035  0.33371928  0.37743656  1
  In  In27  1  0.51059108  0.34421535  0.87205795  1
  In  In28  1  0.49516679  0.65942506  0.37553912  1
  In  In29  1  0.50423349  0.67027439  0.87813424  1
  In  In30  1  0.83474993  -0.00127943  0.37675017  1
  In  In31  1  0.82630445  -0.01686332  0.85889395  1
  In  In32  1  0.82327186  0.32180115  0.37207808  1
  In  In33  1  0.82738265  0.34279008  0.87009631  1
  In  In34  1  0.82821791  0.70554462  0.38200504  1
  In  In35  1  0.82776042  0.67325162  0.86120475  1
  In  In36  1  -0.01548947  0.14954371  0.36682692  1
  In  In37  1  0.01419420  0.16294283  0.87745875  1
  In  In38  1  0.01022125  0.50192558  0.36843970  1
  In  In39  1  0.00153596  0.51391412  0.87297870  1
  In  In40  1  -0.02435112  0.83871364  0.38011855  1
  In  In41  1  -0.00005922  0.83072698  0.85188036  1
  In  In42  1  0.34362399  0.15815240  0.37572251  1
  In  In43  1  0.32018831  0.15440302  0.87002209  1
  In  In44  1  0.33737918  0.51902989  0.37578675  1
  In  In45  1  0.33855747  0.50091491  0.87662635  1
  In  In46  1  0.33159303  0.83039984  0.37197601  1
  In  In47  1  0.33979293  0.84235605  0.86622332  1
  In  In48  1  0.67003099  0.17243304  0.37277445  1
  In  In49  1  0.66855668  0.16813305  0.87097829  1
  In  In50  1  0.65910583  0.49762984  0.37338012  1
  In  In51  1  0.66414135  0.50217534  0.87266632  1
  In  In52  1  0.68089844  0.83903044  0.36199700  1
  In  In53  1  0.64861327  0.81620779  0.85508236  1
  In  In54  1  0.16227945  0.00534147  0.12699557  1
  In  In55  1  0.17172076  -0.01590982  0.64036735  1
  In  In56  1  0.16445425  0.32680857  0.11619899  1
  In  In57  1  0.17300445  0.34442404  0.62789345  1
  In  In58  1  0.18180426  0.67370433  0.12209931  1
  In  In59  1  0.16244796  0.67756896  0.64825665  1
  In  In60  1  0.51018629  -0.01308773  0.13157676  1
  In  In61  1  0.50224394  0.00051921  0.62987321  1
  In  In62  1  0.49966736  0.34469043  0.12373770  1
  In  In63  1  0.49282276  0.34308472  0.63460632  1
  In  In64  1  0.50139941  0.66215828  0.12109691  1
  In  In65  1  0.50092123  0.66458826  0.62707655  1
  In  In66  1  0.82957622  -0.00422082  0.13580938  1
  In  In67  1  0.83124014  -0.00230886  0.62294949  1
  In  In68  1  0.83395435  0.33673989  0.13600199  1
  In  In69  1  0.83318264  0.31664084  0.62082490  1
  In  In70  1  0.82692682  0.66416944  0.13152858  1
  In  In71  1  0.83036138  0.67508173  0.63016740  1
  In  In72  1  0.33220579  0.33187406  0.24397403  1
  In  In73  1  0.16132258  0.16588253  0.49573682  1
  In  In74  1  0.82845032  0.82930607  0.00026586  1
  In  In75  1  0.83725925  0.16102916  0.00683171  1
  In  In76  1  0.17139755  0.83685004  -0.00976706  1
  In  In77  1  0.83226780  0.50227226  -0.00564529  1
  In  In78  1  0.50071628  0.83050295  0.50347389  1
  In  In79  1  -0.00277582  0.33087241  0.74569472  1
  In  In80  1  -0.00337573  0.67058714  0.25531831  1
  In  In81  1  0.82977780  0.50500059  0.50267418  1
  In  In82  1  0.16476620  0.82866976  0.50973778  1
  In  In83  1  0.49192233  0.16857419  -0.00025739  1
  In  In84  1  0.50912132  0.16469925  0.50651191  1
  In  In85  1  0.16925729  0.50719633  0.50062912  1
  Cu  Cu86  1  0.83447046  0.16836630  0.25372772  1
  Cu  Cu87  1  0.50245724  0.15969225  0.25165659  1
  Cu  Cu88  1  0.66642930  0.33964115  0.00208228  1
  Cu  Cu89  1  0.16767253  0.83860104  0.24932182  1
  Cu  Cu90  1  0.33994145  0.33699361  0.50994979  1
  Cu  Cu91  1  0.49922511  0.82544541  0.24996815  1
  Cu  Cu92  1  0.66531211  0.33638333  0.49854592  1
  Cu  Cu93  1  0.82374129  0.50144024  0.74736727  1
  Cu  Cu94  1  0.50291505  0.83399605  0.74851154  1
  Cu  Cu95  1  0.16610413  0.16472239  0.74945327  1
  Cu  Cu96  1  0.65542677  -0.01224479  -0.00177399  1
  Cu  Cu97  1  0.17404614  0.49561086  0.75521519  1
  Cu  Cu98  1  0.01187204  0.33374836  0.00153022  1
  Cu  Cu99  1  0.82992316  0.49768545  0.25641901  1
  Cu  Cu100  1  0.66549434  0.67381997  0.50390718  1
  Cu  Cu101  1  0.50110595  0.50624861  0.75446884  1
  Cu  Cu102  1  0.49771571  0.50073769  0.24798171  1
  Cu  Cu103  1  0.83217001  0.16127163  0.74658689  1
  Cu  Cu104  1  -0.00688266  0.32966687  0.49097403  1
  Cu  Cu105  1  0.33816030  0.66218154  -0.00177618  1
  Cu  Cu106  1  0.33092792  -0.00487494  -0.00491550  1
  Cu  Cu107  1  0.00299015  0.00477196  -0.00226182  1
  Cu  Cu108  1  0.00263993  0.66830673  -0.00787160  1
  Cu  Cu109  1  0.16838563  0.50249835  0.24413361  1
  Cu  Cu110  1  -0.00149344  -0.00562056  0.50212563  1
  Cu  Cu111  1  0.16336959  0.16943302  0.24644595  1
  Cu  Cu112  1  0.33319289  0.33654602  -0.00331668  1
  Cu  Cu113  1  0.49874506  0.17317239  0.75547288  1
  Cu  Cu114  1  0.67497815  -0.00349196  0.49872038  1
  Se  Se115  1  0.08659394  0.08566951  0.05165234  1
  Se  Se116  1  0.08402460  0.07050076  0.56154789  1
  Se  Se117  1  0.08705588  0.42432196  0.05400727  1
  Se  Se118  1  0.07516716  0.40564980  0.55238806  1
  Se  Se119  1  0.07869672  0.74960392  0.05463632  1
  Se  Se120  1  0.07517805  0.74252638  0.57011182  1
  Se  Se121  1  0.41076243  0.07135942  0.06014778  1
  Se  Se122  1  0.41058105  0.07410889  0.55578552  1
  Se  Se123  1  0.42311801  0.41569357  0.04653959  1
  Se  Se124  1  0.41932479  0.42445609  0.55964723  1
  Se  Se125  1  0.41657681  0.74815305  0.05338210  1
  Se  Se126  1  0.40544723  0.74415116  0.56006620  1
  Se  Se127  1  0.73873429  0.06743014  0.05705230  1
  Se  Se128  1  0.75383578  0.08555335  0.55089820  1
  Se  Se129  1  0.74876789  0.41649351  0.06267858  1
  Se  Se130  1  0.74230612  0.41442061  0.56388918  1
  Se  Se131  1  0.74042815  0.73830860  0.05881229  1
  Se  Se132  1  0.75287933  0.75350807  0.55465459  1
  Se  Se133  1  0.25162804  0.24867231  0.04733782  1
  Se  Se134  1  0.25451272  0.25241627  0.56022521  1
  Se  Se135  1  0.24872646  0.58427909  0.05056643  1
  Se  Se136  1  0.24529570  0.59218718  0.57122935  1
  Se  Se137  1  0.25497978  0.91641815  0.06202928  1
  Se  Se138  1  0.25936837  0.92297619  0.56037390  1
  Se  Se139  1  0.59190245  0.25110500  0.05983994  1
  Se  Se140  1  0.59097605  0.25919772  0.56663720  1
  Se  Se141  1  0.58057358  0.57419528  0.05328906  1
  Se  Se142  1  0.57941136  0.58817227  0.55040665  1
  Se  Se143  1  0.57390523  0.90586851  0.05203615  1
  Se  Se144  1  0.59331990  0.92086273  0.56033615  1
  Se  Se145  1  0.92401799  0.25998629  0.06101213  1
  Se  Se146  1  0.91212138  0.24543617  0.54379132  1
  Se  Se147  1  0.92243014  0.59419984  0.05672557  1
  Se  Se148  1  0.92366176  0.58927604  0.56159739  1
  Se  Se149  1  0.92176529  0.92515438  0.05683441  1
  Se  Se150  1  0.91552230  0.91215255  0.55607275  1
  Se  Se151  1  0.07729644  0.25510759  0.43078186  1
  Se  Se152  1  0.08924299  0.24589526  0.94858363  1
  Se  Se153  1  0.07219325  0.59464442  0.44446956  1
  Se  Se154  1  0.08861913  0.58158371  0.94657131  1
  Se  Se155  1  0.08343084  0.92039916  0.44130944  1
  Se  Se156  1  0.07137007  0.91894355  0.93373368  1
  Se  Se157  1  0.41389915  0.25578910  0.44614415  1
  Se  Se158  1  0.40919865  0.25501754  0.93327833  1
  Se  Se159  1  0.41585115  0.58649912  0.45162840  1
  Se  Se160  1  0.42412875  0.58112678  0.94541237  1
  Se  Se161  1  0.40956916  0.92078664  0.44392941  1
  Se  Se162  1  0.41653470  0.91055841  0.94702054  1
  Se  Se163  1  0.74676267  0.24823334  0.44962664  1
  Se  Se164  1  0.74899033  0.25702765  0.94608989  1
  Se  Se165  1  0.74387156  0.59427283  0.43921936  1
  Se  Se166  1  0.74629240  0.59790950  0.93900076  1
  Se  Se167  1  0.75238554  0.90996970  0.44347582  1
  Se  Se168  1  0.74119344  0.91656750  0.93730260  1
  Se  Se169  1  0.25899823  0.07434980  0.44546100  1
  Se  Se170  1  0.24353489  0.07666969  0.94535655  1
  Se  Se171  1  0.26103037  0.41187950  0.44377653  1
  Se  Se172  1  0.24934078  0.42247962  0.94616327  1
  Se  Se173  1  0.25454705  0.74118637  0.44541696  1
  Se  Se174  1  0.25977963  0.74182872  0.93555180  1
  Se  Se175  1  0.58839300  0.07224881  0.43981292  1
  Se  Se176  1  0.58487550  0.07963221  0.94106951  1
  Se  Se177  1  0.58046665  0.42171139  0.45034010  1
  Se  Se178  1  0.58647656  0.42247247  0.94734378  1
  Se  Se179  1  0.59073992  0.75106313  0.43626401  1
  Se  Se180  1  0.59022958  0.75533700  0.94307322  1
  Se  Se181  1  0.91627284  0.08067858  0.44943181  1
  Se  Se182  1  0.91479362  0.07458001  0.93589734  1
  Se  Se183  1  0.91762865  0.41810488  0.43582717  1
  Se  Se184  1  0.92821615  0.40807480  0.93995289  1
  Se  Se185  1  0.92761692  0.74437718  0.45568343  1
  Se  Se186  1  0.92382468  0.74979192  0.93439598  1
  Se  Se187  1  0.24567970  0.24363722  0.31069204  1
  Se  Se188  1  0.24796811  0.24925685  0.80256049  1
  Se  Se189  1  0.24994114  0.58342687  0.30034432  1
  Se  Se190  1  0.25543820  0.58214082  0.80632248  1
  Se  Se191  1  0.25366649  0.91834267  0.30391033  1
  Se  Se192  1  0.24677272  0.91088250  0.79864545  1
  Se  Se193  1  0.58122167  0.24858884  0.30350619  1
  Se  Se194  1  0.58759471  0.25427436  0.80497480  1
  Se  Se195  1  0.58000402  0.58285907  0.30403004  1
  Se  Se196  1  0.58692637  0.59033614  0.80492400  1
  Se  Se197  1  0.58390942  0.91329131  0.29883307  1
  Se  Se198  1  0.58277371  0.92541659  0.79907716  1
  Se  Se199  1  0.91970655  0.25393813  0.30450540  1
  Se  Se200  1  0.91067818  0.24073524  0.81075400  1
  Se  Se201  1  0.90492285  0.58347795  0.31628243  1
  Se  Se202  1  0.91113752  0.57922988  0.80171790  1
  Se  Se203  1  0.91918302  0.92438748  0.30381267  1
  Se  Se204  1  0.92556190  0.92663573  0.79114069  1
  Se  Se205  1  0.08320549  0.08300577  0.30112434  1
  Se  Se206  1  0.08141328  0.08196900  0.80114971  1
  Se  Se207  1  0.08370046  0.41848360  0.29459315  1
  Se  Se208  1  0.08612919  0.41436142  0.81120652  1
  Se  Se209  1  0.08707311  0.76277625  0.31443237  1
  Se  Se210  1  0.08828775  0.74309781  0.79544484  1
  Se  Se211  1  0.41579056  0.07750389  0.30203562  1
  Se  Se212  1  0.41666592  0.08360974  0.80528186  1
  Se  Se213  1  0.41834565  0.41868744  0.31008777  1
  Se  Se214  1  0.41880235  0.41789085  0.80489718  1
  Se  Se215  1  0.41531118  0.74554962  0.30638989  1
  Se  Se216  1  0.42288788  0.75062823  0.80529022  1
  Se  Se217  1  0.75161474  0.08473833  0.30801500  1
  Se  Se218  1  0.74665165  0.08289185  0.80242146  1
  Se  Se219  1  0.74461175  0.41331647  0.30763633  1
  Se  Se220  1  0.74260990  0.41671629  0.80070993  1
  Se  Se221  1  0.74315274  0.73581957  0.29739731  1
  Se  Se222  1  0.76683737  0.77484409  0.79752486  1
  Se  Se223  1  0.24914016  0.08421631  0.19699157  1
  Se  Se224  1  0.25261576  0.08204169  0.69806233  1
  Se  Se225  1  0.24915812  0.42440856  0.18202163  1
  Se  Se226  1  0.25644066  0.41240037  0.70181495  1
  Se  Se227  1  0.24999880  0.74876535  0.20139059  1
  Se  Se228  1  0.25712005  0.75184695  0.70978758  1
  Se  Se229  1  0.58722416  0.07813286  0.19751853  1
  Se  Se230  1  0.57804511  0.09211572  0.69548375  1
  Se  Se231  1  0.58149193  0.41040061  0.20114849  1
  Se  Se232  1  0.58368330  0.42189621  0.69933679  1
  Se  Se233  1  0.58085175  0.74501058  0.19259898  1
  Se  Se234  1  0.58406622  0.74775882  0.69546848  1
  Se  Se235  1  0.91470893  0.08648968  0.19544135  1
  Se  Se236  1  0.91737048  0.08169404  0.69258769  1
  Se  Se237  1  0.91843892  0.42069851  0.20237922  1
  Se  Se238  1  0.90612837  0.42313581  0.68614267  1
  Se  Se239  1  0.90781727  0.76094337  0.19434161  1
  Se  Se240  1  0.91758822  0.74330938  0.70226604  1
  Se  Se241  1  0.08371058  0.25440260  0.19209638  1
  Se  Se242  1  0.08757257  0.24101151  0.68401119  1
  Se  Se243  1  0.08555989  0.58641178  0.18741294  1
  Se  Se244  1  0.08386229  0.57522542  0.70484147  1
  Se  Se245  1  0.08273899  0.92090480  0.19716336  1
  Se  Se246  1  0.07989135  0.91195992  0.70456910  1
  Se  Se247  1  0.42492216  0.23839765  0.18708760  1
  Se  Se248  1  0.41362942  0.25364487  0.70053253  1
  Se  Se249  1  0.41482818  0.58348966  0.19346346  1
  Se  Se250  1  0.41740310  0.58844244  0.69991892  1
  Se  Se251  1  0.41640180  0.91376367  0.19834368  1
  Se  Se252  1  0.41846702  0.91848405  0.69711355  1
  Se  Se253  1  0.74951604  0.25138413  0.20043545  1
  Se  Se254  1  0.75090898  0.25138110  0.69806802  1
  Se  Se255  1  0.74923353  0.57903132  0.19955303  1
  Se  Se256  1  0.74435115  0.58953386  0.69545389  1
  Se  Se257  1  0.74706876  0.90966741  0.19741887  1
  Se  Se258  1  0.73393196  0.93754381  0.69321909  1
