# generated using pymatgen
data_In86Cu29Se144
_symmetry_space_group_name_H-M   'P 1'
_cell_length_a   17.54740423
_cell_length_b   17.54775634
_cell_length_c   23.39175614
_cell_angle_alpha   90.00297521
_cell_angle_beta   90.01195875
_cell_angle_gamma   89.98380037
_symmetry_Int_Tables_number   1
_chemical_formula_structural   In86Cu29Se144
_chemical_formula_sum   'In86 Cu29 Se144'
_cell_volume   7202.73234641
_cell_formula_units_Z   1
loop_
 _symmetry_equiv_pos_site_id
 _symmetry_equiv_pos_as_xyz
  1  'x, y, z'
loop_
 _atom_site_type_symbol
 _atom_site_label
 _atom_site_symmetry_multiplicity
 _atom_site_fract_x
 _atom_site_fract_y
 _atom_site_fract_z
 _atom_site_occupancy
  In  In0  1  0.00076855  0.16926450  0.11799583  1
  In  In1  1  0.00858867  0.17530780  0.62717435  1
  In  In2  1  0.00735965  0.49732551  0.11384764  1
  In  In3  1  0.00143253  0.49279759  0.62398196  1
  In  In4  1  0.01443233  0.82884395  0.13084896  1
  In  In5  1  -0.00368425  0.83172380  0.61334131  1
  In  In6  1  0.34381729  0.18061561  0.12289465  1
  In  In7  1  0.33396252  0.15354473  0.62282718  1
  In  In8  1  0.33183329  0.50942657  0.12580893  1
  In  In9  1  0.33254339  0.50143808  0.61749344  1
  In  In10  1  0.31203960  0.79854781  0.10556142  1
  In  In11  1  0.32653863  0.84160135  0.61867251  1
  In  In12  1  0.66982321  0.16412106  0.11102691  1
  In  In13  1  0.67395912  0.18088033  0.62723233  1
  In  In14  1  0.66414128  0.50853029  0.12554502  1
  In  In15  1  0.65984163  0.50125480  0.62342687  1
  In  In16  1  0.65550094  0.82637215  0.11329101  1
  In  In17  1  0.67099420  0.81887564  0.61934453  1
  In  In18  1  0.15027659  -0.00585368  0.36175250  1
  In  In19  1  0.16677806  0.00402612  0.88312413  1
  In  In20  1  0.18248735  0.34393275  0.35931407  1
  In  In21  1  0.15156706  0.34434535  0.89282949  1
  In  In22  1  0.16434472  0.66743262  0.36966221  1
  In  In23  1  0.16196625  0.65926109  0.90995102  1
  In  In24  1  0.51606061  0.00391122  0.37746897  1
  In  In25  1  0.50175675  0.00040004  0.89102724  1
  In  In26  1  0.48810891  0.34551775  0.37827751  1
  In  In27  1  0.50717382  0.32715542  0.88364594  1
  In  In28  1  0.47632112  0.63649303  0.33984293  1
  In  In29  1  0.49903720  0.65188418  0.89904357  1
  In  In30  1  0.82694981  -0.01498154  0.36997962  1
  In  In31  1  0.82887136  -0.00530136  0.89381466  1
  In  In32  1  0.84394320  0.32649691  0.36872791  1
  In  In33  1  0.82902294  0.34172661  0.88234478  1
  In  In34  1  0.84695081  0.67617918  0.35773550  1
  In  In35  1  0.84213656  0.66214275  0.89966093  1
  In  In36  1  0.00661541  0.17465520  0.35800764  1
  In  In37  1  -0.02517691  0.19745592  0.90804996  1
  In  In38  1  0.01800569  0.51542799  0.35776157  1
  In  In39  1  0.01310898  0.48681290  0.90587927  1
  In  In40  1  0.00064119  0.82987979  0.36514431  1
  In  In41  1  0.00085851  0.82804795  0.89543007  1
  In  In42  1  0.33419035  0.18090203  0.36873292  1
  In  In43  1  0.33650534  0.16795832  0.88834799  1
  In  In44  1  0.33118651  0.49592261  0.36927517  1
  In  In45  1  0.33694492  0.50896384  0.89330779  1
  In  In46  1  0.32854741  0.81316880  0.36497784  1
  In  In47  1  0.32680594  0.83059652  0.89641979  1
  In  In48  1  0.65995977  0.14948699  0.37509296  1
  In  In49  1  0.65225419  0.17585189  0.88457747  1
  In  In50  1  0.65193111  0.49847594  0.36672873  1
  In  In51  1  0.67318460  0.49019965  0.88405720  1
  In  In52  1  0.67372904  0.83027108  0.37173771  1
  In  In53  1  0.67445128  0.82765276  0.89308022  1
  In  In54  1  0.15188312  -0.01775268  0.12716630  1
  In  In55  1  0.17266355  -0.00400868  0.62071433  1
  In  In56  1  0.16376861  0.34136122  0.11741394  1
  In  In57  1  0.15645204  0.33510472  0.62615362  1
  In  In58  1  0.16794599  0.66164366  0.12323501  1
  In  In59  1  0.16603627  0.66659799  0.61253435  1
  In  In60  1  0.50706554  0.00213700  0.11630882  1
  In  In61  1  0.48504367  0.00123589  0.62027522  1
  In  In62  1  0.49620078  0.33978118  0.12789919  1
  In  In63  1  0.50435667  0.34180933  0.62212369  1
  In  In64  1  0.49406442  0.66503570  0.12894369  1
  In  In65  1  0.51254541  0.65772681  0.61920301  1
  In  In66  1  0.84371741  0.01236529  0.11348490  1
  In  In67  1  0.84360574  -0.00335250  0.62436616  1
  In  In68  1  0.85824392  0.34748992  0.09719923  1
  In  In69  1  0.83795512  0.32846318  0.63463907  1
  In  In70  1  0.84490911  0.65975485  0.12109163  1
  In  In71  1  0.82334955  0.67680860  0.61820708  1
  In  In72  1  0.33112108  0.33592034  0.75605972  1
  In  In73  1  0.33298944  -0.00843659  0.24458567  1
  In  In74  1  0.16923124  0.16657213  0.50244312  1
  In  In75  1  0.32802345  0.00704488  0.74873181  1
  In  In76  1  0.67051438  0.00720599  0.75400648  1
  In  In77  1  -0.00022116  0.00603298  0.75465880  1
  In  In78  1  0.67418171  0.65981363  0.75207521  1
  In  In79  1  0.67212015  -0.00446439  0.24625892  1
  In  In80  1  0.82798131  0.16009181  0.50059218  1
  In  In81  1  -0.00114094  0.66197609  0.76583552  1
  In  In82  1  0.83494960  0.50512247  0.49823349  1
  In  In83  1  0.49608010  0.82477476  0.49297731  1
  In  In84  1  0.33220250  0.66318072  0.76031525  1
  In  In85  1  0.67431725  0.33341986  0.24015867  1
  Cu  Cu86  1  0.50055586  0.17475171  0.25029802  1
  Cu  Cu87  1  0.33171973  0.65789966  0.48803925  1
  Cu  Cu88  1  0.15048343  0.18028596  0.76307895  1
  Cu  Cu89  1  0.83738105  0.83388944  0.24030090  1
  Cu  Cu90  1  0.16675301  0.16936145  0.23533883  1
  Cu  Cu91  1  0.84387041  0.17377878  0.23698968  1
  Cu  Cu92  1  0.50391404  0.17340609  0.75456253  1
  Cu  Cu93  1  0.00195827  0.67332176  0.48625321  1
  Cu  Cu94  1  0.49649363  0.82816528  0.23456052  1
  Cu  Cu95  1  0.83707532  0.83120768  0.75619172  1
  Cu  Cu96  1  0.15893790  0.50055334  0.76123716  1
  Cu  Cu97  1  0.66497664  0.66770719  0.48665749  1
  Cu  Cu98  1  0.65924487  0.33932985  0.00420452  1
  Cu  Cu99  1  0.01022942  0.34178676  0.49410600  1
  Cu  Cu100  1  0.66153584  0.66523061  0.01172139  1
  Cu  Cu101  1  0.34105181  0.33739801  0.49362793  1
  Cu  Cu102  1  0.50565904  0.49494767  0.75192346  1
  Cu  Cu103  1  0.84032798  0.49137542  0.75786022  1
  Cu  Cu104  1  0.33559466  0.00201264  0.01139254  1
  Cu  Cu105  1  0.83477611  0.17936188  0.76376805  1
  Cu  Cu106  1  0.01549178  -0.00794846  0.00922076  1
  Cu  Cu107  1  0.16380353  0.82965590  0.75427564  1
  Cu  Cu108  1  0.83871779  0.49569658  0.23413500  1
  Cu  Cu109  1  0.32684125  -0.00322266  0.48986459  1
  Cu  Cu110  1  0.33076054  0.34091132  0.00597380  1
  Cu  Cu111  1  0.65823135  0.33326264  0.49888923  1
  Cu  Cu112  1  -0.00820166  -0.00855155  0.48875418  1
  Cu  Cu113  1  0.16516483  0.49858915  0.24247547  1
  Cu  Cu114  1  0.50074808  0.83116799  0.76371936  1
  Se  Se115  1  0.09402066  0.08378878  0.05817674  1
  Se  Se116  1  0.06884338  0.07201297  0.55485806  1
  Se  Se117  1  0.07395024  0.40438071  0.04239796  1
  Se  Se118  1  0.08988743  0.42252262  0.55183148  1
  Se  Se119  1  0.08921877  0.75028891  0.05502537  1
  Se  Se120  1  0.08478067  0.75405366  0.54689788  1
  Se  Se121  1  0.42165614  0.09180664  0.05477727  1
  Se  Se122  1  0.41012205  0.08051742  0.54521041  1
  Se  Se123  1  0.41659497  0.42330910  0.05800540  1
  Se  Se124  1  0.42076617  0.42113472  0.55222003  1
  Se  Se125  1  0.44293047  0.77218572  0.06068936  1
  Se  Se126  1  0.40611980  0.73524435  0.55865950  1
  Se  Se127  1  0.74760708  0.07715560  0.04489477  1
  Se  Se128  1  0.73927163  0.07166987  0.56391053  1
  Se  Se129  1  0.74388643  0.42312602  0.05509975  1
  Se  Se130  1  0.74912811  0.40737970  0.55779280  1
  Se  Se131  1  0.75483388  0.74492437  0.05688392  1
  Se  Se132  1  0.74938136  0.75188677  0.54022158  1
  Se  Se133  1  0.25054682  0.25075961  0.05460356  1
  Se  Se134  1  0.26171149  0.26093011  0.56063450  1
  Se  Se135  1  0.24459184  0.57644198  0.05050320  1
  Se  Se136  1  0.24804115  0.57922573  0.54778949  1
  Se  Se137  1  0.24842694  0.91635005  0.05802567  1
  Se  Se138  1  0.24355442  0.91415188  0.54474601  1
  Se  Se139  1  0.57734291  0.25544073  0.05771329  1
  Se  Se140  1  0.58186961  0.24869673  0.55693974  1
  Se  Se141  1  0.57172306  0.57952628  0.05591528  1
  Se  Se142  1  0.58946119  0.57996270  0.54517723  1
  Se  Se143  1  0.59970996  0.93233772  0.04864518  1
  Se  Se144  1  0.58054168  0.91308500  0.56119590  1
  Se  Se145  1  0.90230674  0.22594130  0.04571715  1
  Se  Se146  1  0.92578414  0.25895409  0.55250441  1
  Se  Se147  1  0.90921354  0.56892359  0.04705005  1
  Se  Se148  1  0.92768555  0.59793727  0.55710287  1
  Se  Se149  1  0.92828918  0.91242254  0.06128599  1
  Se  Se150  1  0.90856613  0.91333968  0.54719785  1
  Se  Se151  1  0.08633700  0.25542591  0.43550479  1
  Se  Se152  1  0.10197984  0.23336604  0.95448872  1
  Se  Se153  1  0.08530545  0.58153609  0.44243578  1
  Se  Se154  1  0.04508245  0.60826372  0.96507925  1
  Se  Se155  1  0.08179027  0.91321199  0.43833482  1
  Se  Se156  1  0.09772764  0.91056735  0.95189099  1
  Se  Se157  1  0.41978942  0.24597760  0.44476529  1
  Se  Se158  1  0.41679929  0.25613032  0.95317096  1
  Se  Se159  1  0.42067638  0.58199579  0.43437852  1
  Se  Se160  1  0.39347711  0.60379160  0.96585730  1
  Se  Se161  1  0.40846135  0.91695126  0.43008017  1
  Se  Se162  1  0.41750425  0.91634239  0.95624510  1
  Se  Se163  1  0.74363239  0.25698153  0.43823865  1
  Se  Se164  1  0.74231905  0.25642633  0.94826254  1
  Se  Se165  1  0.75050660  0.58781418  0.42955442  1
  Se  Se166  1  0.74214963  0.58205852  0.95385900  1
  Se  Se167  1  0.72729089  0.93313040  0.43976969  1
  Se  Se168  1  0.76177275  0.90147354  0.96081420  1
  Se  Se169  1  0.24901198  0.07988081  0.43114839  1
  Se  Se170  1  0.25352989  0.08180334  0.95209176  1
  Se  Se171  1  0.24986898  0.41450695  0.44219819  1
  Se  Se172  1  0.24566087  0.42526879  0.95400722  1
  Se  Se173  1  0.24791918  0.74763283  0.44292754  1
  Se  Se174  1  0.25350000  0.74461613  0.96629894  1
  Se  Se175  1  0.58437148  0.08246078  0.45389285  1
  Se  Se176  1  0.58824847  0.08208509  0.95398988  1
  Se  Se177  1  0.58108370  0.42094653  0.44498539  1
  Se  Se178  1  0.57422329  0.42419727  0.95084510  1
  Se  Se179  1  0.57631202  0.73737900  0.42564832  1
  Se  Se180  1  0.58039929  0.74951619  0.95495366  1
  Se  Se181  1  0.92194071  0.08426052  0.43131080  1
  Se  Se182  1  0.92849556  0.06998585  0.95237646  1
  Se  Se183  1  0.92597081  0.41895349  0.43486938  1
  Se  Se184  1  0.90915260  0.41229465  0.95956530  1
  Se  Se185  1  0.91218554  0.75473665  0.43829417  1
  Se  Se186  1  0.90940643  0.75953324  0.96366878  1
  Se  Se187  1  0.25286758  0.24815715  0.29218951  1
  Se  Se188  1  0.24346927  0.24941374  0.81951612  1
  Se  Se189  1  0.24588548  0.57984207  0.30230287  1
  Se  Se190  1  0.23537440  0.58208912  0.82257826  1
  Se  Se191  1  0.23855578  0.90195411  0.30011582  1
  Se  Se192  1  0.24857659  0.91010491  0.81161550  1
  Se  Se193  1  0.58664015  0.24929056  0.31033086  1
  Se  Se194  1  0.58653885  0.25759992  0.80537688  1
  Se  Se195  1  0.60330146  0.59639031  0.29429883  1
  Se  Se196  1  0.57734703  0.58027329  0.81451222  1
  Se  Se197  1  0.57184792  0.90705335  0.30089390  1
  Se  Se198  1  0.58604480  0.91252080  0.81674339  1
  Se  Se199  1  0.92419785  0.25996308  0.29069309  1
  Se  Se200  1  0.92062860  0.25920018  0.81637095  1
  Se  Se201  1  0.91818554  0.58032519  0.29265383  1
  Se  Se202  1  0.91147139  0.56973529  0.82406708  1
  Se  Se203  1  0.91616158  0.91841108  0.29853665  1
  Se  Se204  1  0.91699852  0.91000154  0.81651106  1
  Se  Se205  1  0.08491408  0.08679573  0.29099010  1
  Se  Se206  1  0.07670885  0.09528521  0.82189787  1
  Se  Se207  1  0.08237063  0.41120241  0.29497730  1
  Se  Se208  1  0.07489966  0.42097504  0.81650414  1
  Se  Se209  1  0.06720182  0.73081620  0.30063610  1
  Se  Se210  1  0.09424149  0.75105901  0.82216487  1
  Se  Se211  1  0.42502082  0.08422583  0.30628433  1
  Se  Se212  1  0.42486171  0.08846785  0.81208208  1
  Se  Se213  1  0.41361155  0.41267313  0.30013709  1
  Se  Se214  1  0.41898784  0.42758915  0.81615938  1
  Se  Se215  1  0.40888337  0.74757352  0.28697757  1
  Se  Se216  1  0.42107914  0.75173059  0.82308250  1
  Se  Se217  1  0.76253082  0.09551124  0.30104787  1
  Se  Se218  1  0.75940138  0.09010508  0.81978492  1
  Se  Se219  1  0.76240731  0.42449306  0.30517170  1
  Se  Se220  1  0.74565921  0.41479633  0.80578711  1
  Se  Se221  1  0.75114686  0.75544901  0.29604594  1
  Se  Se222  1  0.76091473  0.74753259  0.81678359  1
  Se  Se223  1  0.25030320  0.08540088  0.18238355  1
  Se  Se224  1  0.22706639  0.10030679  0.69654432  1
  Se  Se225  1  0.24958075  0.41642966  0.18963040  1
  Se  Se226  1  0.24212962  0.42920404  0.69637638  1
  Se  Se227  1  0.25361436  0.73902273  0.19456388  1
  Se  Se228  1  0.24581132  0.75318141  0.69251282  1
  Se  Se229  1  0.58227996  0.09432592  0.19255298  1
  Se  Se230  1  0.57382527  0.08743520  0.69039557  1
  Se  Se231  1  0.57546807  0.42989893  0.19884583  1
  Se  Se232  1  0.58826600  0.41481485  0.69647845  1
  Se  Se233  1  0.59088913  0.74616813  0.19251936  1
  Se  Se234  1  0.57617754  0.75420621  0.69669249  1
  Se  Se235  1  0.92426076  0.08129755  0.19112065  1
  Se  Se236  1  0.90579225  0.09915019  0.69553163  1
  Se  Se237  1  0.92304972  0.41205233  0.18392039  1
  Se  Se238  1  0.92388379  0.41559896  0.69804847  1
  Se  Se239  1  0.92146692  0.74480026  0.19328676  1
  Se  Se240  1  0.91520389  0.75062281  0.69389665  1
  Se  Se241  1  0.08137297  0.25510720  0.18685544  1
  Se  Se242  1  0.07627294  0.26166244  0.70164258  1
  Se  Se243  1  0.07883584  0.57983803  0.18988955  1
  Se  Se244  1  0.08951736  0.58381159  0.69430206  1
  Se  Se245  1  0.07964684  0.91549784  0.20782932  1
  Se  Se246  1  0.08581831  0.90904426  0.69194079  1
  Se  Se247  1  0.41607021  0.25844903  0.20070260  1
  Se  Se248  1  0.41690472  0.24367892  0.69242161  1
  Se  Se249  1  0.41334921  0.58507957  0.20031905  1
  Se  Se250  1  0.42441357  0.57791521  0.69374427  1
  Se  Se251  1  0.41852531  0.91033521  0.17651043  1
  Se  Se252  1  0.42166336  0.90512336  0.69733134  1
  Se  Se253  1  0.76212520  0.24910798  0.17584259  1
  Se  Se254  1  0.74935037  0.25402459  0.70456331  1
  Se  Se255  1  0.75344109  0.58599408  0.19213806  1
  Se  Se256  1  0.76790102  0.57112899  0.69045919  1
  Se  Se257  1  0.75718292  0.91207534  0.17986199  1
  Se  Se258  1  0.75571510  0.90686010  0.69398325  1
