# generated using pymatgen
data_In86Cu29Se144
_symmetry_space_group_name_H-M   'P 1'
_cell_length_a   17.57278659
_cell_length_b   17.57374691
_cell_length_c   23.42622010
_cell_angle_alpha   89.97937044
_cell_angle_beta   89.98949379
_cell_angle_gamma   90.01728989
_symmetry_Int_Tables_number   1
_chemical_formula_structural   In86Cu29Se144
_chemical_formula_sum   'In86 Cu29 Se144'
_cell_volume   7234.47743695
_cell_formula_units_Z   1
loop_
 _symmetry_equiv_pos_site_id
 _symmetry_equiv_pos_as_xyz
  1  'x, y, z'
loop_
 _atom_site_type_symbol
 _atom_site_label
 _atom_site_symmetry_multiplicity
 _atom_site_fract_x
 _atom_site_fract_y
 _atom_site_fract_z
 _atom_site_occupancy
  In  In0  1  -0.01633656  0.17786191  0.14037035  1
  In  In1  1  -0.01211884  0.17179110  0.61625734  1
  In  In2  1  0.00404138  0.50113919  0.12296393  1
  In  In3  1  0.00650323  0.49915487  0.62481226  1
  In  In4  1  0.01318236  0.82125888  0.13398072  1
  In  In5  1  -0.00053710  0.82026783  0.62367045  1
  In  In6  1  0.34612189  0.16113062  0.14514424  1
  In  In7  1  0.34919468  0.15938863  0.64029897  1
  In  In8  1  0.32419744  0.50965560  0.12818279  1
  In  In9  1  0.34090440  0.49390528  0.62957637  1
  In  In10  1  0.32955320  0.83184542  0.12128971  1
  In  In11  1  0.33426444  0.83165788  0.62124012  1
  In  In12  1  0.67169271  0.15342537  0.13604122  1
  In  In13  1  0.66470643  0.15166916  0.61881779  1
  In  In14  1  0.68120137  0.49799685  0.12574453  1
  In  In15  1  0.66055581  0.51351065  0.62131727  1
  In  In16  1  0.65450125  0.83766823  0.13199224  1
  In  In17  1  0.66763335  0.84478051  0.62291906  1
  In  In18  1  0.16330112  -0.00867104  0.36942716  1
  In  In19  1  0.17233261  -0.01322008  0.87929370  1
  In  In20  1  0.16243728  0.33315915  0.36650636  1
  In  In21  1  0.17972339  0.33849192  0.87735350  1
  In  In22  1  0.17646656  0.67695641  0.36843197  1
  In  In23  1  0.16753535  0.66734605  0.87470765  1
  In  In24  1  0.48910374  -0.01033009  0.36516876  1
  In  In25  1  0.48791334  -0.00909996  0.86535328  1
  In  In26  1  0.50621642  0.35019293  0.37847900  1
  In  In27  1  0.49321094  0.33694141  0.87114871  1
  In  In28  1  0.50081694  0.67064168  0.37989098  1
  In  In29  1  0.50215582  0.68431523  0.87646830  1
  In  In30  1  0.83548857  0.01533075  0.35847637  1
  In  In31  1  0.83358110  0.01190494  0.88052922  1
  In  In32  1  0.83539795  0.32016393  0.37626586  1
  In  In33  1  0.83474088  0.33251526  0.88051263  1
  In  In34  1  0.83166596  0.66693024  0.36357899  1
  In  In35  1  0.84137033  0.65065136  0.87492396  1
  In  In36  1  -0.00898531  0.16675171  0.36603717  1
  In  In37  1  -0.01098851  0.15710585  0.88291083  1
  In  In38  1  -0.00449105  0.50028942  0.36510484  1
  In  In39  1  -0.01005116  0.51397427  0.88126674  1
  In  In40  1  0.00683185  0.84067676  0.36654665  1
  In  In41  1  0.01896695  0.83052099  0.88021012  1
  In  In42  1  0.33932069  0.16277574  0.36045409  1
  In  In43  1  0.33914509  0.16764934  0.86495646  1
  In  In44  1  0.33549804  0.51121432  0.37004114  1
  In  In45  1  0.32127131  0.49496325  0.87331654  1
  In  In46  1  0.33477036  0.83028903  0.37644888  1
  In  In47  1  0.33396924  0.83153202  0.87379703  1
  In  In48  1  0.68069404  0.17101973  0.36889152  1
  In  In49  1  0.67345843  0.16661107  0.87553711  1
  In  In50  1  0.65315487  0.50314786  0.38229732  1
  In  In51  1  0.67676798  0.50400806  0.87739981  1
  In  In52  1  0.65268114  0.82403059  0.36777626  1
  In  In53  1  0.65103662  0.83150638  0.87812269  1
  In  In54  1  0.17623510  -0.00750041  0.12993388  1
  In  In55  1  0.18282618  0.00154301  0.62228712  1
  In  In56  1  0.16038399  0.33812795  0.12906082  1
  In  In57  1  0.17297185  0.34130928  0.62347128  1
  In  In58  1  0.16794094  0.66654012  0.12116041  1
  In  In59  1  0.16234579  0.67584717  0.62718285  1
  In  In60  1  0.50630064  -0.00868606  0.13388795  1
  In  In61  1  0.51151189  -0.00534104  0.62686860  1
  In  In62  1  0.49730780  0.32011196  0.13374929  1
  In  In63  1  0.48808712  0.32738344  0.62117224  1
  In  In64  1  0.48546425  0.67597479  0.13044525  1
  In  In65  1  0.49268993  0.65393639  0.61194187  1
  In  In66  1  0.82601925  0.01026830  0.13715062  1
  In  In67  1  0.81907971  -0.00193416  0.62313612  1
  In  In68  1  0.84055839  0.34367299  0.12009654  1
  In  In69  1  0.84394652  0.32454677  0.61571537  1
  In  In70  1  0.84534739  0.65508006  0.13335315  1
  In  In71  1  0.83515906  0.67388992  0.63038495  1
  In  In72  1  0.82513810  0.49709649  0.49242128  1
  In  In73  1  0.50581118  0.16808857  0.49555381  1
  In  In74  1  0.50440076  0.16074092  0.00839301  1
  In  In75  1  0.82724096  0.83548749  0.49683026  1
  In  In76  1  0.66524817  0.33805366  0.25807195  1
  In  In77  1  0.66494260  0.67120462  0.75026653  1
  In  In78  1  0.83360422  0.83330489  0.01170306  1
  In  In79  1  0.16449229  0.16765149  0.00668100  1
  In  In80  1  0.00581792  0.33749515  0.74450453  1
  In  In81  1  0.66251870  0.33113931  0.75234285  1
  In  In82  1  0.16379517  0.49931905  0.50430418  1
  In  In83  1  0.00572251  -0.00452161  0.75781242  1
  In  In84  1  0.50168639  0.50047125  -0.00319334  1
  In  In85  1  0.16715934  0.16286008  0.49283801  1
  Cu  Cu86  1  0.33169730  0.33343534  0.00497002  1
  Cu  Cu87  1  0.16791095  0.50837164  0.74860309  1
  Cu  Cu88  1  0.49453772  0.83420134  0.74677317  1
  Cu  Cu89  1  0.16364654  0.16309704  0.24950544  1
  Cu  Cu90  1  0.49716314  0.50685892  0.25538452  1
  Cu  Cu91  1  0.17454840  0.16767805  0.75055500  1
  Cu  Cu92  1  0.82890793  0.16105241  0.75063110  1
  Cu  Cu93  1  0.33325361  -0.00943726  -0.00150159  1
  Cu  Cu94  1  0.66698805  -0.00317397  0.49451938  1
  Cu  Cu95  1  -0.00190533  -0.00151013  0.48840086  1
  Cu  Cu96  1  0.17439844  0.83217713  0.75137344  1
  Cu  Cu97  1  0.00083963  0.66587827  0.49774521  1
  Cu  Cu98  1  0.00404616  0.66582931  0.00475009  1
  Cu  Cu99  1  0.82786124  0.83751944  0.24730769  1
  Cu  Cu100  1  0.33902711  -0.01044500  0.49781713  1
  Cu  Cu101  1  0.33484341  0.66931416  0.49526485  1
  Cu  Cu102  1  0.00079442  0.33631734  0.00611494  1
  Cu  Cu103  1  0.66458960  -0.00041487  0.00826068  1
  Cu  Cu104  1  0.49110841  0.50373294  0.74901214  1
  Cu  Cu105  1  0.83765130  0.50167118  0.24779604  1
  Cu  Cu106  1  0.83415498  0.83423987  0.74898145  1
  Cu  Cu107  1  -0.00118801  0.00116377  0.00814271  1
  Cu  Cu108  1  0.49456280  0.82618821  0.25157941  1
  Cu  Cu109  1  0.32910252  0.67098196  0.00089691  1
  Cu  Cu110  1  0.16440705  0.50250700  0.24611961  1
  Cu  Cu111  1  0.68130771  0.32807054  0.00067207  1
  Cu  Cu112  1  0.66799159  0.66535555  0.00083885  1
  Cu  Cu113  1  0.33013511  0.33270597  0.50299238  1
  Cu  Cu114  1  0.17292673  0.82916161  0.24895001  1
  Se  Se115  1  0.07686106  0.08228968  0.07011293  1
  Se  Se116  1  0.07644125  0.07330931  0.55675107  1
  Se  Se117  1  0.08890858  0.41908166  0.05313732  1
  Se  Se118  1  0.06996964  0.39967421  0.55353094  1
  Se  Se119  1  0.08685274  0.75408017  0.05229431  1
  Se  Se120  1  0.08412582  0.75029003  0.54994916  1
  Se  Se121  1  0.40616202  0.07369488  0.06207415  1
  Se  Se122  1  0.41332194  0.07859192  0.55622865  1
  Se  Se123  1  0.41780418  0.41131491  0.06243322  1
  Se  Se124  1  0.41550296  0.41822535  0.55196135  1
  Se  Se125  1  0.41675014  0.75229701  0.05107404  1
  Se  Se126  1  0.41787095  0.75199003  0.55053147  1
  Se  Se127  1  0.74962671  0.08293238  0.05808466  1
  Se  Se128  1  0.75196395  0.08015735  0.54643071  1
  Se  Se129  1  0.75629500  0.42275430  0.04912849  1
  Se  Se130  1  0.74351175  0.41239100  0.56205316  1
  Se  Se131  1  0.74369431  0.74089600  0.06831071  1
  Se  Se132  1  0.74241822  0.74216530  0.55863871  1
  Se  Se133  1  0.26140204  0.24798423  0.06775296  1
  Se  Se134  1  0.25765664  0.24481730  0.56185417  1
  Se  Se135  1  0.24842205  0.58173514  0.05010669  1
  Se  Se136  1  0.25707232  0.58951488  0.56016784  1
  Se  Se137  1  0.24412616  0.91323847  0.05107014  1
  Se  Se138  1  0.24871352  0.91271364  0.55016430  1
  Se  Se139  1  0.59690713  0.25643363  0.06208546  1
  Se  Se140  1  0.59234900  0.25760130  0.55802422  1
  Se  Se141  1  0.58609752  0.58668568  0.06286477  1
  Se  Se142  1  0.58464752  0.58281994  0.54477950  1
  Se  Se143  1  0.57845481  0.91468927  0.05532745  1
  Se  Se144  1  0.58323981  0.91624057  0.54900092  1
  Se  Se145  1  0.91835550  0.24897970  0.05571346  1
  Se  Se146  1  0.90877581  0.24000543  0.54115386  1
  Se  Se147  1  0.91680352  0.58189415  0.05350142  1
  Se  Se148  1  0.91876024  0.58806813  0.55686941  1
  Se  Se149  1  0.92268922  0.92164863  0.07184753  1
  Se  Se150  1  0.92276551  0.92268852  0.55811933  1
  Se  Se151  1  0.07603342  0.25446926  0.43870216  1
  Se  Se152  1  0.07692103  0.25681252  0.94049325  1
  Se  Se153  1  0.08057227  0.58713037  0.43712550  1
  Se  Se154  1  0.08580698  0.58493718  0.94630473  1
  Se  Se155  1  0.08547288  0.91255760  0.44440003  1
  Se  Se156  1  0.08263895  0.92208050  0.95304607  1
  Se  Se157  1  0.40719586  0.25427198  0.43842574  1
  Se  Se158  1  0.41301734  0.25262715  0.94639550  1
  Se  Se159  1  0.41664334  0.58106337  0.44591250  1
  Se  Se160  1  0.41038209  0.59134196  0.93884341  1
  Se  Se161  1  0.42436531  0.90969553  0.44459474  1
  Se  Se162  1  0.41974450  0.91256932  0.94397021  1
  Se  Se163  1  0.74140897  0.25573504  0.44530557  1
  Se  Se164  1  0.75868616  0.24075466  0.94682683  1
  Se  Se165  1  0.74341566  0.60070541  0.44089815  1
  Se  Se166  1  0.75390001  0.58402171  0.94984968  1
  Se  Se167  1  0.74716120  0.92300787  0.42918008  1
  Se  Se168  1  0.74459627  0.91901909  0.94544781  1
  Se  Se169  1  0.26316545  0.07443966  0.43737993  1
  Se  Se170  1  0.25872604  0.08321056  0.94264681  1
  Se  Se171  1  0.25173545  0.41166925  0.44062276  1
  Se  Se172  1  0.25033979  0.41927181  0.95339142  1
  Se  Se173  1  0.24681343  0.75224444  0.44728992  1
  Se  Se174  1  0.24745179  0.75364651  0.94366987  1
  Se  Se175  1  0.58712687  0.07532136  0.43195637  1
  Se  Se176  1  0.58635158  0.07398741  0.94064434  1
  Se  Se177  1  0.58738060  0.41500824  0.45463345  1
  Se  Se178  1  0.59529570  0.40385169  0.94084561  1
  Se  Se179  1  0.58052337  0.75711521  0.44818808  1
  Se  Se180  1  0.58157124  0.75164440  0.95515540  1
  Se  Se181  1  0.91426924  0.08237001  0.43869988  1
  Se  Se182  1  0.91164773  0.08322084  0.95839785  1
  Se  Se183  1  0.92598291  0.41232968  0.44056240  1
  Se  Se184  1  0.91903468  0.41609279  0.94616424  1
  Se  Se185  1  0.92050268  0.74664156  0.43785947  1
  Se  Se186  1  0.92109614  0.74715670  0.94464415  1
  Se  Se187  1  0.24697488  0.24832530  0.30189177  1
  Se  Se188  1  0.25165085  0.25578909  0.80391604  1
  Se  Se189  1  0.24863313  0.58538873  0.29994751  1
  Se  Se190  1  0.25275233  0.58791359  0.80391911  1
  Se  Se191  1  0.25419988  0.91291455  0.30467048  1
  Se  Se192  1  0.25449153  0.91931062  0.80355196  1
  Se  Se193  1  0.57134681  0.24606963  0.31181361  1
  Se  Se194  1  0.57240218  0.23861146  0.80932255  1
  Se  Se195  1  0.58318567  0.58682887  0.30810653  1
  Se  Se196  1  0.57550174  0.57680492  0.81159339  1
  Se  Se197  1  0.58108470  0.91449076  0.29763909  1
  Se  Se198  1  0.58324826  0.91249180  0.80147131  1
  Se  Se199  1  0.91547430  0.25669717  0.29852792  1
  Se  Se200  1  0.91479204  0.24296586  0.80533546  1
  Se  Se201  1  0.92158966  0.59030722  0.29688675  1
  Se  Se202  1  0.92180467  0.58362285  0.79909936  1
  Se  Se203  1  0.91551850  0.91688713  0.30064100  1
  Se  Se204  1  0.91161541  0.90777062  0.81723271  1
  Se  Se205  1  0.08200860  0.08098845  0.30560425  1
  Se  Se206  1  0.09393515  0.09321490  0.81488604  1
  Se  Se207  1  0.08122493  0.41803940  0.29899862  1
  Se  Se208  1  0.08978034  0.42487010  0.81040640  1
  Se  Se209  1  0.08327382  0.74855039  0.30056742  1
  Se  Se210  1  0.08590375  0.75089929  0.80278940  1
  Se  Se211  1  0.41652965  0.07649793  0.29431805  1
  Se  Se212  1  0.41821517  0.08374825  0.79895674  1
  Se  Se213  1  0.41661712  0.41905172  0.30694775  1
  Se  Se214  1  0.41124724  0.41873579  0.80429424  1
  Se  Se215  1  0.41295358  0.74318233  0.30713908  1
  Se  Se216  1  0.41569148  0.74874074  0.80193305  1
  Se  Se217  1  0.74513648  0.08970952  0.29129820  1
  Se  Se218  1  0.74788462  0.07793481  0.80486892  1
  Se  Se219  1  0.75756179  0.42990107  0.31526894  1
  Se  Se220  1  0.75996606  0.42148141  0.80590034  1
  Se  Se221  1  0.74595914  0.75138426  0.29955125  1
  Se  Se222  1  0.75668961  0.75579361  0.81528616  1
  Se  Se223  1  0.25062001  0.07795363  0.20183298  1
  Se  Se224  1  0.25328309  0.07821686  0.69983560  1
  Se  Se225  1  0.24981496  0.41772680  0.19542115  1
  Se  Se226  1  0.24862086  0.41864148  0.69738641  1
  Se  Se227  1  0.25254735  0.74549530  0.19193993  1
  Se  Se228  1  0.25428666  0.74950680  0.69422824  1
  Se  Se229  1  0.55464499  0.10786993  0.19065502  1
  Se  Se230  1  0.57870887  0.09111785  0.69339538  1
  Se  Se231  1  0.57651858  0.42733132  0.19208679  1
  Se  Se232  1  0.57579962  0.42517951  0.69077543  1
  Se  Se233  1  0.58116016  0.74377877  0.19860687  1
  Se  Se234  1  0.57579878  0.75425922  0.68589426  1
  Se  Se235  1  0.92136172  0.07673601  0.20441654  1
  Se  Se236  1  0.91541689  0.08241524  0.69303113  1
  Se  Se237  1  0.92069149  0.41903206  0.19397433  1
  Se  Se238  1  0.90675645  0.42197837  0.68916816  1
  Se  Se239  1  0.91472225  0.75202542  0.19852836  1
  Se  Se240  1  0.92006704  0.74999605  0.70100963  1
  Se  Se241  1  0.08361788  0.25283634  0.19936603  1
  Se  Se242  1  0.09133967  0.23765082  0.68635608  1
  Se  Se243  1  0.08284931  0.58752596  0.19191834  1
  Se  Se244  1  0.08189269  0.58565799  0.69319609  1
  Se  Se245  1  0.08789387  0.91532682  0.19914816  1
  Se  Se246  1  0.09066710  0.91096314  0.69001327  1
  Se  Se247  1  0.40686315  0.26486155  0.20801663  1
  Se  Se248  1  0.41429423  0.26195658  0.70098149  1
  Se  Se249  1  0.41198175  0.58452671  0.19807859  1
  Se  Se250  1  0.41456178  0.59090810  0.69389721  1
  Se  Se251  1  0.41364032  0.90907516  0.19411189  1
  Se  Se252  1  0.41563430  0.91804450  0.68979991  1
  Se  Se253  1  0.75380259  0.25707921  0.19069559  1
  Se  Se254  1  0.75537823  0.24450442  0.68927015  1
  Se  Se255  1  0.74779788  0.58432912  0.20006483  1
  Se  Se256  1  0.75600823  0.57667340  0.69533087  1
  Se  Se257  1  0.74031819  0.92054884  0.19808285  1
  Se  Se258  1  0.74866453  0.91702250  0.69906664  1
