# generated using pymatgen
data_In86Cu29Se144
_symmetry_space_group_name_H-M   'P 1'
_cell_length_a   17.58482248
_cell_length_b   17.59169445
_cell_length_c   23.45455614
_cell_angle_alpha   90.00617931
_cell_angle_beta   90.00342925
_cell_angle_gamma   90.01116424
_symmetry_Int_Tables_number   1
_chemical_formula_structural   In86Cu29Se144
_chemical_formula_sum   'In86 Cu29 Se144'
_cell_volume   7255.59225818
_cell_formula_units_Z   1
loop_
 _symmetry_equiv_pos_site_id
 _symmetry_equiv_pos_as_xyz
  1  'x, y, z'
loop_
 _atom_site_type_symbol
 _atom_site_label
 _atom_site_symmetry_multiplicity
 _atom_site_fract_x
 _atom_site_fract_y
 _atom_site_fract_z
 _atom_site_occupancy
  In  In0  1  0.00035130  0.18063456  0.12374814  1
  In  In1  1  -0.00136488  0.18551928  0.63334017  1
  In  In2  1  -0.02861768  0.49283822  0.11252439  1
  In  In3  1  0.01033411  0.49616780  0.63409729  1
  In  In4  1  -0.00735516  0.81950977  0.10853559  1
  In  In5  1  -0.00976897  0.82348327  0.62428068  1
  In  In6  1  0.34143845  0.15540664  0.13145011  1
  In  In7  1  0.33891866  0.17688031  0.63352464  1
  In  In8  1  0.33389894  0.48351104  0.12504328  1
  In  In9  1  0.32845641  0.49706217  0.61980419  1
  In  In10  1  0.34419218  0.84079880  0.11817132  1
  In  In11  1  0.33481839  0.83356328  0.61487243  1
  In  In12  1  0.66558600  0.16886486  0.11831274  1
  In  In13  1  0.66172474  0.14832581  0.63413529  1
  In  In14  1  0.65153132  0.47383467  0.09676587  1
  In  In15  1  0.67048235  0.51212484  0.62646315  1
  In  In16  1  0.67651592  0.83865040  0.12191247  1
  In  In17  1  0.66447781  0.83380957  0.62766095  1
  In  In18  1  0.16997800  -0.01404643  0.37599203  1
  In  In19  1  0.15697279  -0.00088666  0.87595949  1
  In  In20  1  0.16874235  0.33557751  0.37392724  1
  In  In21  1  0.16651815  0.32890128  0.85929781  1
  In  In22  1  0.15969126  0.66572605  0.38528323  1
  In  In23  1  0.16537487  0.68048120  0.87360697  1
  In  In24  1  0.49557107  0.00106739  0.37038546  1
  In  In25  1  0.51427889  -0.01290864  0.88233917  1
  In  In26  1  0.50228903  0.33425219  0.36837326  1
  In  In27  1  0.50348807  0.33945826  0.88406468  1
  In  In28  1  0.49985811  0.66592234  0.38156910  1
  In  In29  1  0.51031127  0.65872893  0.88065911  1
  In  In30  1  0.82216791  0.00038917  0.37500668  1
  In  In31  1  0.81984051  0.01133308  0.88248789  1
  In  In32  1  0.82737905  0.33576854  0.36441467  1
  In  In33  1  0.83113600  0.32305680  0.89195143  1
  In  In34  1  0.84429665  0.67094191  0.37448668  1
  In  In35  1  0.83498822  0.66932075  0.87517768  1
  In  In36  1  -0.01165722  0.17556167  0.37330363  1
  In  In37  1  -0.01842124  0.16942478  0.86894284  1
  In  In38  1  0.00398668  0.50085677  0.37476225  1
  In  In39  1  -0.00822628  0.49070891  0.86991820  1
  In  In40  1  0.00025242  0.82798908  0.38548653  1
  In  In41  1  0.00152686  0.82491249  0.88254123  1
  In  In42  1  0.34051615  0.17148516  0.36543592  1
  In  In43  1  0.34051996  0.18409825  0.87018808  1
  In  In44  1  0.34044958  0.48887014  0.37915661  1
  In  In45  1  0.34735298  0.49185999  0.87778036  1
  In  In46  1  0.32731848  0.83688822  0.37665065  1
  In  In47  1  0.33452745  0.84172330  0.88246375  1
  In  In48  1  0.65965387  0.16198379  0.36582924  1
  In  In49  1  0.67715756  0.15965770  0.88572745  1
  In  In50  1  0.66395725  0.48824384  0.37398647  1
  In  In51  1  0.65970520  0.50270250  0.88176822  1
  In  In52  1  0.65227173  0.84982101  0.38665080  1
  In  In53  1  0.67052086  0.83368812  0.87520120  1
  In  In54  1  0.17817908  -0.00268529  0.12646651  1
  In  In55  1  0.17742440  -0.00234428  0.62084927  1
  In  In56  1  0.16921233  0.33231687  0.13554463  1
  In  In57  1  0.14957805  0.35530710  0.63870746  1
  In  In58  1  0.15191004  0.66986579  0.12181772  1
  In  In59  1  0.16221730  0.65852362  0.62082922  1
  In  In60  1  0.50293378  0.00261008  0.12306044  1
  In  In61  1  0.51671394  -0.00458850  0.62769845  1
  In  In62  1  0.50530211  0.32575634  0.11534275  1
  In  In63  1  0.48736556  0.32776870  0.62739231  1
  In  In64  1  0.50690270  0.66793927  0.11684854  1
  In  In65  1  0.50889883  0.67502231  0.62057971  1
  In  In66  1  0.82270263  -0.00882831  0.12076670  1
  In  In67  1  0.83184770  -0.01315238  0.62667674  1
  In  In68  1  0.83126471  0.33273908  0.11836889  1
  In  In69  1  0.83512024  0.34495769  0.62834002  1
  In  In70  1  0.83073439  0.65484992  0.11072895  1
  In  In71  1  0.82134066  0.67524599  0.63832854  1
  In  In72  1  -0.00713176  0.00427733  0.75360699  1
  In  In73  1  0.33151436  0.66391312  0.25291669  1
  In  In74  1  0.16597199  0.16018167  -0.00119054  1
  In  In75  1  0.67314764  0.66622851  0.24535946  1
  In  In76  1  0.00458875  0.00268361  0.24881805  1
  In  In77  1  0.16915887  0.50502114  -0.00017670  1
  In  In78  1  0.49925972  0.16078697  0.50112964  1
  In  In79  1  0.33636982  0.66257666  0.74984327  1
  In  In80  1  -0.00099696  0.65978797  0.24388166  1
  In  In81  1  0.16512861  0.16798314  0.50117191  1
  In  In82  1  0.33856447  0.00555725  0.74495501  1
  In  In83  1  0.83084349  0.16424752  0.50970011  1
  In  In84  1  0.83223426  0.50690406  0.49780323  1
  In  In85  1  0.67137236  0.32827160  0.75680680  1
  Cu  Cu86  1  0.50255468  0.49429139  0.75480401  1
  Cu  Cu87  1  -0.00116854  0.33190404  -0.00269946  1
  Cu  Cu88  1  0.82797227  0.83499727  0.75349676  1
  Cu  Cu89  1  0.16450754  0.49190647  0.25261586  1
  Cu  Cu90  1  0.50436019  0.49229969  0.24356499  1
  Cu  Cu91  1  0.66786886  0.67143395  -0.00574165  1
  Cu  Cu92  1  -0.00449781  -0.00358136  -0.00501043  1
  Cu  Cu93  1  0.17002957  0.17094290  0.25142006  1
  Cu  Cu94  1  0.66455506  -0.00299230  0.00307269  1
  Cu  Cu95  1  0.16184520  0.83284005  0.74833928  1
  Cu  Cu96  1  0.66595220  0.67285797  0.50622928  1
  Cu  Cu97  1  0.33334701  0.66281320  0.49794706  1
  Cu  Cu98  1  0.50427007  0.17021859  0.24297949  1
  Cu  Cu99  1  0.49929246  0.84701098  0.24863708  1
  Cu  Cu100  1  0.17019470  0.83628332  0.24925486  1
  Cu  Cu101  1  0.00236261  -0.00491087  0.50386115  1
  Cu  Cu102  1  0.33619631  -0.00457012  0.49728022  1
  Cu  Cu103  1  -0.00270929  0.66662506  0.50810222  1
  Cu  Cu104  1  0.33551512  0.32909337  0.00120814  1
  Cu  Cu105  1  0.65965058  0.32805962  0.49409135  1
  Cu  Cu106  1  0.16741501  0.50290118  0.74717681  1
  Cu  Cu107  1  0.83023532  0.83736275  0.24807196  1
  Cu  Cu108  1  0.33728081  0.66876818  -0.00413219  1
  Cu  Cu109  1  0.34104573  0.00341666  0.00268216  1
  Cu  Cu110  1  0.32680748  0.34079159  0.50275616  1
  Cu  Cu111  1  0.51010034  0.82641285  0.75337497  1
  Cu  Cu112  1  0.82781602  0.16990502  0.24523806  1
  Cu  Cu113  1  0.82432394  0.48645533  0.24019125  1
  Cu  Cu114  1  0.83637010  0.50359094  0.75360571  1
  Se  Se115  1  0.07434140  0.07281093  0.06127772  1
  Se  Se116  1  0.07240307  0.08140521  0.56483387  1
  Se  Se117  1  0.08172596  0.40825931  0.05908431  1
  Se  Se118  1  0.08356797  0.42336391  0.55623960  1
  Se  Se119  1  0.09681307  0.75862672  0.04646380  1
  Se  Se120  1  0.08443742  0.75194573  0.55666330  1
  Se  Se121  1  0.42253003  0.08988968  0.05346081  1
  Se  Se122  1  0.40729844  0.07485221  0.56354628  1
  Se  Se123  1  0.41816727  0.41569295  0.05145295  1
  Se  Se124  1  0.41927429  0.41596509  0.55481806  1
  Se  Se125  1  0.42033636  0.75054241  0.05172956  1
  Se  Se126  1  0.41708147  0.74592913  0.55137678  1
  Se  Se127  1  0.75107572  0.08271662  0.05242895  1
  Se  Se128  1  0.73743911  0.06748109  0.55717900  1
  Se  Se129  1  0.78554924  0.44845594  0.05696778  1
  Se  Se130  1  0.73965215  0.41076847  0.55405383  1
  Se  Se131  1  0.75062096  0.75051582  0.05217344  1
  Se  Se132  1  0.75248917  0.75168660  0.55935116  1
  Se  Se133  1  0.25268117  0.25115408  0.06117967  1
  Se  Se134  1  0.25253685  0.25670934  0.56317400  1
  Se  Se135  1  0.26127214  0.59192909  0.06285167  1
  Se  Se136  1  0.24834299  0.58163596  0.55173574  1
  Se  Se137  1  0.25305167  0.91928916  0.05158240  1
  Se  Se138  1  0.24754083  0.91364434  0.54742818  1
  Se  Se139  1  0.60725607  0.26725614  0.04586264  1
  Se  Se140  1  0.59093971  0.24970025  0.56232967  1
  Se  Se141  1  0.58331773  0.58568932  0.04547320  1
  Se  Se142  1  0.58462852  0.58173127  0.55345593  1
  Se  Se143  1  0.58214899  0.91258218  0.05659270  1
  Se  Se144  1  0.57496373  0.90432023  0.55580899  1
  Se  Se145  1  0.91526272  0.24722364  0.04929530  1
  Se  Se146  1  0.92250848  0.26538536  0.55531328  1
  Se  Se147  1  0.95303438  0.61575851  0.05658419  1
  Se  Se148  1  0.91518663  0.58819356  0.56853646  1
  Se  Se149  1  0.91182426  0.91618184  0.05168093  1
  Se  Se150  1  0.91571877  0.91300869  0.55483297  1
  Se  Se151  1  0.07309499  0.25734991  0.44359476  1
  Se  Se152  1  0.08140729  0.25398266  0.93784014  1
  Se  Se153  1  0.07466354  0.58185648  0.45061227  1
  Se  Se154  1  0.08041626  0.58537152  0.93489551  1
  Se  Se155  1  0.08622741  0.91434750  0.44886049  1
  Se  Se156  1  0.08490983  0.91525852  0.94723363  1
  Se  Se157  1  0.40880068  0.25716025  0.44492303  1
  Se  Se158  1  0.42075749  0.24796486  0.94906565  1
  Se  Se159  1  0.41754153  0.57896168  0.44566934  1
  Se  Se160  1  0.41899575  0.58062930  0.94695546  1
  Se  Se161  1  0.41933529  0.91571588  0.44140499  1
  Se  Se162  1  0.42240150  0.91472880  0.95185012  1
  Se  Se163  1  0.74481629  0.24945916  0.43870626  1
  Se  Se164  1  0.72612775  0.26492882  0.95665019  1
  Se  Se165  1  0.73859898  0.59500652  0.43715122  1
  Se  Se166  1  0.75136906  0.58509069  0.94419714  1
  Se  Se167  1  0.76550434  0.90330255  0.44366560  1
  Se  Se168  1  0.74914359  0.91593898  0.94805857  1
  Se  Se169  1  0.25914152  0.08177114  0.43915397  1
  Se  Se170  1  0.26066081  0.07746697  0.93707380  1
  Se  Se171  1  0.24384600  0.42016182  0.44614537  1
  Se  Se172  1  0.25060935  0.40467107  0.94078517  1
  Se  Se173  1  0.25080158  0.74895925  0.44536605  1
  Se  Se174  1  0.25185607  0.75159798  0.94528609  1
  Se  Se175  1  0.59223619  0.07369100  0.44278620  1
  Se  Se176  1  0.58302413  0.08225672  0.95036600  1
  Se  Se177  1  0.57697813  0.41443075  0.44441450  1
  Se  Se178  1  0.58787044  0.41689637  0.95335961  1
  Se  Se179  1  0.58066569  0.75069190  0.44866674  1
  Se  Se180  1  0.58154804  0.75580041  0.94469521  1
  Se  Se181  1  0.92328785  0.07663896  0.44416528  1
  Se  Se182  1  0.91664250  0.08733891  0.94653724  1
  Se  Se183  1  0.91524253  0.41028419  0.43937901  1
  Se  Se184  1  0.91621902  0.41957992  0.94854110  1
  Se  Se185  1  0.91384879  0.74737022  0.45248397  1
  Se  Se186  1  0.90586683  0.75728170  0.94724808  1
  Se  Se187  1  0.25262248  0.25599521  0.30377368  1
  Se  Se188  1  0.25524512  0.24918131  0.79676627  1
  Se  Se189  1  0.23861539  0.57708370  0.31269681  1
  Se  Se190  1  0.24756237  0.57549274  0.81367528  1
  Se  Se191  1  0.25467049  0.91892554  0.30058074  1
  Se  Se192  1  0.24414866  0.91339916  0.80532997  1
  Se  Se193  1  0.58529782  0.25304382  0.29978609  1
  Se  Se194  1  0.58218786  0.24326264  0.81830479  1
  Se  Se195  1  0.57680596  0.57904014  0.30500656  1
  Se  Se196  1  0.58469554  0.58100051  0.80477385  1
  Se  Se197  1  0.58727746  0.92265881  0.30375174  1
  Se  Se198  1  0.58945071  0.91681702  0.80300805  1
  Se  Se199  1  0.91303374  0.25178668  0.29856209  1
  Se  Se200  1  0.90637714  0.26378018  0.80833623  1
  Se  Se201  1  0.90235558  0.56919396  0.30162181  1
  Se  Se202  1  0.92021721  0.58797593  0.80514640  1
  Se  Se203  1  0.91843896  0.90842671  0.30867962  1
  Se  Se204  1  0.90799655  0.91379610  0.81576854  1
  Se  Se205  1  0.09164282  0.09137421  0.31439008  1
  Se  Se206  1  0.08870898  0.09584637  0.80797620  1
  Se  Se207  1  0.07735925  0.41248646  0.30563228  1
  Se  Se208  1  0.08227798  0.41923052  0.79943087  1
  Se  Se209  1  0.08765097  0.75385021  0.30625508  1
  Se  Se210  1  0.07845744  0.75324620  0.80264197  1
  Se  Se211  1  0.42098346  0.08684334  0.29876669  1
  Se  Se212  1  0.42329886  0.07838505  0.81751007  1
  Se  Se213  1  0.41728430  0.41714626  0.30096054  1
  Se  Se214  1  0.42048159  0.40877794  0.80530702  1
  Se  Se215  1  0.42589933  0.75744127  0.30678112  1
  Se  Se216  1  0.42107338  0.75458419  0.81240820  1
  Se  Se217  1  0.75136572  0.08325794  0.30115170  1
  Se  Se218  1  0.75594399  0.09518323  0.80636418  1
  Se  Se219  1  0.73741497  0.41185967  0.29720880  1
  Se  Se220  1  0.75694934  0.42357735  0.81483264  1
  Se  Se221  1  0.75371771  0.75661982  0.31126314  1
  Se  Se222  1  0.74705522  0.74698770  0.80501400  1
  Se  Se223  1  0.24871808  0.08251071  0.19926332  1
  Se  Se224  1  0.23800311  0.09359478  0.69325010  1
  Se  Se225  1  0.25553746  0.41365727  0.20236386  1
  Se  Se226  1  0.25709512  0.42080434  0.69832297  1
  Se  Se227  1  0.24609441  0.75258209  0.18842559  1
  Se  Se228  1  0.24805092  0.75605462  0.69043053  1
  Se  Se229  1  0.58736379  0.08609599  0.19040551  1
  Se  Se230  1  0.55985071  0.09469069  0.70066074  1
  Se  Se231  1  0.58551964  0.41412895  0.18500698  1
  Se  Se232  1  0.58359102  0.41779518  0.69068196  1
  Se  Se233  1  0.57669052  0.75902015  0.19241032  1
  Se  Se234  1  0.58968941  0.74269723  0.69792946  1
  Se  Se235  1  0.91170269  0.08796831  0.18801988  1
  Se  Se236  1  0.90590160  0.09128090  0.68936554  1
  Se  Se237  1  0.91874610  0.40876644  0.19291616  1
  Se  Se238  1  0.91788717  0.41887842  0.70001004  1
  Se  Se239  1  0.90497820  0.75238353  0.18927505  1
  Se  Se240  1  0.91549713  0.75215734  0.70298489  1
  Se  Se241  1  0.08142224  0.24987979  0.20015865  1
  Se  Se242  1  0.08959638  0.25134567  0.70179541  1
  Se  Se243  1  0.08690465  0.56488902  0.18679636  1
  Se  Se244  1  0.08360728  0.59193656  0.70016697  1
  Se  Se245  1  0.08297910  0.90519563  0.18624985  1
  Se  Se246  1  0.08501483  0.91705410  0.68944532  1
  Se  Se247  1  0.42061029  0.25312614  0.18942792  1
  Se  Se248  1  0.42993552  0.24119121  0.70372557  1
  Se  Se249  1  0.42400268  0.57919159  0.18898285  1
  Se  Se250  1  0.42739033  0.57514157  0.68979988  1
  Se  Se251  1  0.41367910  0.92427657  0.19327041  1
  Se  Se252  1  0.42333226  0.90126846  0.69324059  1
  Se  Se253  1  0.74843119  0.25233192  0.18859603  1
  Se  Se254  1  0.75619144  0.24337717  0.68751706  1
  Se  Se255  1  0.74776652  0.57094669  0.18095212  1
  Se  Se256  1  0.74578125  0.58308036  0.70447451  1
  Se  Se257  1  0.74478018  0.92093210  0.19933437  1
  Se  Se258  1  0.74520230  0.91790283  0.69946425  1
