# generated using pymatgen
data_In86Cu29Se144
_symmetry_space_group_name_H-M   'P 1'
_cell_length_a   17.57593703
_cell_length_b   17.56992131
_cell_length_c   23.43984816
_cell_angle_alpha   90.03229633
_cell_angle_beta   90.02728936
_cell_angle_gamma   89.98013744
_symmetry_Int_Tables_number   1
_chemical_formula_structural   In86Cu29Se144
_chemical_formula_sum   'In86 Cu29 Se144'
_cell_volume   7238.40625267
_cell_formula_units_Z   1
loop_
 _symmetry_equiv_pos_site_id
 _symmetry_equiv_pos_as_xyz
  1  'x, y, z'
loop_
 _atom_site_type_symbol
 _atom_site_label
 _atom_site_symmetry_multiplicity
 _atom_site_fract_x
 _atom_site_fract_y
 _atom_site_fract_z
 _atom_site_occupancy
  In  In0  1  0.00658793  0.19045758  0.12228164  1
  In  In1  1  0.01900355  0.16631297  0.62419187  1
  In  In2  1  -0.01431683  0.47974933  0.11224145  1
  In  In3  1  0.00010306  0.49690172  0.62902672  1
  In  In4  1  0.00433491  0.82487424  0.11666163  1
  In  In5  1  -0.01231923  0.82837514  0.63288013  1
  In  In6  1  0.33846854  0.16429332  0.12818588  1
  In  In7  1  0.34722215  0.18579933  0.60957925  1
  In  In8  1  0.32175086  0.49991659  0.12433473  1
  In  In9  1  0.33464646  0.50222756  0.63650234  1
  In  In10  1  0.34657353  0.84110191  0.11249223  1
  In  In11  1  0.32193526  0.82550985  0.62674707  1
  In  In12  1  0.65869084  0.17493641  0.11619898  1
  In  In13  1  0.65364684  0.17539338  0.63330148  1
  In  In14  1  0.69013780  0.47310275  0.15148918  1
  In  In15  1  0.66091073  0.48021422  0.62349315  1
  In  In16  1  0.65727936  0.84765904  0.12820582  1
  In  In17  1  0.68180020  0.83425269  0.62948882  1
  In  In18  1  0.19035182  0.00635333  0.36483020  1
  In  In19  1  0.15028926  -0.00336312  0.88341897  1
  In  In20  1  0.16870805  0.33374257  0.37955449  1
  In  In21  1  0.17518401  0.34686991  0.86876298  1
  In  In22  1  0.15738994  0.65863324  0.37735737  1
  In  In23  1  0.16574035  0.66356842  0.87545124  1
  In  In24  1  0.50960333  0.01719987  0.36851533  1
  In  In25  1  0.50510283  -0.00492505  0.87679967  1
  In  In26  1  0.49064391  0.32847306  0.35644624  1
  In  In27  1  0.49845909  0.32993427  0.87859799  1
  In  In28  1  0.50515183  0.64244124  0.36738052  1
  In  In29  1  0.49889142  0.67454119  0.88005155  1
  In  In30  1  0.82343944  0.01235127  0.36665328  1
  In  In31  1  0.83426515  0.03657933  0.88401318  1
  In  In32  1  0.84514843  0.34867553  0.35764655  1
  In  In33  1  0.83319779  0.33073059  0.87333591  1
  In  In34  1  0.81734456  0.65489479  0.36874839  1
  In  In35  1  0.83166316  0.65006553  0.87809727  1
  In  In36  1  -0.00632275  0.18667271  0.37292733  1
  In  In37  1  -0.02050382  0.16646832  0.87723290  1
  In  In38  1  0.00850877  0.49084036  0.38577849  1
  In  In39  1  -0.00242580  0.49925699  0.87200857  1
  In  In40  1  0.00092089  0.81823898  0.37422370  1
  In  In41  1  0.01395124  0.84037426  0.87955540  1
  In  In42  1  0.34033379  0.17556926  0.37478125  1
  In  In43  1  0.34095277  0.19972945  0.88368285  1
  In  In44  1  0.33484923  0.44712774  0.37571700  1
  In  In45  1  0.32196145  0.48449754  0.86956698  1
  In  In46  1  0.32122189  0.83705295  0.37041977  1
  In  In47  1  0.33893019  0.82387506  0.87920244  1
  In  In48  1  0.66150266  0.16652511  0.36691766  1
  In  In49  1  0.66744202  0.16845235  0.87539790  1
  In  In50  1  0.66577034  0.50029061  0.36010438  1
  In  In51  1  0.68082728  0.49722408  0.88069520  1
  In  In52  1  0.65910305  0.83557492  0.36707782  1
  In  In53  1  0.65018241  0.83379697  0.88101359  1
  In  In54  1  0.18584882  0.00785595  0.12247053  1
  In  In55  1  0.16193901  0.00960532  0.62577049  1
  In  In56  1  0.16613191  0.34115244  0.12933502  1
  In  In57  1  0.16568866  0.33382986  0.62830995  1
  In  In58  1  0.16057028  0.65670761  0.11456261  1
  In  In59  1  0.17471763  0.65275938  0.63903587  1
  In  In60  1  0.49874320  0.00329132  0.11953188  1
  In  In61  1  0.49206282  0.02167104  0.62673956  1
  In  In62  1  0.50496720  0.33332568  0.12709201  1
  In  In63  1  0.50889561  0.33280769  0.63280488  1
  In  In64  1  0.50248620  0.67592139  0.12208835  1
  In  In65  1  0.49332193  0.64328723  0.63469741  1
  In  In66  1  0.81187606  0.00325551  0.12264035  1
  In  In67  1  0.82948791  -0.01059633  0.63093437  1
  In  In68  1  0.83460571  0.33892204  0.12140795  1
  In  In69  1  0.82486347  0.34064937  0.62845494  1
  In  In70  1  0.82931404  0.64236950  0.12555824  1
  In  In71  1  0.84633672  0.66653370  0.63218557  1
  In  In72  1  -0.00431528  0.00251644  0.75102655  1
  In  In73  1  0.50348174  0.83665044  0.49983381  1
  In  In74  1  -0.00027092  0.66078032  0.25070542  1
  In  In75  1  0.50828012  0.49564947  0.00283378  1
  In  In76  1  0.33315478  0.66868975  0.25129775  1
  In  In77  1  0.83109943  0.17266546  0.49858432  1
  In  In78  1  -0.00405475  0.00698959  0.24735008  1
  In  In79  1  0.16559153  0.83705098  0.50679516  1
  In  In80  1  0.33626968  -0.00062539  0.75491099  1
  In  In81  1  0.83503649  0.83128725  0.49875036  1
  In  In82  1  0.83050689  0.83506456  0.00251187  1
  In  In83  1  0.16591681  0.16900701  -0.00077785  1
  In  In84  1  0.66220791  0.65988048  0.75578627  1
  In  In85  1  0.49275189  0.48462551  0.49673108  1
  Cu  Cu86  1  0.66682358  0.66247139  0.00472496  1
  Cu  Cu87  1  0.49731633  0.16345460  0.24267741  1
  Cu  Cu88  1  0.16882782  0.82351849  0.75576438  1
  Cu  Cu89  1  0.66979146  0.65078484  0.49201146  1
  Cu  Cu90  1  0.00168191  0.33721214  0.50030579  1
  Cu  Cu91  1  0.82287156  0.16916518  0.24249659  1
  Cu  Cu92  1  0.50310717  0.16786312  0.75277221  1
  Cu  Cu93  1  0.33174364  -0.00319175  -0.00446246  1
  Cu  Cu94  1  0.32960217  0.66223391  -0.00025739  1
  Cu  Cu95  1  0.83392905  0.49480155  0.75273083  1
  Cu  Cu96  1  0.17193334  0.17510897  0.24909884  1
  Cu  Cu97  1  0.34015841  0.01511721  0.49271615  1
  Cu  Cu98  1  0.00184817  0.65097883  0.50890626  1
  Cu  Cu99  1  0.66620765  0.32984727  0.49712665  1
  Cu  Cu100  1  0.83172247  0.83705889  0.75963399  1
  Cu  Cu101  1  0.82472485  0.17363967  0.75102875  1
  Cu  Cu102  1  0.83124230  0.83525340  0.24318258  1
  Cu  Cu103  1  0.16071537  0.50199812  0.75151239  1
  Cu  Cu104  1  -0.00031704  0.33970873  -0.00428888  1
  Cu  Cu105  1  0.01257011  0.00342426  0.49380713  1
  Cu  Cu106  1  0.17201398  0.17412161  0.75088694  1
  Cu  Cu107  1  0.33463573  0.65705439  0.50572786  1
  Cu  Cu108  1  0.17875186  0.84080670  0.23683931  1
  Cu  Cu109  1  0.16828529  0.49493203  0.25478798  1
  Cu  Cu110  1  0.66307117  0.00419613  0.00020145  1
  Cu  Cu111  1  0.50007576  0.83152747  0.75441554  1
  Cu  Cu112  1  0.00556647  0.66309139  -0.00360394  1
  Cu  Cu113  1  0.66113816  0.01143156  0.50031159  1
  Cu  Cu114  1  0.49621104  0.84035918  0.24473186  1
  Se  Se115  1  0.07959703  0.08139965  0.06441293  1
  Se  Se116  1  0.09213888  0.08713744  0.54774455  1
  Se  Se117  1  0.08997621  0.41480176  0.05050885  1
  Se  Se118  1  0.08280366  0.41731298  0.55822001  1
  Se  Se119  1  0.08832142  0.74967353  0.04661114  1
  Se  Se120  1  0.07744832  0.74292954  0.56611771  1
  Se  Se121  1  0.40889324  0.08137070  0.05253776  1
  Se  Se122  1  0.42769071  0.09458523  0.54471717  1
  Se  Se123  1  0.40907186  0.41259114  0.05918049  1
  Se  Se124  1  0.40643843  0.40603515  0.56568647  1
  Se  Se125  1  0.41830353  0.74571965  0.04720327  1
  Se  Se126  1  0.41555816  0.74157417  0.56093238  1
  Se  Se127  1  0.74697233  0.09042723  0.04886486  1
  Se  Se128  1  0.74708400  0.08116839  0.56351531  1
  Se  Se129  1  0.74764785  0.42532675  0.05829187  1
  Se  Se130  1  0.74921454  0.41331970  0.54981719  1
  Se  Se131  1  0.74534894  0.74613686  0.06598470  1
  Se  Se132  1  0.74394544  0.73577439  0.55590502  1
  Se  Se133  1  0.25403910  0.25505845  0.06121907  1
  Se  Se134  1  0.22688179  0.23235082  0.56046867  1
  Se  Se135  1  0.24558369  0.57547477  0.04726010  1
  Se  Se136  1  0.25106796  0.57913370  0.56216805  1
  Se  Se137  1  0.24794826  0.91546434  0.05008865  1
  Se  Se138  1  0.26402678  0.93361775  0.55776882  1
  Se  Se139  1  0.56102319  0.24351908  0.04876296  1
  Se  Se140  1  0.58320277  0.25320842  0.55550042  1
  Se  Se141  1  0.59386296  0.58154555  0.06800682  1
  Se  Se142  1  0.58379019  0.58196180  0.55595934  1
  Se  Se143  1  0.58006218  0.91715086  0.04985573  1
  Se  Se144  1  0.59131509  0.92495873  0.56439557  1
  Se  Se145  1  0.91782665  0.25552103  0.04939098  1
  Se  Se146  1  0.92357791  0.25437815  0.56220491  1
  Se  Se147  1  0.91922360  0.58341722  0.05012864  1
  Se  Se148  1  0.90973197  0.57592934  0.55964491  1
  Se  Se149  1  0.91747642  0.92544766  0.06361721  1
  Se  Se150  1  0.92939231  0.92674123  0.55582908  1
  Se  Se151  1  0.08055595  0.25020450  0.44723087  1
  Se  Se152  1  0.07731381  0.25631494  0.93460520  1
  Se  Se153  1  0.09045887  0.57692698  0.45385656  1
  Se  Se154  1  0.08453218  0.57693626  0.94265178  1
  Se  Se155  1  0.08538942  0.92008768  0.43171873  1
  Se  Se156  1  0.08000038  0.91713733  0.95798858  1
  Se  Se157  1  0.41107536  0.27464605  0.43887101  1
  Se  Se158  1  0.43909620  0.24377692  0.95912109  1
  Se  Se159  1  0.40537061  0.58065162  0.43720132  1
  Se  Se160  1  0.41128557  0.58042285  0.93993370  1
  Se  Se161  1  0.41281047  0.92292315  0.43608466  1
  Se  Se162  1  0.41862043  0.91368426  0.94364195  1
  Se  Se163  1  0.74841447  0.25838180  0.43222950  1
  Se  Se164  1  0.77248994  0.22855688  0.93944221  1
  Se  Se165  1  0.74962858  0.56584297  0.44068471  1
  Se  Se166  1  0.75351145  0.58022752  0.95520410  1
  Se  Se167  1  0.74319393  0.92710291  0.44197376  1
  Se  Se168  1  0.74612183  0.92608242  0.93772521  1
  Se  Se169  1  0.25004475  0.09179002  0.44154626  1
  Se  Se170  1  0.25754115  0.08181269  0.93439209  1
  Se  Se171  1  0.23546270  0.42594205  0.45178271  1
  Se  Se172  1  0.25657612  0.40549623  0.94840196  1
  Se  Se173  1  0.25552444  0.74234351  0.44570969  1
  Se  Se174  1  0.24822462  0.74791764  0.94491653  1
  Se  Se175  1  0.58195627  0.09557655  0.44558902  1
  Se  Se176  1  0.58204586  0.08469767  0.94312178  1
  Se  Se177  1  0.58824019  0.40812317  0.43362512  1
  Se  Se178  1  0.59984161  0.40430989  0.94546822  1
  Se  Se179  1  0.58814541  0.73907716  0.43981662  1
  Se  Se180  1  0.58268057  0.74676500  0.95422305  1
  Se  Se181  1  0.92168640  0.07721553  0.43850660  1
  Se  Se182  1  0.94155690  0.06796209  0.95375958  1
  Se  Se183  1  0.91100390  0.41106701  0.44581009  1
  Se  Se184  1  0.91302527  0.41937446  0.94181373  1
  Se  Se185  1  0.92217697  0.72936727  0.44369381  1
  Se  Se186  1  0.91964530  0.74488076  0.94058605  1
  Se  Se187  1  0.25288407  0.25680412  0.30674250  1
  Se  Se188  1  0.25690872  0.25606942  0.80317677  1
  Se  Se189  1  0.24934390  0.57573615  0.31429843  1
  Se  Se190  1  0.24837507  0.58196243  0.80553201  1
  Se  Se191  1  0.26226394  0.92167839  0.29141489  1
  Se  Se192  1  0.24019335  0.91320191  0.81366450  1
  Se  Se193  1  0.58250229  0.24772630  0.29506886  1
  Se  Se194  1  0.58531425  0.25199126  0.80653480  1
  Se  Se195  1  0.60390913  0.60299023  0.29370316  1
  Se  Se196  1  0.57650370  0.57281559  0.81846680  1
  Se  Se197  1  0.58036337  0.92282061  0.30097282  1
  Se  Se198  1  0.58473449  0.91594666  0.80283211  1
  Se  Se199  1  0.91391663  0.24803395  0.29326759  1
  Se  Se200  1  0.91692077  0.25090886  0.79992077  1
  Se  Se201  1  0.91554165  0.57046064  0.31198181  1
  Se  Se202  1  0.91464191  0.58400664  0.80197725  1
  Se  Se203  1  0.91145799  0.90856140  0.30964968  1
  Se  Se204  1  0.90956495  0.92038848  0.81928402  1
  Se  Se205  1  0.08768247  0.09368177  0.30929096  1
  Se  Se206  1  0.08906856  0.09330709  0.80896607  1
  Se  Se207  1  0.08284380  0.41449382  0.30896888  1
  Se  Se208  1  0.07835349  0.41513284  0.80201310  1
  Se  Se209  1  0.10047026  0.75875026  0.29971828  1
  Se  Se210  1  0.07837263  0.74853364  0.80836439  1
  Se  Se211  1  0.41367819  0.08717020  0.30274796  1
  Se  Se212  1  0.41821891  0.09438822  0.81554417  1
  Se  Se213  1  0.44135919  0.44891868  0.30224343  1
  Se  Se214  1  0.41343844  0.40377978  0.80765389  1
  Se  Se215  1  0.42683870  0.75785683  0.31266817  1
  Se  Se216  1  0.41717123  0.74696794  0.80427616  1
  Se  Se217  1  0.74118210  0.08374167  0.29422525  1
  Se  Se218  1  0.74859864  0.08236172  0.80221400  1
  Se  Se219  1  0.73533070  0.40081127  0.29756225  1
  Se  Se220  1  0.74813753  0.41434340  0.80427161  1
  Se  Se221  1  0.75296764  0.75648434  0.30514667  1
  Se  Se222  1  0.75057515  0.75357062  0.81708509  1
  Se  Se223  1  0.25279817  0.08650956  0.20025927  1
  Se  Se224  1  0.25123722  0.09018715  0.69248982  1
  Se  Se225  1  0.25492216  0.41527036  0.20083179  1
  Se  Se226  1  0.24469857  0.41800906  0.69886697  1
  Se  Se227  1  0.24942798  0.75066536  0.17955824  1
  Se  Se228  1  0.25592684  0.74435994  0.70336645  1
  Se  Se229  1  0.58346388  0.08542234  0.18721240  1
  Se  Se230  1  0.58404661  0.07932279  0.70114763  1
  Se  Se231  1  0.57032600  0.42264907  0.20118820  1
  Se  Se232  1  0.57238614  0.42975419  0.70061658  1
  Se  Se233  1  0.58132434  0.75593816  0.19480962  1
  Se  Se234  1  0.57843427  0.75205070  0.68927778  1
  Se  Se235  1  0.90978650  0.09324256  0.18291521  1
  Se  Se236  1  0.90817011  0.09473606  0.68800720  1
  Se  Se237  1  0.91838973  0.41555025  0.19444171  1
  Se  Se238  1  0.91641602  0.41247124  0.69699169  1
  Se  Se239  1  0.91078457  0.75238069  0.18747100  1
  Se  Se240  1  0.91347606  0.75126873  0.70844301  1
  Se  Se241  1  0.08520463  0.25793559  0.20034708  1
  Se  Se242  1  0.08109811  0.25211831  0.70016848  1
  Se  Se243  1  0.08890075  0.57177029  0.19104881  1
  Se  Se244  1  0.07345110  0.58579569  0.70118823  1
  Se  Se245  1  0.08568822  0.91583287  0.18655127  1
  Se  Se246  1  0.09164298  0.90826664  0.69424270  1
  Se  Se247  1  0.41451474  0.25426480  0.19548047  1
  Se  Se248  1  0.41933789  0.24497407  0.69476239  1
  Se  Se249  1  0.41882421  0.58285164  0.18690930  1
  Se  Se250  1  0.40832259  0.58541723  0.71022000  1
  Se  Se251  1  0.41395038  0.92143457  0.19020716  1
  Se  Se252  1  0.42266272  0.90920388  0.68814994  1
  Se  Se253  1  0.74558021  0.25306632  0.18552027  1
  Se  Se254  1  0.74275102  0.25687741  0.69668084  1
  Se  Se255  1  0.74915279  0.58766833  0.20650730  1
  Se  Se256  1  0.75145840  0.57550905  0.69051355  1
  Se  Se257  1  0.74448244  0.92272828  0.19971071  1
  Se  Se258  1  0.74759944  0.91801588  0.70598579  1
