# generated using pymatgen
data_In86Cu29Se144
_symmetry_space_group_name_H-M   'P 1'
_cell_length_a   17.56546519
_cell_length_b   17.56600831
_cell_length_c   23.42349615
_cell_angle_alpha   89.99911736
_cell_angle_beta   90.03542993
_cell_angle_gamma   90.00488052
_symmetry_Int_Tables_number   1
_chemical_formula_structural   In86Cu29Se144
_chemical_formula_sum   'In86 Cu29 Se144'
_cell_volume   7227.43796573
_cell_formula_units_Z   1
loop_
 _symmetry_equiv_pos_site_id
 _symmetry_equiv_pos_as_xyz
  1  'x, y, z'
loop_
 _atom_site_type_symbol
 _atom_site_label
 _atom_site_symmetry_multiplicity
 _atom_site_fract_x
 _atom_site_fract_y
 _atom_site_fract_z
 _atom_site_occupancy
  In  In0  1  0.00919159  0.15049920  0.13692270  1
  In  In1  1  -0.00727185  0.16202245  0.61730988  1
  In  In2  1  0.01511552  0.50058183  0.12867379  1
  In  In3  1  0.00842520  0.50704462  0.61528347  1
  In  In4  1  0.00498874  0.83065883  0.12872861  1
  In  In5  1  0.00285597  0.83442375  0.62494922  1
  In  In6  1  0.32096227  0.18040342  0.13888491  1
  In  In7  1  0.32095024  0.14946843  0.59151480  1
  In  In8  1  0.32923753  0.49185742  0.12355016  1
  In  In9  1  0.33627350  0.50354433  0.61985101  1
  In  In10  1  0.32871670  0.85513870  0.13551020  1
  In  In11  1  0.31295737  0.82769007  0.61782544  1
  In  In12  1  0.66867423  0.17847605  0.13571374  1
  In  In13  1  0.67398574  0.17755769  0.61392626  1
  In  In14  1  0.65950320  0.50964842  0.12786844  1
  In  In15  1  0.67437563  0.49083609  0.63615887  1
  In  In16  1  0.64552834  0.82284879  0.13466367  1
  In  In17  1  0.66768806  0.81443649  0.62425907  1
  In  In18  1  0.17078712  0.00433767  0.37241964  1
  In  In19  1  0.15019072  0.00137805  0.88412998  1
  In  In20  1  0.18497009  0.31502359  0.40365550  1
  In  In21  1  0.17314818  0.32723322  0.88250890  1
  In  In22  1  0.16275344  0.68164732  0.38253294  1
  In  In23  1  0.16775126  0.66677207  0.87315287  1
  In  In24  1  0.49723098  0.01830833  0.37080681  1
  In  In25  1  0.49444290  0.01027632  0.87763613  1
  In  In26  1  0.47590871  0.29701080  0.34416244  1
  In  In27  1  0.51767895  0.33842340  0.86867842  1
  In  In28  1  0.50741444  0.65214447  0.37392716  1
  In  In29  1  0.48455017  0.65891314  0.87209603  1
  In  In30  1  0.84403403  -0.01499687  0.38331228  1
  In  In31  1  0.84276037  -0.01225251  0.87227094  1
  In  In32  1  0.83574229  0.34688204  0.39136694  1
  In  In33  1  0.82661197  0.34736819  0.86343120  1
  In  In34  1  0.83984620  0.66509556  0.37825603  1
  In  In35  1  0.83662633  0.66147291  0.85678437  1
  In  In36  1  0.01573476  0.15895116  0.38725461  1
  In  In37  1  0.01068526  0.16345061  0.87170597  1
  In  In38  1  -0.00081987  0.50521459  0.38411922  1
  In  In39  1  0.00346972  0.50794843  0.86812917  1
  In  In40  1  0.00484687  0.83678851  0.37254570  1
  In  In41  1  0.00597466  0.83690969  0.86362732  1
  In  In42  1  0.33229956  0.16620840  0.37418340  1
  In  In43  1  0.32602890  0.15346250  0.87340827  1
  In  In44  1  0.33262900  0.48036133  0.38022620  1
  In  In45  1  0.32235411  0.50939602  0.88509184  1
  In  In46  1  0.31943549  0.83722426  0.37817081  1
  In  In47  1  0.32912895  0.81633888  0.87625764  1
  In  In48  1  0.65919751  0.18166865  0.38074788  1
  In  In49  1  0.65714304  0.17869385  0.86566727  1
  In  In50  1  0.67360857  0.49856504  0.37390227  1
  In  In51  1  0.66323789  0.49517800  0.86759067  1
  In  In52  1  0.68374196  0.83431118  0.37754598  1
  In  In53  1  0.68117641  0.82817364  0.87491941  1
  In  In54  1  0.16079152  0.00525438  0.12776602  1
  In  In55  1  0.16390545  -0.01460018  0.61306949  1
  In  In56  1  0.17677568  0.33848562  0.12307653  1
  In  In57  1  0.16224528  0.32733519  0.59942764  1
  In  In58  1  0.15750102  0.65517939  0.12541121  1
  In  In59  1  0.16017966  0.66770557  0.62689220  1
  In  In60  1  0.47603212  -0.00542945  0.13817791  1
  In  In61  1  0.48886240  0.00905414  0.61591867  1
  In  In62  1  0.48806308  0.34019522  0.13870833  1
  In  In63  1  0.50328631  0.33510262  0.61803418  1
  In  In64  1  0.51294151  0.67271660  0.12994719  1
  In  In65  1  0.50542735  0.65499102  0.63360135  1
  In  In66  1  0.84389214  0.00076392  0.13338772  1
  In  In67  1  0.84702004  0.01305998  0.61690715  1
  In  In68  1  0.82366168  0.32874634  0.13149715  1
  In  In69  1  0.82772703  0.32758790  0.60984403  1
  In  In70  1  0.83207700  0.66751049  0.13266763  1
  In  In71  1  0.83399910  0.66671016  0.62270765  1
  In  In72  1  -0.00027328  0.33919833  0.26642426  1
  In  In73  1  0.84165912  0.82972229  0.00623764  1
  In  In74  1  0.66606745  -0.00149295  0.25379412  1
  In  In75  1  0.84166001  0.50304964  -0.01339099  1
  In  In76  1  0.33725371  0.66874567  0.25375059  1
  In  In77  1  0.50058057  0.83735701  0.49537414  1
  In  In78  1  0.50064425  0.49203860  0.49790792  1
  In  In79  1  0.84620897  0.17328187  -0.00583568  1
  In  In80  1  0.67251207  -0.00362739  0.75250106  1
  In  In81  1  0.49005598  0.83028922  0.00989555  1
  In  In82  1  -0.00574990  0.33809054  0.73618540  1
  In  In83  1  0.33808735  0.33735749  0.73776249  1
  In  In84  1  0.32839784  -0.00738474  0.74407569  1
  In  In85  1  0.49212201  0.17613585  0.00743681  1
  Cu  Cu86  1  0.67105041  0.00218387  0.49775805  1
  Cu  Cu87  1  0.83619307  0.50203795  0.25797060  1
  Cu  Cu88  1  0.32885596  0.66902462  0.50494935  1
  Cu  Cu89  1  0.16612225  0.49918747  0.74777943  1
  Cu  Cu90  1  0.66950905  0.01070221  0.01160352  1
  Cu  Cu91  1  0.16877888  0.50065468  0.25587883  1
  Cu  Cu92  1  0.16279924  0.83799642  0.25333818  1
  Cu  Cu93  1  0.50055306  0.82942342  0.74925980  1
  Cu  Cu94  1  0.00145280  0.67864247  0.50091990  1
  Cu  Cu95  1  0.65724312  0.66414502  0.00005545  1
  Cu  Cu96  1  0.83837084  0.82646924  0.25651197  1
  Cu  Cu97  1  0.16317410  0.82653061  0.74667461  1
  Cu  Cu98  1  0.50590785  0.17681618  0.73630531  1
  Cu  Cu99  1  0.32652399  0.66411314  0.00300164  1
  Cu  Cu100  1  0.34019061  0.33210843  0.00354600  1
  Cu  Cu101  1  0.16568657  0.16221572  0.74539997  1
  Cu  Cu102  1  0.67921153  0.66047153  0.50034613  1
  Cu  Cu103  1  0.83964337  0.83301206  0.74338943  1
  Cu  Cu104  1  0.00399282  0.66506605  -0.00354878  1
  Cu  Cu105  1  0.31671942  0.00035401  0.00318143  1
  Cu  Cu106  1  0.83228782  0.16442300  0.26213590  1
  Cu  Cu107  1  0.66537113  0.34841424  -0.00144711  1
  Cu  Cu108  1  0.49523493  0.50635826  0.75145204  1
  Cu  Cu109  1  0.65616717  0.33737277  0.49471567  1
  Cu  Cu110  1  0.00650577  -0.00591058  0.49824468  1
  Cu  Cu111  1  0.83706533  0.16914758  0.73751687  1
  Cu  Cu112  1  0.16521834  0.16935964  0.25816252  1
  Cu  Cu113  1  0.01016582  0.32665400  0.00368598  1
  Cu  Cu114  1  0.50777281  0.49460604  0.25218891  1
  Se  Se115  1  0.08342120  0.08876289  0.05614899  1
  Se  Se116  1  0.08499614  0.08145539  0.55306618  1
  Se  Se117  1  0.08688277  0.41704067  0.05561956  1
  Se  Se118  1  0.06032038  0.40455993  0.54444435  1
  Se  Se119  1  0.08073942  0.74549373  0.05747394  1
  Se  Se120  1  0.08984914  0.75711678  0.55453926  1
  Se  Se121  1  0.40235925  0.07975778  0.06181680  1
  Se  Se122  1  0.43422474  0.09315572  0.53679980  1
  Se  Se123  1  0.42231296  0.41532963  0.05699104  1
  Se  Se124  1  0.40132169  0.40353902  0.55078309  1
  Se  Se125  1  0.39978804  0.74173992  0.07092847  1
  Se  Se126  1  0.42001479  0.74293307  0.56192004  1
  Se  Se127  1  0.75416877  0.09016200  0.06545823  1
  Se  Se128  1  0.75472204  0.08742166  0.55051047  1
  Se  Se129  1  0.75380572  0.42107520  0.05689977  1
  Se  Se130  1  0.73707244  0.41929453  0.55164882  1
  Se  Se131  1  0.73670669  0.74486243  0.06016905  1
  Se  Se132  1  0.75603084  0.75311496  0.54951343  1
  Se  Se133  1  0.25435131  0.24912511  0.05470958  1
  Se  Se134  1  0.24447281  0.24595847  0.53188402  1
  Se  Se135  1  0.24628447  0.57791728  0.05782230  1
  Se  Se136  1  0.24571144  0.58502652  0.55759055  1
  Se  Se137  1  0.24113724  0.91416103  0.05931290  1
  Se  Se138  1  0.27896060  0.93935346  0.55323082  1
  Se  Se139  1  0.59131800  0.26365701  0.06078624  1
  Se  Se140  1  0.57799195  0.24852110  0.54792554  1
  Se  Se141  1  0.57484544  0.58248958  0.05436294  1
  Se  Se142  1  0.58993557  0.58467272  0.55649792  1
  Se  Se143  1  0.58404330  0.92789571  0.06510103  1
  Se  Se144  1  0.59242326  0.92110210  0.56082745  1
  Se  Se145  1  0.92635053  0.25681870  0.06728729  1
  Se  Se146  1  0.91282459  0.24215347  0.54785524  1
  Se  Se147  1  0.92212082  0.58765376  0.05878004  1
  Se  Se148  1  0.91903025  0.59040803  0.55110324  1
  Se  Se149  1  0.92855168  0.92885430  0.05789527  1
  Se  Se150  1  0.92011065  0.91573477  0.55401523  1
  Se  Se151  1  0.06023386  0.27065728  0.45150365  1
  Se  Se152  1  0.08664220  0.24244351  0.94604347  1
  Se  Se153  1  0.08483520  0.59244994  0.44935435  1
  Se  Se154  1  0.08524263  0.57995107  0.94216903  1
  Se  Se155  1  0.09113438  0.91600568  0.44165685  1
  Se  Se156  1  0.08167151  0.89976627  0.94423956  1
  Se  Se157  1  0.42185014  0.25064451  0.43822881  1
  Se  Se158  1  0.41202587  0.25648283  0.93128934  1
  Se  Se159  1  0.40695948  0.58985712  0.44378019  1
  Se  Se160  1  0.41568176  0.58395230  0.95213009  1
  Se  Se161  1  0.41144110  0.92804555  0.43837616  1
  Se  Se162  1  0.40586007  0.92429477  0.94442817  1
  Se  Se163  1  0.74985427  0.25360692  0.45012807  1
  Se  Se164  1  0.74353608  0.26173113  0.93982637  1
  Se  Se165  1  0.75735616  0.57663922  0.44455398  1
  Se  Se166  1  0.74350822  0.59580231  0.93693786  1
  Se  Se167  1  0.75474295  0.91201291  0.45445410  1
  Se  Se168  1  0.74447118  0.92652795  0.94916257  1
  Se  Se169  1  0.23244208  0.10241161  0.44160893  1
  Se  Se170  1  0.24060859  0.08649645  0.94669184  1
  Se  Se171  1  0.23853677  0.43419670  0.45536338  1
  Se  Se172  1  0.25185119  0.41299760  0.95042525  1
  Se  Se173  1  0.24906559  0.75717962  0.45445670  1
  Se  Se174  1  0.24465571  0.74785919  0.94942167  1
  Se  Se175  1  0.58754606  0.08260052  0.44418336  1
  Se  Se176  1  0.59077057  0.08693747  0.94589208  1
  Se  Se177  1  0.57710675  0.40690476  0.42765798  1
  Se  Se178  1  0.57937625  0.42680984  0.94473389  1
  Se  Se179  1  0.59263464  0.73937320  0.44283165  1
  Se  Se180  1  0.58214791  0.75144649  0.94083842  1
  Se  Se181  1  0.91986521  0.07869485  0.44822152  1
  Se  Se182  1  0.92872887  0.07095403  0.94151980  1
  Se  Se183  1  0.92534017  0.42263865  0.45874124  1
  Se  Se184  1  0.93105739  0.40044544  0.93700167  1
  Se  Se185  1  0.91902653  0.75752187  0.44252115  1
  Se  Se186  1  0.91749897  0.73975312  0.93617142  1
  Se  Se187  1  0.24322749  0.25754119  0.31179543  1
  Se  Se188  1  0.24799863  0.24369814  0.80171002  1
  Se  Se189  1  0.24882325  0.58197073  0.31728806  1
  Se  Se190  1  0.24978067  0.57934979  0.80438023  1
  Se  Se191  1  0.25165250  0.91941587  0.30160360  1
  Se  Se192  1  0.24235542  0.90892001  0.81051269  1
  Se  Se193  1  0.59689367  0.24828939  0.29486863  1
  Se  Se194  1  0.58843173  0.26033455  0.78992674  1
  Se  Se195  1  0.59113471  0.57995145  0.30201416  1
  Se  Se196  1  0.57957845  0.58727412  0.80627508  1
  Se  Se197  1  0.58042123  0.90984661  0.31714417  1
  Se  Se198  1  0.57392589  0.91085612  0.81349184  1
  Se  Se199  1  0.91226411  0.24433592  0.32245593  1
  Se  Se200  1  0.91321211  0.24627732  0.80605570  1
  Se  Se201  1  0.92414591  0.58320086  0.30756504  1
  Se  Se202  1  0.90583908  0.56052594  0.79766550  1
  Se  Se203  1  0.91939151  0.91813612  0.30229244  1
  Se  Se204  1  0.92147623  0.91939627  0.79501889  1
  Se  Se205  1  0.07910682  0.08299153  0.30459229  1
  Se  Se206  1  0.08672178  0.07870323  0.80091625  1
  Se  Se207  1  0.09769352  0.42071377  0.32277051  1
  Se  Se208  1  0.09235839  0.41011866  0.80634051  1
  Se  Se209  1  0.08349255  0.74820877  0.30324017  1
  Se  Se210  1  0.08173635  0.74128164  0.80086806  1
  Se  Se211  1  0.41262103  0.08934618  0.29971199  1
  Se  Se212  1  0.42519349  0.09393424  0.79725020  1
  Se  Se213  1  0.41385551  0.41845370  0.30053925  1
  Se  Se214  1  0.41528183  0.42248056  0.81059331  1
  Se  Se215  1  0.42241708  0.75393323  0.32034040  1
  Se  Se216  1  0.41245775  0.74849730  0.80099770  1
  Se  Se217  1  0.75337644  0.08108923  0.32041434  1
  Se  Se218  1  0.76181719  0.09377919  0.80991046  1
  Se  Se219  1  0.75913219  0.41135549  0.30929637  1
  Se  Se220  1  0.74288134  0.42033165  0.79389646  1
  Se  Se221  1  0.75269458  0.74418649  0.30716247  1
  Se  Se222  1  0.75169357  0.75354592  0.79667019  1
  Se  Se223  1  0.24396640  0.08458814  0.19995820  1
  Se  Se224  1  0.24840541  0.08940238  0.68219929  1
  Se  Se225  1  0.24952644  0.41810776  0.19965062  1
  Se  Se226  1  0.23495413  0.41679693  0.68109435  1
  Se  Se227  1  0.24107710  0.75292192  0.19305522  1
  Se  Se228  1  0.25109018  0.74577612  0.69634393  1
  Se  Se229  1  0.57574394  0.08649832  0.19114067  1
  Se  Se230  1  0.58500164  0.08352063  0.68639496  1
  Se  Se231  1  0.59152790  0.41426406  0.19615224  1
  Se  Se232  1  0.56987525  0.41860509  0.69418089  1
  Se  Se233  1  0.58253418  0.74151282  0.21166409  1
  Se  Se234  1  0.58550741  0.74442952  0.69979328  1
  Se  Se235  1  0.91534142  0.08414263  0.20687584  1
  Se  Se236  1  0.92479130  0.08148806  0.69642279  1
  Se  Se237  1  0.91287160  0.42174462  0.19276589  1
  Se  Se238  1  0.90552663  0.42567490  0.67750105  1
  Se  Se239  1  0.92044124  0.74793969  0.19655894  1
  Se  Se240  1  0.92155476  0.74724907  0.69178843  1
  Se  Se241  1  0.08689637  0.25464202  0.19666448  1
  Se  Se242  1  0.09209527  0.24664953  0.68370089  1
  Se  Se243  1  0.08231363  0.58295971  0.20529602  1
  Se  Se244  1  0.08006454  0.58120582  0.69564664  1
  Se  Se245  1  0.07930639  0.92036993  0.19756396  1
  Se  Se246  1  0.08902129  0.91798385  0.69377713  1
  Se  Se247  1  0.42291396  0.24154917  0.20277463  1
  Se  Se248  1  0.41203705  0.23715484  0.67515534  1
  Se  Se249  1  0.42381227  0.57538895  0.19221555  1
  Se  Se250  1  0.40686524  0.58294295  0.69702193  1
  Se  Se251  1  0.43106004  0.89263272  0.20834431  1
  Se  Se252  1  0.42381748  0.90570668  0.68469764  1
  Se  Se253  1  0.75318674  0.25117762  0.20872588  1
  Se  Se254  1  0.75137731  0.25335442  0.68984249  1
  Se  Se255  1  0.75242178  0.57930655  0.19766753  1
  Se  Se256  1  0.72902274  0.60627265  0.68783141  1
  Se  Se257  1  0.75535021  0.90305344  0.19187941  1
  Se  Se258  1  0.75658133  0.91390802  0.68386165  1
