# generated using pymatgen
data_In86Cu29Se144
_symmetry_space_group_name_H-M   'P 1'
_cell_length_a   17.59021321
_cell_length_b   17.59386988
_cell_length_c   23.45419594
_cell_angle_alpha   89.97966010
_cell_angle_beta   89.99874530
_cell_angle_gamma   89.99274926
_symmetry_Int_Tables_number   1
_chemical_formula_structural   In86Cu29Se144
_chemical_formula_sum   'In86 Cu29 Se144'
_cell_volume   7258.60222362
_cell_formula_units_Z   1
loop_
 _symmetry_equiv_pos_site_id
 _symmetry_equiv_pos_as_xyz
  1  'x, y, z'
loop_
 _atom_site_type_symbol
 _atom_site_label
 _atom_site_symmetry_multiplicity
 _atom_site_fract_x
 _atom_site_fract_y
 _atom_site_fract_z
 _atom_site_occupancy
  In  In0  1  0.01150693  0.17888575  0.11258078  1
  In  In1  1  -0.01047332  0.18778997  0.64403392  1
  In  In2  1  -0.01630108  0.49911480  0.11867995  1
  In  In3  1  -0.01104976  0.48734870  0.62163128  1
  In  In4  1  0.01119560  0.81803806  0.11555150  1
  In  In5  1  0.00061685  0.83787612  0.62213978  1
  In  In6  1  0.32447671  0.15188985  0.11925308  1
  In  In7  1  0.32919383  0.15738130  0.62614871  1
  In  In8  1  0.34358515  0.50129725  0.12547509  1
  In  In9  1  0.34226839  0.51288345  0.61679323  1
  In  In10  1  0.33528602  0.83339182  0.12806093  1
  In  In11  1  0.33763580  0.83192514  0.61619528  1
  In  In12  1  0.66084003  0.16016222  0.11516188  1
  In  In13  1  0.68355340  0.16581865  0.63011181  1
  In  In14  1  0.66432247  0.50283752  0.11528548  1
  In  In15  1  0.66889457  0.50169555  0.63406960  1
  In  In16  1  0.67264460  0.84861106  0.12554794  1
  In  In17  1  0.66112775  0.81946769  0.61629407  1
  In  In18  1  0.17119235  -0.01187642  0.37368070  1
  In  In19  1  0.15565948  0.00795785  0.88591659  1
  In  In20  1  0.15856707  0.35180960  0.37333632  1
  In  In21  1  0.14871719  0.32223586  0.87197504  1
  In  In22  1  0.17209972  0.66133292  0.37754918  1
  In  In23  1  0.17548993  0.67004708  0.87659773  1
  In  In24  1  0.49050368  -0.01058578  0.36415743  1
  In  In25  1  0.50578910  -0.00279002  0.88360957  1
  In  In26  1  0.51040756  0.33376944  0.37615341  1
  In  In27  1  0.51196612  0.32813663  0.88046644  1
  In  In28  1  0.49573872  0.67917351  0.38397623  1
  In  In29  1  0.51763409  0.66178540  0.89102232  1
  In  In30  1  0.82629871  0.00951507  0.37921590  1
  In  In31  1  0.85562873  0.00044195  0.87051880  1
  In  In32  1  0.83066715  0.33106487  0.37992010  1
  In  In33  1  0.83361052  0.33694717  0.88070985  1
  In  In34  1  0.82601637  0.66942814  0.39575508  1
  In  In35  1  0.81397475  0.65918342  0.86964745  1
  In  In36  1  -0.01825365  0.17180798  0.37282647  1
  In  In37  1  0.00397538  0.16761805  0.88267296  1
  In  In38  1  -0.00200203  0.50067012  0.37918070  1
  In  In39  1  -0.01168136  0.47870173  0.86864422  1
  In  In40  1  0.00797675  0.83141204  0.38581570  1
  In  In41  1  -0.00224137  0.84741867  0.87105932  1
  In  In42  1  0.34344003  0.16251574  0.36682345  1
  In  In43  1  0.33556274  0.16359729  0.88610612  1
  In  In44  1  0.32444092  0.51169752  0.37689937  1
  In  In45  1  0.33752153  0.51107733  0.87824383  1
  In  In46  1  0.33544355  0.82998227  0.37235035  1
  In  In47  1  0.33655808  0.83237238  0.88413221  1
  In  In48  1  0.67842845  0.16979246  0.37487596  1
  In  In49  1  0.66100540  0.18008380  0.88042253  1
  In  In50  1  0.66075662  0.51166699  0.39553580  1
  In  In51  1  0.67494105  0.49661872  0.87934662  1
  In  In52  1  0.65961314  0.83700463  0.38404440  1
  In  In53  1  0.66362081  0.82249853  0.87233242  1
  In  In54  1  0.17271800  0.00168482  0.12399100  1
  In  In55  1  0.16665014  -0.00714977  0.62353539  1
  In  In56  1  0.16410790  0.32202647  0.12211069  1
  In  In57  1  0.14141566  0.33578182  0.62908001  1
  In  In58  1  0.16214474  0.68660866  0.11901752  1
  In  In59  1  0.16926568  0.67065566  0.61711539  1
  In  In60  1  0.50241320  -0.00602315  0.12226221  1
  In  In61  1  0.50854974  -0.01400499  0.62434420  1
  In  In62  1  0.50452422  0.33867220  0.11470540  1
  In  In63  1  0.50001519  0.35352003  0.62933404  1
  In  In64  1  0.49298608  0.65673826  0.11993072  1
  In  In65  1  0.52232628  0.67810931  0.61069454  1
  In  In66  1  0.82062120  0.00033595  0.12687807  1
  In  In67  1  0.84045640  0.01253966  0.61805707  1
  In  In68  1  0.84324271  0.33872502  0.11628954  1
  In  In69  1  0.83670588  0.33578652  0.63274401  1
  In  In70  1  0.83543519  0.65456646  0.11519544  1
  In  In71  1  0.80875676  0.64674260  0.60800672  1
  In  In72  1  0.34261130  0.66972794  0.75410932  1
  In  In73  1  -0.00049068  0.00508512  0.25089692  1
  In  In74  1  0.67204715  -0.00131384  0.75132001  1
  In  In75  1  -0.01245695  0.66360447  0.74795592  1
  In  In76  1  0.66154755  0.67387630  0.25723807  1
  In  In77  1  0.33155417  0.32900775  0.24410029  1
  In  In78  1  0.33024622  -0.00478048  0.74431566  1
  In  In79  1  0.16433905  0.16893338  0.50441468  1
  In  In80  1  0.16259408  0.49653625  -0.00755855  1
  In  In81  1  -0.00118861  0.66368922  0.24651430  1
  In  In82  1  0.83200204  0.82993754  -0.00475596  1
  In  In83  1  0.66976122  0.33317894  0.25305417  1
  In  In84  1  0.50705133  0.16973559  0.49506847  1
  In  In85  1  0.32994392  0.33628011  0.75596614  1
  Cu  Cu86  1  0.33305213  0.67135517  0.00217702  1
  Cu  Cu87  1  0.32562176  0.34323628  0.50076950  1
  Cu  Cu88  1  0.16380116  0.83962057  0.74904172  1
  Cu  Cu89  1  0.33238016  0.66714704  0.49578635  1
  Cu  Cu90  1  0.33706993  0.33329379  0.00016203  1
  Cu  Cu91  1  0.49925277  0.83467654  0.25007256  1
  Cu  Cu92  1  0.83686963  0.83703448  0.25077942  1
  Cu  Cu93  1  0.49317865  0.50426581  0.24969421  1
  Cu  Cu94  1  0.49706800  0.16855025  0.75482506  1
  Cu  Cu95  1  -0.00692371  0.33575688  0.50423796  1
  Cu  Cu96  1  0.51402853  0.50630385  0.75451284  1
  Cu  Cu97  1  0.83156776  0.50051666  0.25045655  1
  Cu  Cu98  1  0.17680066  0.83387007  0.24865007  1
  Cu  Cu99  1  0.66781044  -0.00451201  0.50157521  1
  Cu  Cu100  1  0.16074986  0.49364686  0.74266478  1
  Cu  Cu101  1  0.00405560  0.67136965  0.50492568  1
  Cu  Cu102  1  0.66861343  0.00269887  -0.00254725  1
  Cu  Cu103  1  0.83849301  0.17393960  0.75597748  1
  Cu  Cu104  1  0.50065190  0.15315568  0.23832971  1
  Cu  Cu105  1  0.67096590  0.33599632  0.50818661  1
  Cu  Cu106  1  0.67263184  0.33748453  -0.00164331  1
  Cu  Cu107  1  -0.00119589  0.00488474  0.49899419  1
  Cu  Cu108  1  0.16245837  0.16814213  0.24313818  1
  Cu  Cu109  1  0.00336995  -0.00209181  0.00021872  1
  Cu  Cu110  1  0.83022873  0.83073072  0.74430050  1
  Cu  Cu111  1  0.16044765  0.50327432  0.25335530  1
  Cu  Cu112  1  0.33910098  -0.00731227  0.49465087  1
  Cu  Cu113  1  0.83351777  0.17127082  0.24940157  1
  Cu  Cu114  1  0.33451605  -0.00558964  0.00497487  1
  Se  Se115  1  0.08860070  0.07990060  0.05422031  1
  Se  Se116  1  0.07265736  0.08455876  0.56450162  1
  Se  Se117  1  0.07662656  0.40957771  0.05666137  1
  Se  Se118  1  0.08346558  0.41949173  0.55019480  1
  Se  Se119  1  0.07283418  0.73376007  0.03978637  1
  Se  Se120  1  0.08788144  0.75886205  0.55309826  1
  Se  Se121  1  0.42021926  0.08072599  0.05437407  1
  Se  Se122  1  0.41664849  0.07575359  0.55578347  1
  Se  Se123  1  0.41680371  0.42186441  0.05067197  1
  Se  Se124  1  0.41754005  0.41864533  0.55167719  1
  Se  Se125  1  0.41681704  0.75238823  0.05692442  1
  Se  Se126  1  0.41890475  0.74767220  0.54932413  1
  Se  Se127  1  0.75453916  0.08288194  0.05010977  1
  Se  Se128  1  0.74695896  0.08652270  0.55046477  1
  Se  Se129  1  0.75407126  0.42143691  0.05285781  1
  Se  Se130  1  0.75197408  0.41677485  0.56425009  1
  Se  Se131  1  0.74160537  0.74576623  0.05920015  1
  Se  Se132  1  0.75798768  0.75823966  0.54804013  1
  Se  Se133  1  0.25464137  0.25029540  0.05432956  1
  Se  Se134  1  0.25459030  0.26106197  0.56423975  1
  Se  Se135  1  0.25095539  0.58485417  0.05822097  1
  Se  Se136  1  0.24881883  0.58449094  0.54982658  1
  Se  Se137  1  0.24861554  0.91145370  0.05740297  1
  Se  Se138  1  0.25258981  0.91867946  0.55260568  1
  Se  Se139  1  0.58597436  0.25301908  0.04950870  1
  Se  Se140  1  0.58697442  0.25427463  0.56596599  1
  Se  Se141  1  0.58124906  0.58519498  0.05091345  1
  Se  Se142  1  0.56740892  0.55553803  0.56329849  1
  Se  Se143  1  0.58818852  0.91653037  0.05047963  1
  Se  Se144  1  0.58084643  0.91027213  0.54830174  1
  Se  Se145  1  0.90426829  0.23598151  0.05265202  1
  Se  Se146  1  0.91622341  0.24985004  0.56057259  1
  Se  Se147  1  0.92691044  0.59127828  0.04561759  1
  Se  Se148  1  0.92195442  0.58376593  0.55435397  1
  Se  Se149  1  0.92107194  0.91910709  0.06156188  1
  Se  Se150  1  0.91679741  0.92031388  0.55266297  1
  Se  Se151  1  0.07488860  0.25746284  0.44086623  1
  Se  Se152  1  0.08912153  0.24586360  0.95277272  1
  Se  Se153  1  0.08061421  0.58741813  0.44441506  1
  Se  Se154  1  0.07619114  0.58177557  0.92745455  1
  Se  Se155  1  0.08764223  0.92306836  0.44985482  1
  Se  Se156  1  0.08308425  0.90844315  0.94939244  1
  Se  Se157  1  0.40480357  0.25963447  0.44181838  1
  Se  Se158  1  0.42194896  0.25009432  0.94757973  1
  Se  Se159  1  0.41715298  0.58236227  0.44460145  1
  Se  Se160  1  0.41653851  0.58575694  0.95100037  1
  Se  Se161  1  0.42272919  0.91011594  0.44231908  1
  Se  Se162  1  0.42038214  0.91572290  0.95043763  1
  Se  Se163  1  0.74744111  0.25079524  0.45069953  1
  Se  Se164  1  0.75351470  0.24762886  0.94985288  1
  Se  Se165  1  0.76394965  0.56834829  0.45895850  1
  Se  Se166  1  0.74647013  0.58722248  0.94968687  1
  Se  Se167  1  0.75398364  0.91678433  0.44616441  1
  Se  Se168  1  0.74840981  0.92581756  0.93297709  1
  Se  Se169  1  0.25927702  0.08207374  0.44164154  1
  Se  Se170  1  0.25176160  0.07922647  0.95145730  1
  Se  Se171  1  0.24420791  0.42353678  0.44433239  1
  Se  Se172  1  0.25674171  0.40612223  0.93381364  1
  Se  Se173  1  0.24933751  0.75276214  0.44282464  1
  Se  Se174  1  0.24713464  0.75253643  0.95007342  1
  Se  Se175  1  0.58918443  0.07363104  0.43552387  1
  Se  Se176  1  0.58345407  0.08865702  0.94726179  1
  Se  Se177  1  0.58187144  0.41082247  0.45193456  1
  Se  Se178  1  0.58319006  0.41936127  0.94879790  1
  Se  Se179  1  0.60779865  0.72655824  0.44494308  1
  Se  Se180  1  0.58305797  0.76530978  0.95260024  1
  Se  Se181  1  0.91379887  0.08894996  0.44751817  1
  Se  Se182  1  0.91751578  0.08061168  0.94993056  1
  Se  Se183  1  0.91337591  0.41711112  0.44590922  1
  Se  Se184  1  0.91879808  0.41446815  0.95122222  1
  Se  Se185  1  0.91959223  0.75504219  0.45272431  1
  Se  Se186  1  0.91695241  0.74551861  0.92866525  1
  Se  Se187  1  0.23925409  0.24662479  0.31022246  1
  Se  Se188  1  0.24765109  0.23708124  0.81118868  1
  Se  Se189  1  0.24836010  0.58665218  0.30008008  1
  Se  Se190  1  0.24175004  0.57354887  0.80210897  1
  Se  Se191  1  0.25732919  0.91840222  0.30192263  1
  Se  Se192  1  0.24536451  0.91201014  0.81309082  1
  Se  Se193  1  0.57318991  0.23535682  0.30359776  1
  Se  Se194  1  0.58403582  0.25206006  0.80202357  1
  Se  Se195  1  0.57604689  0.57569603  0.31330902  1
  Se  Se196  1  0.59086525  0.58718337  0.81319022  1
  Se  Se197  1  0.58838960  0.91186979  0.30426409  1
  Se  Se198  1  0.57528445  0.91222533  0.80563622  1
  Se  Se199  1  0.91115373  0.25976229  0.30182161  1
  Se  Se200  1  0.92040407  0.25152695  0.81381892  1
  Se  Se201  1  0.90381133  0.58682069  0.31182343  1
  Se  Se202  1  0.90076224  0.56882230  0.80367716  1
  Se  Se203  1  0.91744583  0.91190323  0.31368653  1
  Se  Se204  1  0.91746591  0.91451375  0.79288835  1
  Se  Se205  1  0.08980702  0.09314819  0.31374268  1
  Se  Se206  1  0.06637171  0.06873741  0.81306021  1
  Se  Se207  1  0.07183802  0.42162757  0.30104878  1
  Se  Se208  1  0.08205796  0.41115518  0.79851959  1
  Se  Se209  1  0.08832892  0.75658518  0.30593317  1
  Se  Se210  1  0.08723418  0.75167197  0.80529110  1
  Se  Se211  1  0.41394458  0.07771103  0.29504984  1
  Se  Se212  1  0.42002024  0.08303061  0.80975342  1
  Se  Se213  1  0.41893576  0.41664456  0.30924874  1
  Se  Se214  1  0.42578095  0.42707450  0.81047928  1
  Se  Se215  1  0.42020640  0.74740095  0.30380883  1
  Se  Se216  1  0.42920721  0.75253331  0.81822978  1
  Se  Se217  1  0.75148410  0.08606068  0.30165028  1
  Se  Se218  1  0.75618710  0.09075721  0.81378253  1
  Se  Se219  1  0.74736155  0.43080107  0.31498159  1
  Se  Se220  1  0.74075283  0.40264160  0.80964942  1
  Se  Se221  1  0.76178493  0.75597059  0.31360766  1
  Se  Se222  1  0.74652510  0.75063237  0.79807388  1
  Se  Se223  1  0.24883160  0.08130045  0.19880600  1
  Se  Se224  1  0.23451992  0.09145748  0.69646831  1
  Se  Se225  1  0.23959076  0.42417101  0.18924296  1
  Se  Se226  1  0.25104443  0.42279491  0.68439781  1
  Se  Se227  1  0.25155710  0.74492891  0.19468718  1
  Se  Se228  1  0.24725067  0.75767240  0.69300347  1
  Se  Se229  1  0.59192070  0.07537789  0.19003985  1
  Se  Se230  1  0.57548552  0.08876823  0.69157827  1
  Se  Se231  1  0.57765904  0.42473697  0.19348718  1
  Se  Se232  1  0.58881604  0.41292607  0.70417734  1
  Se  Se233  1  0.57897052  0.75659956  0.18769199  1
  Se  Se234  1  0.58397017  0.75002618  0.69365180  1
  Se  Se235  1  0.91327216  0.09180722  0.18746947  1
  Se  Se236  1  0.91180977  0.08468256  0.69881323  1
  Se  Se237  1  0.91243999  0.41876363  0.19527886  1
  Se  Se238  1  0.93096666  0.40564259  0.70063434  1
  Se  Se239  1  0.90736822  0.75588405  0.18691305  1
  Se  Se240  1  0.90525392  0.74938657  0.68078981  1
  Se  Se241  1  0.07745265  0.25270640  0.19567995  1
  Se  Se242  1  0.09720831  0.24339235  0.70560190  1
  Se  Se243  1  0.08825053  0.57789454  0.18324712  1
  Se  Se244  1  0.08651220  0.58236178  0.68632126  1
  Se  Se245  1  0.08414372  0.90674641  0.19204323  1
  Se  Se246  1  0.08029157  0.91937357  0.69480466  1
  Se  Se247  1  0.42487798  0.24364033  0.18371031  1
  Se  Se248  1  0.41880244  0.24532272  0.69067120  1
  Se  Se249  1  0.41169447  0.58897009  0.19860221  1
  Se  Se250  1  0.42951948  0.58058821  0.69304620  1
  Se  Se251  1  0.41783507  0.91865608  0.19522373  1
  Se  Se252  1  0.42546968  0.90086002  0.69444190  1
  Se  Se253  1  0.75183678  0.24732694  0.18618806  1
  Se  Se254  1  0.75120710  0.25230382  0.70224888  1
  Se  Se255  1  0.74967242  0.58172715  0.19339877  1
  Se  Se256  1  0.75070423  0.59015481  0.69833641  1
  Se  Se257  1  0.74916686  0.92068015  0.20355158  1
  Se  Se258  1  0.75429939  0.91466724  0.68267461  1
