# generated using pymatgen
data_In86Cu29Se144
_symmetry_space_group_name_H-M   'P 1'
_cell_length_a   17.57850987
_cell_length_b   17.57475533
_cell_length_c   23.43287450
_cell_angle_alpha   90.00590823
_cell_angle_beta   89.97262806
_cell_angle_gamma   89.99674856
_symmetry_Int_Tables_number   1
_chemical_formula_structural   In86Cu29Se144
_chemical_formula_sum   'In86 Cu29 Se144'
_cell_volume   7239.30473837
_cell_formula_units_Z   1
loop_
 _symmetry_equiv_pos_site_id
 _symmetry_equiv_pos_as_xyz
  1  'x, y, z'
loop_
 _atom_site_type_symbol
 _atom_site_label
 _atom_site_symmetry_multiplicity
 _atom_site_fract_x
 _atom_site_fract_y
 _atom_site_fract_z
 _atom_site_occupancy
  In  In0  1  -0.00215466  0.17812588  0.13305429  1
  In  In1  1  -0.00579015  0.18158837  0.63349151  1
  In  In2  1  -0.02064657  0.49296394  0.13253558  1
  In  In3  1  -0.00272397  0.50431922  0.62095604  1
  In  In4  1  -0.00325049  0.84373456  0.11984849  1
  In  In5  1  -0.00094520  0.82365168  0.62083079  1
  In  In6  1  0.31666277  0.16304978  0.13063207  1
  In  In7  1  0.31727235  0.17539944  0.64138888  1
  In  In8  1  0.35038911  0.49469559  0.12437325  1
  In  In9  1  0.33261472  0.50617597  0.62341071  1
  In  In10  1  0.34162240  0.81718989  0.13037985  1
  In  In11  1  0.31990690  0.83941035  0.63186482  1
  In  In12  1  0.68192468  0.16389018  0.13281987  1
  In  In13  1  0.67884316  0.16085315  0.62167819  1
  In  In14  1  0.66479741  0.50852237  0.14015237  1
  In  In15  1  0.67972614  0.51021937  0.61095096  1
  In  In16  1  0.65722889  0.82907676  0.11873458  1
  In  In17  1  0.67740597  0.81820973  0.63067072  1
  In  In18  1  0.17010010  -0.01276149  0.38099853  1
  In  In19  1  0.15256530  -0.00215099  0.86099083  1
  In  In20  1  0.17277410  0.34769617  0.37760061  1
  In  In21  1  0.15739273  0.32172144  0.85845578  1
  In  In22  1  0.17105303  0.66359357  0.38910200  1
  In  In23  1  0.16547430  0.67014927  0.86413517  1
  In  In24  1  0.49691624  0.01342984  0.37104064  1
  In  In25  1  0.48511413  -0.00592701  0.87868685  1
  In  In26  1  0.51941779  0.33623719  0.36651311  1
  In  In27  1  0.50000643  0.34687038  0.87815491  1
  In  In28  1  0.49904652  0.65608337  0.37072127  1
  In  In29  1  0.50063426  0.66599942  0.87332175  1
  In  In30  1  0.83882762  -0.00469304  0.38247907  1
  In  In31  1  0.83717800  -0.00323934  0.87559840  1
  In  In32  1  0.83417635  0.33136006  0.37422292  1
  In  In33  1  0.83243114  0.32835825  0.87716628  1
  In  In34  1  0.83221111  0.66844625  0.37925515  1
  In  In35  1  0.83768056  0.68129367  0.85355223  1
  In  In36  1  -0.01352494  0.17009070  0.37203792  1
  In  In37  1  -0.00939098  0.15766441  0.86267079  1
  In  In38  1  0.00628068  0.50177274  0.38670203  1
  In  In39  1  -0.00356354  0.50116950  0.86064725  1
  In  In40  1  0.00442884  0.82357524  0.39495127  1
  In  In41  1  -0.01746968  0.82959173  0.85790823  1
  In  In42  1  0.35094848  0.16709599  0.36642693  1
  In  In43  1  0.31531365  0.15661751  0.86161956  1
  In  In44  1  0.32459167  0.51267512  0.38513281  1
  In  In45  1  0.33993922  0.50816840  0.86694611  1
  In  In46  1  0.33886140  0.82704827  0.37515219  1
  In  In47  1  0.33571332  0.83535406  0.87200700  1
  In  In48  1  0.67995137  0.19588590  0.35556074  1
  In  In49  1  0.67787969  0.18046135  0.88206823  1
  In  In50  1  0.66771878  0.49500310  0.37437826  1
  In  In51  1  0.65544182  0.50633760  0.87662107  1
  In  In52  1  0.68615745  0.83104650  0.37463793  1
  In  In53  1  0.67611801  0.81949042  0.87971702  1
  In  In54  1  0.16715211  0.01428428  0.12840893  1
  In  In55  1  0.17293807  -0.00705274  0.63036320  1
  In  In56  1  0.15303583  0.32860552  0.13205417  1
  In  In57  1  0.15443256  0.34702472  0.63123426  1
  In  In58  1  0.16785885  0.67986013  0.12767393  1
  In  In59  1  0.16230023  0.67052709  0.62132959  1
  In  In60  1  0.50008216  -0.01757811  0.12207572  1
  In  In61  1  0.48886885  -0.00614991  0.62758766  1
  In  In62  1  0.49846073  0.35017754  0.12167930  1
  In  In63  1  0.48781971  0.33837560  0.62380972  1
  In  In64  1  0.50582358  0.66274936  0.12649687  1
  In  In65  1  0.50971107  0.65554170  0.62877198  1
  In  In66  1  0.83503557  -0.00253697  0.11718159  1
  In  In67  1  0.84396385  0.00523662  0.62151663  1
  In  In68  1  0.83810939  0.32096429  0.14715333  1
  In  In69  1  0.84584182  0.34731139  0.61285497  1
  In  In70  1  0.81338789  0.66612550  0.12900656  1
  In  In71  1  0.83897561  0.66407850  0.62151941  1
  In  In72  1  0.66504256  0.34012172  0.75428879  1
  In  In73  1  0.00251791  0.00268686  0.25380338  1
  In  In74  1  0.16109294  0.16775609  -0.00068306  1
  In  In75  1  0.66293043  -0.00372648  0.25098441  1
  In  In76  1  0.17192861  0.50121122  -0.00686038  1
  In  In77  1  0.66421636  -0.00606498  0.74674120  1
  In  In78  1  0.49950662  0.16573311  -0.00045870  1
  In  In79  1  0.16619645  0.16552385  0.50439011  1
  In  In80  1  0.33269441  0.33459740  0.24857421  1
  In  In81  1  0.50489651  0.16870853  0.49219563  1
  In  In82  1  0.82330692  0.50249132  0.00637430  1
  In  In83  1  0.00082587  0.66163792  0.26308638  1
  In  In84  1  0.50738756  0.83323486  0.50807714  1
  In  In85  1  0.16970097  0.83640018  -0.01089491  1
  Cu  Cu86  1  0.33559076  0.00373536  0.50701528  1
  Cu  Cu87  1  0.49927056  0.50627080  0.25169521  1
  Cu  Cu88  1  0.33664897  0.33608503  -0.00586442  1
  Cu  Cu89  1  0.49175498  0.16551319  0.75190043  1
  Cu  Cu90  1  0.66832094  0.33127416  0.49254592  1
  Cu  Cu91  1  0.67321878  0.33529809  0.00581350  1
  Cu  Cu92  1  0.00107418  -0.00200831  0.50314002  1
  Cu  Cu93  1  0.16712260  0.50041030  0.74246784  1
  Cu  Cu94  1  0.67631248  0.00063280  0.49928932  1
  Cu  Cu95  1  0.83402041  0.17486499  0.74951520  1
  Cu  Cu96  1  0.66389355  0.66610895  0.00040546  1
  Cu  Cu97  1  -0.01086911  0.67274140  -0.01108108  1
  Cu  Cu98  1  0.50102240  0.50377021  0.74854819  1
  Cu  Cu99  1  0.33137266  0.34722957  0.50085891  1
  Cu  Cu100  1  0.83719264  0.82742511  0.25148964  1
  Cu  Cu101  1  0.67021498  -0.00005442  0.00233864  1
  Cu  Cu102  1  0.16688643  0.50980512  0.25799421  1
  Cu  Cu103  1  0.83456653  0.50346167  0.73775454  1
  Cu  Cu104  1  0.50228593  0.82437646  0.24718169  1
  Cu  Cu105  1  0.33348640  0.67100404  0.50284015  1
  Cu  Cu106  1  -0.00750909  0.33350498  0.00552580  1
  Cu  Cu107  1  0.34812362  0.65802981  0.00139928  1
  Cu  Cu108  1  0.18017451  0.83510664  0.25483415  1
  Cu  Cu109  1  0.33115670  -0.00998007  0.00041268  1
  Cu  Cu110  1  -0.00178235  0.33251782  0.50245051  1
  Cu  Cu111  1  0.66831066  0.66318645  0.50026832  1
  Cu  Cu112  1  0.49219382  0.83039222  0.75075634  1
  Cu  Cu113  1  -0.01591796  0.00155715  -0.00628389  1
  Cu  Cu114  1  0.15862233  0.82590265  0.74508506  1
  Se  Se115  1  0.06646056  0.07631409  0.05719441  1
  Se  Se116  1  0.07677140  0.07889150  0.56574021  1
  Se  Se117  1  0.07718692  0.41748232  0.05851624  1
  Se  Se118  1  0.08220555  0.41883434  0.55207126  1
  Se  Se119  1  0.07552986  0.74608592  0.05057053  1
  Se  Se120  1  0.08057788  0.74567076  0.54793630  1
  Se  Se121  1  0.40465883  0.07833307  0.05939046  1
  Se  Se122  1  0.41217001  0.09175548  0.56235861  1
  Se  Se123  1  0.42021562  0.42122351  0.04390940  1
  Se  Se124  1  0.41972533  0.42662032  0.55213551  1
  Se  Se125  1  0.42416420  0.74666698  0.05553634  1
  Se  Se126  1  0.41266633  0.74798560  0.56655140  1
  Se  Se127  1  0.75077743  0.08602974  0.05400910  1
  Se  Se128  1  0.76049185  0.08645530  0.54985949  1
  Se  Se129  1  0.74901505  0.40870215  0.07262143  1
  Se  Se130  1  0.75152223  0.41571358  0.54527947  1
  Se  Se131  1  0.74931345  0.75026845  0.05283604  1
  Se  Se132  1  0.75165411  0.74788005  0.55209725  1
  Se  Se133  1  0.25343188  0.26297902  0.05701087  1
  Se  Se134  1  0.25547131  0.26119742  0.55979229  1
  Se  Se135  1  0.25590868  0.58926466  0.06050591  1
  Se  Se136  1  0.24863072  0.58611022  0.55364781  1
  Se  Se137  1  0.24902670  0.91658387  0.06428505  1
  Se  Se138  1  0.25000975  0.91700486  0.55303219  1
  Se  Se139  1  0.58876418  0.25289783  0.06218242  1
  Se  Se140  1  0.59089568  0.25631719  0.56029606  1
  Se  Se141  1  0.59093302  0.57850968  0.05904568  1
  Se  Se142  1  0.57871524  0.58119116  0.54835279  1
  Se  Se143  1  0.58190923  0.91408939  0.04667626  1
  Se  Se144  1  0.59829683  0.92738687  0.56554773  1
  Se  Se145  1  0.91217859  0.25395879  0.06312765  1
  Se  Se146  1  0.91605497  0.24441613  0.55180694  1
  Se  Se147  1  0.92159013  0.59447312  0.05942793  1
  Se  Se148  1  0.89482565  0.56110718  0.55400709  1
  Se  Se149  1  0.90930598  0.90969588  0.04648870  1
  Se  Se150  1  0.91616163  0.91309325  0.55371232  1
  Se  Se151  1  0.08062800  0.25522180  0.44062740  1
  Se  Se152  1  0.07077493  0.25749453  0.94034907  1
  Se  Se153  1  0.06305266  0.60809647  0.45115480  1
  Se  Se154  1  0.07347630  0.58956449  0.93702379  1
  Se  Se155  1  0.08949843  0.91509674  0.45505368  1
  Se  Se156  1  0.06941077  0.92180086  0.93678131  1
  Se  Se157  1  0.41085965  0.26564892  0.44007599  1
  Se  Se158  1  0.40807826  0.24733952  0.93438013  1
  Se  Se159  1  0.41876746  0.58922965  0.44940771  1
  Se  Se160  1  0.42465720  0.57466984  0.94342371  1
  Se  Se161  1  0.42021700  0.92631179  0.44674734  1
  Se  Se162  1  0.41520339  0.90560302  0.95065136  1
  Se  Se163  1  0.75207536  0.24327127  0.44436130  1
  Se  Se164  1  0.75964272  0.25294764  0.95584886  1
  Se  Se165  1  0.74814320  0.57956260  0.44357246  1
  Se  Se166  1  0.74958866  0.59420999  0.93730227  1
  Se  Se167  1  0.75751698  0.91045987  0.45055273  1
  Se  Se168  1  0.74876417  0.91850279  0.94228683  1
  Se  Se169  1  0.26340209  0.08510368  0.44140728  1
  Se  Se170  1  0.24774153  0.06897859  0.94186840  1
  Se  Se171  1  0.24143078  0.42942247  0.45358323  1
  Se  Se172  1  0.25187386  0.40679781  0.93110276  1
  Se  Se173  1  0.25423172  0.75782013  0.44962128  1
  Se  Se174  1  0.25978113  0.73333032  0.94225976  1
  Se  Se175  1  0.60018767  0.07970337  0.43645711  1
  Se  Se176  1  0.59123760  0.07723792  0.93759753  1
  Se  Se177  1  0.57994401  0.41653948  0.44650998  1
  Se  Se178  1  0.59081728  0.41467330  0.94946386  1
  Se  Se179  1  0.59023598  0.74705168  0.44010889  1
  Se  Se180  1  0.58057003  0.74832738  0.94553467  1
  Se  Se181  1  0.92214360  0.08238955  0.44705403  1
  Se  Se182  1  0.90913349  0.09392017  0.94225857  1
  Se  Se183  1  0.91593471  0.41263761  0.44514052  1
  Se  Se184  1  0.92154767  0.42057446  0.94343476  1
  Se  Se185  1  0.91287922  0.74262008  0.45319695  1
  Se  Se186  1  0.90703719  0.75440473  0.93566296  1
  Se  Se187  1  0.24451841  0.24730252  0.31147781  1
  Se  Se188  1  0.26404468  0.26302620  0.79853183  1
  Se  Se189  1  0.24930411  0.59253401  0.31024868  1
  Se  Se190  1  0.24803295  0.58239426  0.80037447  1
  Se  Se191  1  0.25969063  0.91876961  0.30951707  1
  Se  Se192  1  0.24006565  0.90553160  0.80512731  1
  Se  Se193  1  0.54703228  0.21317259  0.31114566  1
  Se  Se194  1  0.57524619  0.24240783  0.81150206  1
  Se  Se195  1  0.59090176  0.58320897  0.30320622  1
  Se  Se196  1  0.58552749  0.58703924  0.80106237  1
  Se  Se197  1  0.57627538  0.90366706  0.31386913  1
  Se  Se198  1  0.57462506  0.90972471  0.81135961  1
  Se  Se199  1  0.91747972  0.25517990  0.30025096  1
  Se  Se200  1  0.91652389  0.25985776  0.80256476  1
  Se  Se201  1  0.90744875  0.56819692  0.31310539  1
  Se  Se202  1  0.91763049  0.58679949  0.79302773  1
  Se  Se203  1  0.92004967  0.90263035  0.31264795  1
  Se  Se204  1  0.93128204  0.94410326  0.80104763  1
  Se  Se205  1  0.09219577  0.08642144  0.31740260  1
  Se  Se206  1  0.10325584  0.10998589  0.80210570  1
  Se  Se207  1  0.08537360  0.42515378  0.31000103  1
  Se  Se208  1  0.08142902  0.41729378  0.79609388  1
  Se  Se209  1  0.09240311  0.75986659  0.31353548  1
  Se  Se210  1  0.07347252  0.74385745  0.79817671  1
  Se  Se211  1  0.40928766  0.07195776  0.29551058  1
  Se  Se212  1  0.41440927  0.07682592  0.80457225  1
  Se  Se213  1  0.41669415  0.42645495  0.31265272  1
  Se  Se214  1  0.42083443  0.41700580  0.80154115  1
  Se  Se215  1  0.41893592  0.74499234  0.30504203  1
  Se  Se216  1  0.41166267  0.74467566  0.80524471  1
  Se  Se217  1  0.75979176  0.08141736  0.30807312  1
  Se  Se218  1  0.74854788  0.09433630  0.80573241  1
  Se  Se219  1  0.72278946  0.38547599  0.31123545  1
  Se  Se220  1  0.75985247  0.43146383  0.81010330  1
  Se  Se221  1  0.75251270  0.74281504  0.30132647  1
  Se  Se222  1  0.73849283  0.75407673  0.79396717  1
  Se  Se223  1  0.24835330  0.07979782  0.20386537  1
  Se  Se224  1  0.26236242  0.06586526  0.69926833  1
  Se  Se225  1  0.24073711  0.42949782  0.19006923  1
  Se  Se226  1  0.25524998  0.41806537  0.69289122  1
  Se  Se227  1  0.25441148  0.74360147  0.20216333  1
  Se  Se228  1  0.24776306  0.74354011  0.69629690  1
  Se  Se229  1  0.57512732  0.08226915  0.18628566  1
  Se  Se230  1  0.57473624  0.09274767  0.68939426  1
  Se  Se231  1  0.57805113  0.41665378  0.19999867  1
  Se  Se232  1  0.58270271  0.42572657  0.68644136  1
  Se  Se233  1  0.59110913  0.74561011  0.19550966  1
  Se  Se234  1  0.57815176  0.75284283  0.69558596  1
  Se  Se235  1  0.90630945  0.08479275  0.19357045  1
  Se  Se236  1  0.91461016  0.08855575  0.69693355  1
  Se  Se237  1  0.93534376  0.39806395  0.20764874  1
  Se  Se238  1  0.92042035  0.41466077  0.69327789  1
  Se  Se239  1  0.92070708  0.75122411  0.19024376  1
  Se  Se240  1  0.91663316  0.74607103  0.69290584  1
  Se  Se241  1  0.09809177  0.23183478  0.20162852  1
  Se  Se242  1  0.10319827  0.23731165  0.69364700  1
  Se  Se243  1  0.08584292  0.57937795  0.18869561  1
  Se  Se244  1  0.08207079  0.58363217  0.69075601  1
  Se  Se245  1  0.09354090  0.90733136  0.19343496  1
  Se  Se246  1  0.07922101  0.91165672  0.69095362  1
  Se  Se247  1  0.42025956  0.24841275  0.18383620  1
  Se  Se248  1  0.41736705  0.25490000  0.69797813  1
  Se  Se249  1  0.41498335  0.58553363  0.19593646  1
  Se  Se250  1  0.41492107  0.58617260  0.69624862  1
  Se  Se251  1  0.41848946  0.90957420  0.19608260  1
  Se  Se252  1  0.40998003  0.91745193  0.70022482  1
  Se  Se253  1  0.73203155  0.25706595  0.20809255  1
  Se  Se254  1  0.75493328  0.25574569  0.68908615  1
  Se  Se255  1  0.77658012  0.56218479  0.19951855  1
  Se  Se256  1  0.74548336  0.58633463  0.69112983  1
  Se  Se257  1  0.75701547  0.90802444  0.19073829  1
  Se  Se258  1  0.76380906  0.91188137  0.69226907  1
