# generated using pymatgen
data_In86Cu29Se144
_symmetry_space_group_name_H-M   'P 1'
_cell_length_a   17.58001377
_cell_length_b   17.57969347
_cell_length_c   23.44359186
_cell_angle_alpha   90.01212959
_cell_angle_beta   89.99398314
_cell_angle_gamma   89.99474160
_symmetry_Int_Tables_number   1
_chemical_formula_structural   In86Cu29Se144
_chemical_formula_sum   'In86 Cu29 Se144'
_cell_volume   7245.27121273
_cell_formula_units_Z   1
loop_
 _symmetry_equiv_pos_site_id
 _symmetry_equiv_pos_as_xyz
  1  'x, y, z'
loop_
 _atom_site_type_symbol
 _atom_site_label
 _atom_site_symmetry_multiplicity
 _atom_site_fract_x
 _atom_site_fract_y
 _atom_site_fract_z
 _atom_site_occupancy
  In  In0  1  0.01138884  0.17405983  0.12632628  1
  In  In1  1  -0.00019805  0.16649923  0.62516221  1
  In  In2  1  -0.01451031  0.48458281  0.10484421  1
  In  In3  1  -0.01028673  0.51192679  0.63064123  1
  In  In4  1  -0.00595158  0.82773477  0.11363413  1
  In  In5  1  -0.00062926  0.83454228  0.63205482  1
  In  In6  1  0.33399689  0.16166944  0.13909504  1
  In  In7  1  0.32550169  0.17279625  0.61341914  1
  In  In8  1  0.33062716  0.49939326  0.12919907  1
  In  In9  1  0.34066599  0.50582788  0.61947265  1
  In  In10  1  0.34071283  0.82175018  0.13168231  1
  In  In11  1  0.31000439  0.83708436  0.63157770  1
  In  In12  1  0.66436651  0.17200468  0.13771695  1
  In  In13  1  0.68535620  0.16483130  0.62011811  1
  In  In14  1  0.67710847  0.49272962  0.13313164  1
  In  In15  1  0.66152497  0.49273543  0.61953727  1
  In  In16  1  0.66561751  0.82865724  0.12944296  1
  In  In17  1  0.67290951  0.82115459  0.62497802  1
  In  In18  1  0.17733696  -0.00251844  0.38924042  1
  In  In19  1  0.15962290  0.00533035  0.87064205  1
  In  In20  1  0.15679715  0.32404805  0.36799996  1
  In  In21  1  0.14942901  0.36006038  0.88900101  1
  In  In22  1  0.17911163  0.67182021  0.37460498  1
  In  In23  1  0.14702570  0.65722202  0.85425691  1
  In  In24  1  0.49744103  -0.00590774  0.36770970  1
  In  In25  1  0.48983451  -0.00835575  0.87647383  1
  In  In26  1  0.51295985  0.34839319  0.36751035  1
  In  In27  1  0.49802780  0.32684212  0.87273493  1
  In  In28  1  0.49478403  0.65823183  0.37220829  1
  In  In29  1  0.49924850  0.67975705  0.87339334  1
  In  In30  1  0.83042659  0.00652564  0.38074408  1
  In  In31  1  0.83769861  -0.02182622  0.87270773  1
  In  In32  1  0.83499562  0.33418594  0.37628550  1
  In  In33  1  0.84935674  0.35213444  0.86265221  1
  In  In34  1  0.83014580  0.67619044  0.38226541  1
  In  In35  1  0.83951732  0.66338416  0.88268177  1
  In  In36  1  -0.00646378  0.17338722  0.38245558  1
  In  In37  1  -0.00017119  0.16835414  0.86420926  1
  In  In38  1  -0.00000473  0.48728682  0.37674899  1
  In  In39  1  -0.00388334  0.50213335  0.87793509  1
  In  In40  1  0.00058307  0.83826596  0.38432906  1
  In  In41  1  -0.02403417  0.80910439  0.83523810  1
  In  In42  1  0.32405345  0.15855680  0.37026520  1
  In  In43  1  0.33127043  0.16625441  0.87352644  1
  In  In44  1  0.34278810  0.51209517  0.36740883  1
  In  In45  1  0.29745632  0.50558518  0.89071899  1
  In  In46  1  0.33051584  0.83074325  0.37515707  1
  In  In47  1  0.34523737  0.82515824  0.87614476  1
  In  In48  1  0.67549759  0.17462092  0.37023096  1
  In  In49  1  0.66187244  0.17786808  0.87136356  1
  In  In50  1  0.67104861  0.50105352  0.37490090  1
  In  In51  1  0.68596849  0.50188476  0.87855278  1
  In  In52  1  0.67264173  0.83814920  0.36936104  1
  In  In53  1  0.66505811  0.82985705  0.88255366  1
  In  In54  1  0.16788341  0.00718394  0.12724735  1
  In  In55  1  0.15144935  -0.02053739  0.60750601  1
  In  In56  1  0.16182735  0.34144963  0.13153049  1
  In  In57  1  0.16166954  0.32388334  0.62281615  1
  In  In58  1  0.17825711  0.66474224  0.12497343  1
  In  In59  1  0.14798900  0.68721308  0.64762915  1
  In  In60  1  0.51031518  -0.01094866  0.13693983  1
  In  In61  1  0.48932302  -0.00231851  0.62048532  1
  In  In62  1  0.50038097  0.33390579  0.13540357  1
  In  In63  1  0.49473385  0.35010149  0.62062962  1
  In  In64  1  0.49299437  0.67471776  0.13066997  1
  In  In65  1  0.50604910  0.65845819  0.62821813  1
  In  In66  1  0.83321996  -0.01499543  0.12639862  1
  In  In67  1  0.83657671  0.00155603  0.62086816  1
  In  In68  1  0.83167198  0.33871827  0.13046222  1
  In  In69  1  0.83329529  0.33339708  0.62484429  1
  In  In70  1  0.82859721  0.65438864  0.11817919  1
  In  In71  1  0.84639977  0.67765196  0.61865382  1
  In  In72  1  0.16686413  0.16924950  -0.00422019  1
  In  In73  1  0.82753665  0.16905584  0.00681521  1
  In  In74  1  0.00015889  0.00449140  0.24842398  1
  In  In75  1  0.49985126  0.82912867  0.49642402  1
  In  In76  1  0.50353824  0.17455428  0.49043723  1
  In  In77  1  0.49932916  0.16042690  -0.00144456  1
  In  In78  1  0.16935994  0.50540662  0.49822467  1
  In  In79  1  0.16074700  0.82823488  -0.00894204  1
  In  In80  1  0.00275644  0.66038985  0.24082708  1
  In  In81  1  0.49963010  0.50216557  0.01049889  1
  In  In82  1  0.32801097  0.33758660  0.75424674  1
  In  In83  1  0.67121223  0.00076014  0.75117368  1
  In  In84  1  0.32892076  0.00125160  0.74267700  1
  In  In85  1  0.66918077  0.66229851  0.75140823  1
  Cu  Cu86  1  0.33384123  0.66630194  0.00317572  1
  Cu  Cu87  1  0.16972370  0.83539169  0.25226715  1
  Cu  Cu88  1  0.16159490  0.49791726  0.75318331  1
  Cu  Cu89  1  0.50669862  0.17383093  0.74393732  1
  Cu  Cu90  1  0.83630947  0.49857325  0.25026359  1
  Cu  Cu91  1  0.49927580  0.82925750  0.25266437  1
  Cu  Cu92  1  0.66178952  -0.01155520  0.00514338  1
  Cu  Cu93  1  0.67057814  0.67250733  0.00271153  1
  Cu  Cu94  1  0.83358373  0.17068252  0.25717118  1
  Cu  Cu95  1  0.16987544  0.49695277  0.25129753  1
  Cu  Cu96  1  0.33216402  0.33868917  0.49414997  1
  Cu  Cu97  1  0.49944934  0.16777617  0.25767749  1
  Cu  Cu98  1  -0.00590683  0.33391357  0.50165730  1
  Cu  Cu99  1  0.67064341  0.65806959  0.50278121  1
  Cu  Cu100  1  0.00195547  0.67062736  0.50750767  1
  Cu  Cu101  1  -0.01049191  -0.00537446  -0.00641666  1
  Cu  Cu102  1  0.50370726  0.50332793  0.24752493  1
  Cu  Cu103  1  0.32901277  0.67185293  0.50180978  1
  Cu  Cu104  1  0.33885820  -0.01277627  0.00610628  1
  Cu  Cu105  1  0.82349157  0.83180962  0.25186113  1
  Cu  Cu106  1  0.16839863  0.16597080  0.25235485  1
  Cu  Cu107  1  0.49956721  0.49501210  0.75034181  1
  Cu  Cu108  1  0.83323229  0.17000128  0.74380458  1
  Cu  Cu109  1  0.67098270  0.34021068  0.00418535  1
  Cu  Cu110  1  0.00282356  -0.00030929  0.50407862  1
  Cu  Cu111  1  0.83373758  0.49891125  0.74910859  1
  Cu  Cu112  1  0.67164537  0.33504014  0.49467994  1
  Cu  Cu113  1  0.67416483  -0.00447660  0.49632319  1
  Cu  Cu114  1  0.16111426  0.17044871  0.74837583  1
  Se  Se115  1  0.07249262  0.07259775  0.05297669  1
  Se  Se116  1  0.08522263  0.08925336  0.55308013  1
  Se  Se117  1  0.09145890  0.41204691  0.05157855  1
  Se  Se118  1  0.07634913  0.41855267  0.55892942  1
  Se  Se119  1  0.07894792  0.73377089  0.05446353  1
  Se  Se120  1  0.08530323  0.75283444  0.56108933  1
  Se  Se121  1  0.41357846  0.07366929  0.06451813  1
  Se  Se122  1  0.41235024  0.08293569  0.54913440  1
  Se  Se123  1  0.41127182  0.40342178  0.06114752  1
  Se  Se124  1  0.41504713  0.42302529  0.54568688  1
  Se  Se125  1  0.41773382  0.75059465  0.05321484  1
  Se  Se126  1  0.41353394  0.74663610  0.56375641  1
  Se  Se127  1  0.73607767  0.07575589  0.06384244  1
  Se  Se128  1  0.75678494  0.08195222  0.54725885  1
  Se  Se129  1  0.75621491  0.42117088  0.05595898  1
  Se  Se130  1  0.75247170  0.41623508  0.55330173  1
  Se  Se131  1  0.75318105  0.75456841  0.05790226  1
  Se  Se132  1  0.75190307  0.74930858  0.55003604  1
  Se  Se133  1  0.25245646  0.24475376  0.06718610  1
  Se  Se134  1  0.24620586  0.25860638  0.54598664  1
  Se  Se135  1  0.25389930  0.57895788  0.05419465  1
  Se  Se136  1  0.24519624  0.59804012  0.56488742  1
  Se  Se137  1  0.24845985  0.91319108  0.06143399  1
  Se  Se138  1  0.26717220  0.92712519  0.55272620  1
  Se  Se139  1  0.58901554  0.25488372  0.05823751  1
  Se  Se140  1  0.58958158  0.25766528  0.55872132  1
  Se  Se141  1  0.59365126  0.59141454  0.06603160  1
  Se  Se142  1  0.57975951  0.57995663  0.55245970  1
  Se  Se143  1  0.57791167  0.90856031  0.05920140  1
  Se  Se144  1  0.59206009  0.92127611  0.55843853  1
  Se  Se145  1  0.92462618  0.25759757  0.05951622  1
  Se  Se146  1  0.91425494  0.24783887  0.55602394  1
  Se  Se147  1  0.92783248  0.59664249  0.05033802  1
  Se  Se148  1  0.91536727  0.58153649  0.55052625  1
  Se  Se149  1  0.90899386  0.91244079  0.04883232  1
  Se  Se150  1  0.92021633  0.91395056  0.55686414  1
  Se  Se151  1  0.08199225  0.25509312  0.44844343  1
  Se  Se152  1  0.06615141  0.25470684  0.94380329  1
  Se  Se153  1  0.07589702  0.59478334  0.43827982  1
  Se  Se154  1  0.10440452  0.57011390  0.93566982  1
  Se  Se155  1  0.08741715  0.91485025  0.45229707  1
  Se  Se156  1  0.07158299  0.91883595  0.93338501  1
  Se  Se157  1  0.41291820  0.26271277  0.43090937  1
  Se  Se158  1  0.40603536  0.25487408  0.94618064  1
  Se  Se159  1  0.41139191  0.58788060  0.44809676  1
  Se  Se160  1  0.41348752  0.58472492  0.94068135  1
  Se  Se161  1  0.41038359  0.92585376  0.44407261  1
  Se  Se162  1  0.42108193  0.90727977  0.95052007  1
  Se  Se163  1  0.75438221  0.24730390  0.44614000  1
  Se  Se164  1  0.74680095  0.26010158  0.94069505  1
  Se  Se165  1  0.75554269  0.58020840  0.44595694  1
  Se  Se166  1  0.75395408  0.58521630  0.95310153  1
  Se  Se167  1  0.75585460  0.90909447  0.44434697  1
  Se  Se168  1  0.74968027  0.91486542  0.94802503  1
  Se  Se169  1  0.24326730  0.10048039  0.45039777  1
  Se  Se170  1  0.26139656  0.06880690  0.94477655  1
  Se  Se171  1  0.25226781  0.41773297  0.43173234  1
  Se  Se172  1  0.26129882  0.39364444  0.95433959  1
  Se  Se173  1  0.24670580  0.75617607  0.44955351  1
  Se  Se174  1  0.25220840  0.73548744  0.93586598  1
  Se  Se175  1  0.59163590  0.07447599  0.43732688  1
  Se  Se176  1  0.59363395  0.07206428  0.93879564  1
  Se  Se177  1  0.58593456  0.42081058  0.44658944  1
  Se  Se178  1  0.58575972  0.41352413  0.94266669  1
  Se  Se179  1  0.59304888  0.73997370  0.43934292  1
  Se  Se180  1  0.58031569  0.74815343  0.95029885  1
  Se  Se181  1  0.91887182  0.08157694  0.44890679  1
  Se  Se182  1  0.91368740  0.08382727  0.93794661  1
  Se  Se183  1  0.91276698  0.41890220  0.44896484  1
  Se  Se184  1  0.91030381  0.42081073  0.94601610  1
  Se  Se185  1  0.91883474  0.75269977  0.45038666  1
  Se  Se186  1  0.92907282  0.76038095  0.93189402  1
  Se  Se187  1  0.25258082  0.25247746  0.30230208  1
  Se  Se188  1  0.23529675  0.24893960  0.81376107  1
  Se  Se189  1  0.24918243  0.58761162  0.30106725  1
  Se  Se190  1  0.25342277  0.57789405  0.80109650  1
  Se  Se191  1  0.24618786  0.91869313  0.30993693  1
  Se  Se192  1  0.25183131  0.91463819  0.81292540  1
  Se  Se193  1  0.58789208  0.25306691  0.30335638  1
  Se  Se194  1  0.58485626  0.25854237  0.79878868  1
  Se  Se195  1  0.58598790  0.58320158  0.30538601  1
  Se  Se196  1  0.57910980  0.57313173  0.81432407  1
  Se  Se197  1  0.58500471  0.91564483  0.30134935  1
  Se  Se198  1  0.57794379  0.91039261  0.80829768  1
  Se  Se199  1  0.92099835  0.25303932  0.30624698  1
  Se  Se200  1  0.91674280  0.25283484  0.79816188  1
  Se  Se201  1  0.91516806  0.58077956  0.31071808  1
  Se  Se202  1  0.91215618  0.58252366  0.80655555  1
  Se  Se203  1  0.91186547  0.91069327  0.30748188  1
  Se  Se204  1  0.92377474  0.93351652  0.79188005  1
  Se  Se205  1  0.08726174  0.08678186  0.31440432  1
  Se  Se206  1  0.07995362  0.08135659  0.79751945  1
  Se  Se207  1  0.08072989  0.41657528  0.30151354  1
  Se  Se208  1  0.07545640  0.41591070  0.80455942  1
  Se  Se209  1  0.08273118  0.75583500  0.30775229  1
  Se  Se210  1  0.10348850  0.76868404  0.79128216  1
  Se  Se211  1  0.41363533  0.08037958  0.30356249  1
  Se  Se212  1  0.42658434  0.09315359  0.80344540  1
  Se  Se213  1  0.41820015  0.42024891  0.30091401  1
  Se  Se214  1  0.41440181  0.42771138  0.81657153  1
  Se  Se215  1  0.41422315  0.74842386  0.30743157  1
  Se  Se216  1  0.41518089  0.74616563  0.79966196  1
  Se  Se217  1  0.75192070  0.08042954  0.30463825  1
  Se  Se218  1  0.75960472  0.09257325  0.81266555  1
  Se  Se219  1  0.75286514  0.41619731  0.30586686  1
  Se  Se220  1  0.74511368  0.41710059  0.79949990  1
  Se  Se221  1  0.74745415  0.74218555  0.30451199  1
  Se  Se222  1  0.75446736  0.75380529  0.81147656  1
  Se  Se223  1  0.24870726  0.07501649  0.20344533  1
  Se  Se224  1  0.24165249  0.09521150  0.68603698  1
  Se  Se225  1  0.25525433  0.41233341  0.20004173  1
  Se  Se226  1  0.24226780  0.42450527  0.68719867  1
  Se  Se227  1  0.24921605  0.74742095  0.19980672  1
  Se  Se228  1  0.26976406  0.73160531  0.69989750  1
  Se  Se229  1  0.58260267  0.08477065  0.20199780  1
  Se  Se230  1  0.57959979  0.08739124  0.68481050  1
  Se  Se231  1  0.58823840  0.41492076  0.19996358  1
  Se  Se232  1  0.58216164  0.41491510  0.69512843  1
  Se  Se233  1  0.58419017  0.74608315  0.20006358  1
  Se  Se234  1  0.57718117  0.75746528  0.69678621  1
  Se  Se235  1  0.90775434  0.09393183  0.18796492  1
  Se  Se236  1  0.91455658  0.08336405  0.69285374  1
  Se  Se237  1  0.92264097  0.42161158  0.19381269  1
  Se  Se238  1  0.91685212  0.41532663  0.69484105  1
  Se  Se239  1  0.90834272  0.75704293  0.19078860  1
  Se  Se240  1  0.91677719  0.74694581  0.69871925  1
  Se  Se241  1  0.08470677  0.25133720  0.20128283  1
  Se  Se242  1  0.07734784  0.25474791  0.69639620  1
  Se  Se243  1  0.09064953  0.56824132  0.18396222  1
  Se  Se244  1  0.07511716  0.58359824  0.70392904  1
  Se  Se245  1  0.08520104  0.90597268  0.18821899  1
  Se  Se246  1  0.09566234  0.91375468  0.69419619  1
  Se  Se247  1  0.41733137  0.24997620  0.20221337  1
  Se  Se248  1  0.41670939  0.24870656  0.68763193  1
  Se  Se249  1  0.41523891  0.58339320  0.19582682  1
  Se  Se250  1  0.41935444  0.57851773  0.69599526  1
  Se  Se251  1  0.41377974  0.91341633  0.19985505  1
  Se  Se252  1  0.42427679  0.90602584  0.69275582  1
  Se  Se253  1  0.75245472  0.25494312  0.20049501  1
  Se  Se254  1  0.74600298  0.25297926  0.69530528  1
  Se  Se255  1  0.75405675  0.58545462  0.19881134  1
  Se  Se256  1  0.75614530  0.57850994  0.68533436  1
  Se  Se257  1  0.74439193  0.91913635  0.19866185  1
  Se  Se258  1  0.75770258  0.90815052  0.69219137  1
