# generated using pymatgen
data_In86Cu29Se144
_symmetry_space_group_name_H-M   'P 1'
_cell_length_a   17.63985051
_cell_length_b   17.63741209
_cell_length_c   23.50090404
_cell_angle_alpha   90.00363736
_cell_angle_beta   90.03144200
_cell_angle_gamma   90.01856023
_symmetry_Int_Tables_number   1
_chemical_formula_structural   In86Cu29Se144
_chemical_formula_sum   'In86 Cu29 Se144'
_cell_volume   7311.63061520
_cell_formula_units_Z   1
loop_
 _symmetry_equiv_pos_site_id
 _symmetry_equiv_pos_as_xyz
  1  'x, y, z'
loop_
 _atom_site_type_symbol
 _atom_site_label
 _atom_site_symmetry_multiplicity
 _atom_site_fract_x
 _atom_site_fract_y
 _atom_site_fract_z
 _atom_site_occupancy
  In  In0  1  0.00797555  0.16858813  0.11788549  1
  In  In1  1  0.00256958  0.16015233  0.62764087  1
  In  In2  1  -0.00107809  0.48364107  0.12141935  1
  In  In3  1  0.00332317  0.49994515  0.61683561  1
  In  In4  1  -0.00099877  0.86483423  0.11075420  1
  In  In5  1  0.00143189  0.84669374  0.62684768  1
  In  In6  1  0.33470811  0.16742892  0.12871096  1
  In  In7  1  0.33066996  0.15522676  0.61506898  1
  In  In8  1  0.32458309  0.50766257  0.13402487  1
  In  In9  1  0.33363893  0.49789643  0.61504332  1
  In  In10  1  0.34501336  0.82899469  0.13173563  1
  In  In11  1  0.34877877  0.84058657  0.62088404  1
  In  In12  1  0.66862492  0.15530057  0.10657454  1
  In  In13  1  0.64848698  0.18352879  0.65063794  1
  In  In14  1  0.67255796  0.49077716  0.12376686  1
  In  In15  1  0.65468597  0.47917454  0.61827556  1
  In  In16  1  0.67761956  0.84660636  0.10960239  1
  In  In17  1  0.66232847  0.84617344  0.63234603  1
  In  In18  1  0.17677748  0.01482052  0.36110873  1
  In  In19  1  0.17944542  0.00902912  0.87404170  1
  In  In20  1  0.16630389  0.33119043  0.37070060  1
  In  In21  1  0.16775014  0.32988686  0.89109840  1
  In  In22  1  0.16791231  0.65177905  0.37436525  1
  In  In23  1  0.15803351  0.66915796  0.87966205  1
  In  In24  1  0.45530239  0.02892668  0.41991760  1
  In  In25  1  0.49785632  0.00901307  0.87436739  1
  In  In26  1  0.48993324  0.34317999  0.38078595  1
  In  In27  1  0.49847222  0.31463924  0.86632222  1
  In  In28  1  0.48886217  0.67526605  0.38334607  1
  In  In29  1  0.51343785  0.67253312  0.87086299  1
  In  In30  1  0.83257693  -0.00059502  0.36673257  1
  In  In31  1  0.82807528  -0.00477900  0.87904358  1
  In  In32  1  0.84731425  0.32487539  0.36879980  1
  In  In33  1  0.82875374  0.33312183  0.88216336  1
  In  In34  1  0.82077638  0.66691527  0.37130867  1
  In  In35  1  0.83155120  0.66367635  0.88087809  1
  In  In36  1  0.00638257  0.17655513  0.36142308  1
  In  In37  1  0.02474312  0.15443080  0.90521450  1
  In  In38  1  0.01154995  0.48856634  0.37935300  1
  In  In39  1  0.00111136  0.49277638  0.88978665  1
  In  In40  1  -0.00734264  0.84453389  0.36692916  1
  In  In41  1  -0.00976146  0.84414208  0.88723974  1
  In  In42  1  0.32542262  0.16859013  0.37166733  1
  In  In43  1  0.34914951  0.15723774  0.88733041  1
  In  In44  1  0.33144371  0.49622768  0.37196004  1
  In  In45  1  0.33334326  0.49281160  0.87696424  1
  In  In46  1  0.34303047  0.84268742  0.36165329  1
  In  In47  1  0.32381859  0.85160441  0.87457363  1
  In  In48  1  0.65783391  0.15169456  0.37565709  1
  In  In49  1  0.65975259  0.16439464  0.87362530  1
  In  In50  1  0.66609638  0.49637872  0.38469174  1
  In  In51  1  0.67367863  0.49713890  0.87015444  1
  In  In52  1  0.65838394  0.83038394  0.37650641  1
  In  In53  1  0.63884480  0.87667402  0.91723640  1
  In  In54  1  0.16106016  0.01593684  0.12878337  1
  In  In55  1  0.16013201  0.01081097  0.62505995  1
  In  In56  1  0.17050066  0.33196092  0.12531360  1
  In  In57  1  0.16963269  0.33031424  0.61794902  1
  In  In58  1  0.18698557  0.66321141  0.12677771  1
  In  In59  1  0.17266374  0.66580699  0.61962101  1
  In  In60  1  0.49809743  -0.00894457  0.11586625  1
  In  In61  1  0.50431525  0.00277488  0.62421327  1
  In  In62  1  0.50116113  0.31757521  0.12882536  1
  In  In63  1  0.50265929  0.33504055  0.62132469  1
  In  In64  1  0.48570224  0.67933615  0.12651007  1
  In  In65  1  0.50131719  0.65912158  0.61851451  1
  In  In66  1  0.85766606  0.05368552  0.06539872  1
  In  In67  1  0.82883891  0.00751242  0.63958862  1
  In  In68  1  0.84644797  0.34151000  0.10791345  1
  In  In69  1  0.82446102  0.32931635  0.62748715  1
  In  In70  1  0.84045748  0.66606268  0.12139354  1
  In  In71  1  0.84393412  0.66184538  0.62856904  1
  In  In72  1  0.33451035  0.32772596  0.74729546  1
  In  In73  1  0.65983520  0.67092176  0.25114938  1
  In  In74  1  0.66302146  -0.00637727  0.24363245  1
  In  In75  1  0.16500256  0.83274735  0.49825734  1
  In  In76  1  0.33334752  0.67312342  0.73756858  1
  In  In77  1  0.17409118  0.82777711  0.00598458  1
  In  In78  1  0.67079241  0.32371807  0.24531017  1
  In  In79  1  0.82962089  0.16737888  0.50192511  1
  In  In80  1  -0.00180097  0.67316110  0.76307007  1
  In  In81  1  0.82756313  0.83121933  0.50042195  1
  In  In82  1  0.49555937  0.50478632  0.00059551  1
  In  In83  1  -0.00550556  0.32756856  0.76647542  1
  In  In84  1  0.67377422  0.66899629  0.75477484  1
  In  In85  1  0.00186856  0.66643104  0.25044698  1
  Cu  Cu86  1  0.16406962  0.85371568  0.74800956  1
  Cu  Cu87  1  0.32917758  0.32872890  0.49545651  1
  Cu  Cu88  1  0.83244966  0.49082407  0.75084813  1
  Cu  Cu89  1  0.16740859  0.83683706  0.24124273  1
  Cu  Cu90  1  0.01076951  0.65223355  0.00746604  1
  Cu  Cu91  1  0.66001014  0.00208371  0.50841541  1
  Cu  Cu92  1  0.66645800  0.32810256  0.50440736  1
  Cu  Cu93  1  0.49550422  0.50360624  0.25287788  1
  Cu  Cu94  1  0.16734559  0.49258540  0.25126446  1
  Cu  Cu95  1  -0.00040741  0.00826825  0.49959617  1
  Cu  Cu96  1  -0.00741721  0.65935119  0.49746013  1
  Cu  Cu97  1  0.84032457  0.15906226  0.22975199  1
  Cu  Cu98  1  0.83243280  0.83907923  0.76372413  1
  Cu  Cu99  1  0.50225036  0.84059431  0.25094242  1
  Cu  Cu100  1  0.16467354  0.50608408  0.75141760  1
  Cu  Cu101  1  0.33580078  0.33213542  0.00422753  1
  Cu  Cu102  1  0.50067818  0.84175985  0.75400728  1
  Cu  Cu103  1  0.83784261  0.49398377  0.24731996  1
  Cu  Cu104  1  0.16832660  0.16839696  0.75613851  1
  Cu  Cu105  1  0.66616930  0.66147377  -0.00237538  1
  Cu  Cu106  1  0.32987602  0.00708743  0.00366263  1
  Cu  Cu107  1  0.83736157  0.16182656  0.76170783  1
  Cu  Cu108  1  0.16525601  0.16922365  0.24519721  1
  Cu  Cu109  1  0.67099368  0.65891353  0.50326285  1
  Cu  Cu110  1  0.32753786  0.65624905  0.49642873  1
  Cu  Cu111  1  0.00337355  0.33588568  0.49407400  1
  Cu  Cu112  1  0.66315064  0.33369134  -0.00306199  1
  Cu  Cu113  1  0.84032345  0.84583615  0.24142886  1
  Cu  Cu114  1  0.49481017  0.16094326  0.25447000  1
  Se  Se115  1  0.08595582  0.08222295  0.04900822  1
  Se  Se116  1  0.08313032  0.09115740  0.55081433  1
  Se  Se117  1  0.09266000  0.41582195  0.05489270  1
  Se  Se118  1  0.08619248  0.41527769  0.55198797  1
  Se  Se119  1  0.07821546  0.74305334  0.06797377  1
  Se  Se120  1  0.06731423  0.74380240  0.55868114  1
  Se  Se121  1  0.41759965  0.08721538  0.05713698  1
  Se  Se122  1  0.41882225  0.07395259  0.55011819  1
  Se  Se123  1  0.41556511  0.41194406  0.06551748  1
  Se  Se124  1  0.41388741  0.40902722  0.55169176  1
  Se  Se125  1  0.42001102  0.76143602  0.05178581  1
  Se  Se126  1  0.40763616  0.73688602  0.55644074  1
  Se  Se127  1  0.71409273  0.05450063  0.03426532  1
  Se  Se128  1  0.74374712  0.08162604  0.56573029  1
  Se  Se129  1  0.74779416  0.41887376  0.04778837  1
  Se  Se130  1  0.75451112  0.41176494  0.55302866  1
  Se  Se131  1  0.75045131  0.74046586  0.05453952  1
  Se  Se132  1  0.74323175  0.74256788  0.56605099  1
  Se  Se133  1  0.25302943  0.24712977  0.05695452  1
  Se  Se134  1  0.24847301  0.24562781  0.55115742  1
  Se  Se135  1  0.26172352  0.58574441  0.05390540  1
  Se  Se136  1  0.24203138  0.57658265  0.55056817  1
  Se  Se137  1  0.25636146  0.92373683  0.06633621  1
  Se  Se138  1  0.25025769  0.92221305  0.55950526  1
  Se  Se139  1  0.58256692  0.25144184  0.05223548  1
  Se  Se140  1  0.58880771  0.24353136  0.56023685  1
  Se  Se141  1  0.58788714  0.58926993  0.06524042  1
  Se  Se142  1  0.58441083  0.57526526  0.55276916  1
  Se  Se143  1  0.57407603  0.90520707  0.04557245  1
  Se  Se144  1  0.58062629  0.90914447  0.55483446  1
  Se  Se145  1  0.89036084  0.21965073  0.05674890  1
  Se  Se146  1  0.92555631  0.25798927  0.55867609  1
  Se  Se147  1  0.91866152  0.57566291  0.05751595  1
  Se  Se148  1  0.91096212  0.57912646  0.55309462  1
  Se  Se149  1  0.89606968  0.90850812  0.04072807  1
  Se  Se150  1  0.91508519  0.92971217  0.55692829  1
  Se  Se151  1  0.08013867  0.24874051  0.43970762  1
  Se  Se152  1  0.05943090  0.28105712  0.95426547  1
  Se  Se153  1  0.08227512  0.58154610  0.44716049  1
  Se  Se154  1  0.09448731  0.57618423  0.94971034  1
  Se  Se155  1  0.07415921  0.92365188  0.43944082  1
  Se  Se156  1  0.09162122  0.92225489  0.94550783  1
  Se  Se157  1  0.41392759  0.24753575  0.44208761  1
  Se  Se158  1  0.42320542  0.25442576  0.94983218  1
  Se  Se159  1  0.41490857  0.57637821  0.44357176  1
  Se  Se160  1  0.41356321  0.59428062  0.93509819  1
  Se  Se161  1  0.41925971  0.89276555  0.44697063  1
  Se  Se162  1  0.40905702  0.92807810  0.94319374  1
  Se  Se163  1  0.74178023  0.25404547  0.43577062  1
  Se  Se164  1  0.74247801  0.24606111  0.94457249  1
  Se  Se165  1  0.75470713  0.58290322  0.44584384  1
  Se  Se166  1  0.74680867  0.57766217  0.94486224  1
  Se  Se167  1  0.74153632  0.92960730  0.44244655  1
  Se  Se168  1  0.77952045  0.88735975  0.94855579  1
  Se  Se169  1  0.25051604  0.07845757  0.44065730  1
  Se  Se170  1  0.24763189  0.09145659  0.95097975  1
  Se  Se171  1  0.24789349  0.41371546  0.44082997  1
  Se  Se172  1  0.25580803  0.41854082  0.95090010  1
  Se  Se173  1  0.25440497  0.74432105  0.43699246  1
  Se  Se174  1  0.26116157  0.74418968  0.93958211  1
  Se  Se175  1  0.58138050  0.09036098  0.45692966  1
  Se  Se176  1  0.59665723  0.06843315  0.94614764  1
  Se  Se177  1  0.58350866  0.41145598  0.44971945  1
  Se  Se178  1  0.58151478  0.41362365  0.93744129  1
  Se  Se179  1  0.58980835  0.74316427  0.44779498  1
  Se  Se180  1  0.58089360  0.74691438  0.95051085  1
  Se  Se181  1  0.91777639  0.08304577  0.43604801  1
  Se  Se182  1  0.91699831  0.07335590  0.94892659  1
  Se  Se183  1  0.91401130  0.41282271  0.44150258  1
  Se  Se184  1  0.90587056  0.41981515  0.95020543  1
  Se  Se185  1  0.92119511  0.74525258  0.43713697  1
  Se  Se186  1  0.93552277  0.72951757  0.94268041  1
  Se  Se187  1  0.24858811  0.25168080  0.29969671  1
  Se  Se188  1  0.24731283  0.24814635  0.81645002  1
  Se  Se189  1  0.25048749  0.58061473  0.30090493  1
  Se  Se190  1  0.24681849  0.58785058  0.80696642  1
  Se  Se191  1  0.25017001  0.91837936  0.29798728  1
  Se  Se192  1  0.25506340  0.93083775  0.79782632  1
  Se  Se193  1  0.57820264  0.24382216  0.31063710  1
  Se  Se194  1  0.58488061  0.24273480  0.79784853  1
  Se  Se195  1  0.57874064  0.57816713  0.31363570  1
  Se  Se196  1  0.57676609  0.57290398  0.80250495  1
  Se  Se197  1  0.57553654  0.92063373  0.31452885  1
  Se  Se198  1  0.58375452  0.91151919  0.81780133  1
  Se  Se199  1  0.91253418  0.24415196  0.29146538  1
  Se  Se200  1  0.91758446  0.23150709  0.82735914  1
  Se  Se201  1  0.91097596  0.57634792  0.31017773  1
  Se  Se202  1  0.91285085  0.56898399  0.81096070  1
  Se  Se203  1  0.92054904  0.92988928  0.29544442  1
  Se  Se204  1  0.92362710  0.92209070  0.80866074  1
  Se  Se205  1  0.07924686  0.08309432  0.29545042  1
  Se  Se206  1  0.08377333  0.09113101  0.81446045  1
  Se  Se207  1  0.07902553  0.41179049  0.30104866  1
  Se  Se208  1  0.09284852  0.42371908  0.81306434  1
  Se  Se209  1  0.09245933  0.75898582  0.30915122  1
  Se  Se210  1  0.09175449  0.77074566  0.81109568  1
  Se  Se211  1  0.42302180  0.07878714  0.31758443  1
  Se  Se212  1  0.41337825  0.08813338  0.80535425  1
  Se  Se213  1  0.41550586  0.41439964  0.30226693  1
  Se  Se214  1  0.42292641  0.42147968  0.80598395  1
  Se  Se215  1  0.42374709  0.74801425  0.30050677  1
  Se  Se216  1  0.41644953  0.75805995  0.80815099  1
  Se  Se217  1  0.75591952  0.09480741  0.29843445  1
  Se  Se218  1  0.74871581  0.07888883  0.80936018  1
  Se  Se219  1  0.75205211  0.41992108  0.30752503  1
  Se  Se220  1  0.75135526  0.40759545  0.80407508  1
  Se  Se221  1  0.75840237  0.76826470  0.30105441  1
  Se  Se222  1  0.75094778  0.75947883  0.82007510  1
  Se  Se223  1  0.25299475  0.08410728  0.19853731  1
  Se  Se224  1  0.24530206  0.09130690  0.69330403  1
  Se  Se225  1  0.25313817  0.41167907  0.19799173  1
  Se  Se226  1  0.24205960  0.42461610  0.69192949  1
  Se  Se227  1  0.25577744  0.75046933  0.19919234  1
  Se  Se228  1  0.23660544  0.76849778  0.68657852  1
  Se  Se229  1  0.57680637  0.09175236  0.18688762  1
  Se  Se230  1  0.60517675  0.05812373  0.69384112  1
  Se  Se231  1  0.57692332  0.42326702  0.19488736  1
  Se  Se232  1  0.58716940  0.40528371  0.69572029  1
  Se  Se233  1  0.58476970  0.76671060  0.18791794  1
  Se  Se234  1  0.57308071  0.75305342  0.69483118  1
  Se  Se235  1  0.91081058  0.07421565  0.16935239  1
  Se  Se236  1  0.92101210  0.08812276  0.70127865  1
  Se  Se237  1  0.91486335  0.40774348  0.19288863  1
  Se  Se238  1  0.92066201  0.41778907  0.69208164  1
  Se  Se239  1  0.92096736  0.76052786  0.18709239  1
  Se  Se240  1  0.91057057  0.76297729  0.69802207  1
  Se  Se241  1  0.08110793  0.25102488  0.19185768  1
  Se  Se242  1  0.08845937  0.25134492  0.69695765  1
  Se  Se243  1  0.08969549  0.57712289  0.18962607  1
  Se  Se244  1  0.08418528  0.58730885  0.69350587  1
  Se  Se245  1  0.08248842  0.91950937  0.19170059  1
  Se  Se246  1  0.07565473  0.93175498  0.69605599  1
  Se  Se247  1  0.41592457  0.24864186  0.20193638  1
  Se  Se248  1  0.41866404  0.23932857  0.68500917  1
  Se  Se249  1  0.41911930  0.58735905  0.19631591  1
  Se  Se250  1  0.42191089  0.57159545  0.69008703  1
  Se  Se251  1  0.42023487  0.92427506  0.19635709  1
  Se  Se252  1  0.41928002  0.92161975  0.69564720  1
  Se  Se253  1  0.75356795  0.24094341  0.17686634  1
  Se  Se254  1  0.76106063  0.24725956  0.70443176  1
  Se  Se255  1  0.75560318  0.57945798  0.19518709  1
  Se  Se256  1  0.75648590  0.57531913  0.69168870  1
  Se  Se257  1  0.76176393  0.92341110  0.18099481  1
  Se  Se258  1  0.75114892  0.91483860  0.70298609  1
