# generated using pymatgen
data_In86Cu29Se144
_symmetry_space_group_name_H-M   'P 1'
_cell_length_a   17.59372401
_cell_length_b   17.58796869
_cell_length_c   23.44691650
_cell_angle_alpha   90.00233565
_cell_angle_beta   89.97960228
_cell_angle_gamma   90.04209060
_symmetry_Int_Tables_number   1
_chemical_formula_structural   In86Cu29Se144
_chemical_formula_sum   'In86 Cu29 Se144'
_cell_volume   7255.36140990
_cell_formula_units_Z   1
loop_
 _symmetry_equiv_pos_site_id
 _symmetry_equiv_pos_as_xyz
  1  'x, y, z'
loop_
 _atom_site_type_symbol
 _atom_site_label
 _atom_site_symmetry_multiplicity
 _atom_site_fract_x
 _atom_site_fract_y
 _atom_site_fract_z
 _atom_site_occupancy
  In  In0  1  0.01137524  0.15592184  0.13311053  1
  In  In1  1  -0.01079577  0.16745493  0.62450922  1
  In  In2  1  -0.01356490  0.49676665  0.13151622  1
  In  In3  1  0.00855319  0.48579612  0.61952709  1
  In  In4  1  0.00190666  0.85163231  0.12521574  1
  In  In5  1  0.00500317  0.84157134  0.61844591  1
  In  In6  1  0.33529865  0.16436797  0.12684868  1
  In  In7  1  0.33988744  0.15186206  0.63434782  1
  In  In8  1  0.33260433  0.50240068  0.12956194  1
  In  In9  1  0.32759211  0.50120228  0.62790273  1
  In  In10  1  0.34375270  0.83933615  0.14069811  1
  In  In11  1  0.32818138  0.84365881  0.63394747  1
  In  In12  1  0.64486347  0.16127490  0.12606974  1
  In  In13  1  0.66134267  0.16425199  0.62071180  1
  In  In14  1  0.67521747  0.50325739  0.12807780  1
  In  In15  1  0.65250534  0.49877847  0.62321650  1
  In  In16  1  0.66299533  0.83730953  0.12895764  1
  In  In17  1  0.67693910  0.83061419  0.61908045  1
  In  In18  1  0.16052447  0.00013545  0.37423442  1
  In  In19  1  0.18820594  0.02007502  0.85495124  1
  In  In20  1  0.18123205  0.34085773  0.37150840  1
  In  In21  1  0.17513429  0.31199613  0.87780251  1
  In  In22  1  0.18164342  0.66719741  0.38158705  1
  In  In23  1  0.17685932  0.66601747  0.87330725  1
  In  In24  1  0.51848472  0.00681755  0.34848727  1
  In  In25  1  0.50137695  -0.00282666  0.87562652  1
  In  In26  1  0.49567600  0.33407969  0.37836854  1
  In  In27  1  0.48389088  0.31610564  0.86502589  1
  In  In28  1  0.50683330  0.68019167  0.35525443  1
  In  In29  1  0.49592331  0.68282138  0.87698926  1
  In  In30  1  0.83026758  0.00160535  0.37576558  1
  In  In31  1  0.81780051  -0.00851789  0.86807509  1
  In  In32  1  0.82782098  0.30664529  0.38142451  1
  In  In33  1  0.82950434  0.34197228  0.86872193  1
  In  In34  1  0.83119788  0.68455705  0.38268433  1
  In  In35  1  0.83911095  0.67365685  0.87680280  1
  In  In36  1  -0.00904089  0.15365477  0.37005504  1
  In  In37  1  0.01825337  0.16180180  0.87443060  1
  In  In38  1  0.02135565  0.50257911  0.37750651  1
  In  In39  1  0.00042907  0.50415663  0.87611772  1
  In  In40  1  -0.00730356  0.84955995  0.38221163  1
  In  In41  1  -0.01542388  0.84457504  0.88018181  1
  In  In42  1  0.34746550  0.16651013  0.36360423  1
  In  In43  1  0.33646811  0.16410994  0.87552858  1
  In  In44  1  0.33376588  0.49854320  0.37016913  1
  In  In45  1  0.33986847  0.50212348  0.86720600  1
  In  In46  1  0.33674551  0.83369913  0.36954900  1
  In  In47  1  0.34639950  0.83780756  0.86660340  1
  In  In48  1  0.67286709  0.16161620  0.38417451  1
  In  In49  1  0.65024481  0.14881447  0.86627481  1
  In  In50  1  0.65496451  0.50052382  0.37622482  1
  In  In51  1  0.67414871  0.49641751  0.86981304  1
  In  In52  1  0.66817636  0.84058659  0.36809385  1
  In  In53  1  0.64647119  0.85121294  0.89189923  1
  In  In54  1  0.15959864  0.00406611  0.12923326  1
  In  In55  1  0.17968451  -0.00721088  0.63229997  1
  In  In56  1  0.18395974  0.31554904  0.13557292  1
  In  In57  1  0.16333334  0.33963087  0.62180331  1
  In  In58  1  0.18305529  0.67682907  0.12499720  1
  In  In59  1  0.17489029  0.67258961  0.61512894  1
  In  In60  1  0.49874533  0.00375427  0.13308090  1
  In  In61  1  0.48866424  0.00473969  0.63189955  1
  In  In62  1  0.49041557  0.31198523  0.12330960  1
  In  In63  1  0.51165277  0.31518377  0.62887688  1
  In  In64  1  0.48115793  0.69660577  0.15010331  1
  In  In65  1  0.49527596  0.66106387  0.62531593  1
  In  In66  1  0.83836513  -0.01004642  0.12950513  1
  In  In67  1  0.82924567  0.00026242  0.62281645  1
  In  In68  1  0.83645128  0.34484958  0.13081161  1
  In  In69  1  0.82893555  0.31140047  0.61466289  1
  In  In70  1  0.81261203  0.67586903  0.13374313  1
  In  In71  1  0.82678282  0.68566338  0.61596823  1
  In  In72  1  0.17295481  0.84518345  -0.00759946  1
  In  In73  1  0.83259991  0.50383150  -0.00268867  1
  In  In74  1  0.66005711  0.67251869  0.74877248  1
  In  In75  1  0.16716664  0.16497176  0.50158015  1
  In  In76  1  0.84087086  0.50232186  0.50171312  1
  In  In77  1  0.00512675  0.66580857  0.25401292  1
  In  In78  1  0.49429020  0.50211282  0.49761725  1
  In  In79  1  0.00259842  0.32646880  0.74851050  1
  In  In80  1  0.00396745  0.66551668  0.75283958  1
  In  In81  1  0.50118373  0.83808125  0.48924177  1
  In  In82  1  0.82949743  0.16625953  -0.00176869  1
  In  In83  1  0.50630392  0.50429744  -0.00125683  1
  In  In84  1  0.16763555  0.49696178  0.01000537  1
  In  In85  1  0.66573814  0.33010096  0.25193367  1
  Cu  Cu86  1  0.33231017  0.32713341  -0.00098431  1
  Cu  Cu87  1  0.33743313  0.00471097  -0.00030715  1
  Cu  Cu88  1  0.16511435  0.17053230  0.25442581  1
  Cu  Cu89  1  0.50142501  0.16469520  0.75048332  1
  Cu  Cu90  1  0.16706298  0.82945541  0.74421143  1
  Cu  Cu91  1  0.00087695  0.00561164  0.00101825  1
  Cu  Cu92  1  0.33746077  0.33068565  0.49634927  1
  Cu  Cu93  1  0.16836916  0.49734222  0.25110317  1
  Cu  Cu94  1  0.82847836  0.83927721  0.74990432  1
  Cu  Cu95  1  0.33566633  -0.00076204  0.50367314  1
  Cu  Cu96  1  0.00827880  0.67226696  0.49555440  1
  Cu  Cu97  1  0.65792261  0.32528984  -0.00587759  1
  Cu  Cu98  1  0.00655242  0.33228540  0.49535449  1
  Cu  Cu99  1  0.16501591  0.83760671  0.25259208  1
  Cu  Cu100  1  0.00666576  0.32385886  0.00602758  1
  Cu  Cu101  1  0.33421752  0.67206341  0.49759661  1
  Cu  Cu102  1  0.49567617  0.49485686  0.74612370  1
  Cu  Cu103  1  -0.00247387  0.67653459  0.00319345  1
  Cu  Cu104  1  0.83306013  0.83817234  0.25424145  1
  Cu  Cu105  1  0.66149886  -0.00257126  0.00252340  1
  Cu  Cu106  1  0.66484042  0.00108312  0.49684822  1
  Cu  Cu107  1  0.49948811  0.49584314  0.25041288  1
  Cu  Cu108  1  -0.00578531  0.00018112  0.49915842  1
  Cu  Cu109  1  0.17095256  0.49544970  0.74940879  1
  Cu  Cu110  1  0.82325095  0.49349646  0.74092212  1
  Cu  Cu111  1  0.84120957  0.49534781  0.25931033  1
  Cu  Cu112  1  0.82990435  0.15962018  0.25157425  1
  Cu  Cu113  1  0.66093832  0.67872428  0.00856204  1
  Cu  Cu114  1  0.82893578  0.16261161  0.74476066  1
  Se  Se115  1  0.08619195  0.08586340  0.05332604  1
  Se  Se116  1  0.07873138  0.07438286  0.56194349  1
  Se  Se117  1  0.07747137  0.40766090  0.06897601  1
  Se  Se118  1  0.09118648  0.41765038  0.54393938  1
  Se  Se119  1  0.08361837  0.75307881  0.05988291  1
  Se  Se120  1  0.08820469  0.75659103  0.55194361  1
  Se  Se121  1  0.42000004  0.08377811  0.05780832  1
  Se  Se122  1  0.41833800  0.08494052  0.55479795  1
  Se  Se123  1  0.41152041  0.41176038  0.05674677  1
  Se  Se124  1  0.41440657  0.40888913  0.56165615  1
  Se  Se125  1  0.41566954  0.76020833  0.06533650  1
  Se  Se126  1  0.41349022  0.75222576  0.55783252  1
  Se  Se127  1  0.74357211  0.07802844  0.06230879  1
  Se  Se128  1  0.74848425  0.08266855  0.55228373  1
  Se  Se129  1  0.74044451  0.40556875  0.05255757  1
  Se  Se130  1  0.74638562  0.41522446  0.55901006  1
  Se  Se131  1  0.75154602  0.75934845  0.05624318  1
  Se  Se132  1  0.74577685  0.75261559  0.54152481  1
  Se  Se133  1  0.25032810  0.24407709  0.05374382  1
  Se  Se134  1  0.25981947  0.25249658  0.56095550  1
  Se  Se135  1  0.26478823  0.59475156  0.05323049  1
  Se  Se136  1  0.25653574  0.58240550  0.55106514  1
  Se  Se137  1  0.25742228  0.92542006  0.06232061  1
  Se  Se138  1  0.25199849  0.91508731  0.55476212  1
  Se  Se139  1  0.57730811  0.24427102  0.04955861  1
  Se  Se140  1  0.58038888  0.24474592  0.54920016  1
  Se  Se141  1  0.58684618  0.59080546  0.06627500  1
  Se  Se142  1  0.59007321  0.59623098  0.55174517  1
  Se  Se143  1  0.57837004  0.91983127  0.06159047  1
  Se  Se144  1  0.58378663  0.92349370  0.55879433  1
  Se  Se145  1  0.91756528  0.25198468  0.06411042  1
  Se  Se146  1  0.92303714  0.24639572  0.54504958  1
  Se  Se147  1  0.91692488  0.59546041  0.06262452  1
  Se  Se148  1  0.93140843  0.59472313  0.56244311  1
  Se  Se149  1  0.91748343  0.91977818  0.05070260  1
  Se  Se150  1  0.91124825  0.91537334  0.55310051  1
  Se  Se151  1  0.08364895  0.25070362  0.43342609  1
  Se  Se152  1  0.08799398  0.24341640  0.95088222  1
  Se  Se153  1  0.09416343  0.58619454  0.44938373  1
  Se  Se154  1  0.07797427  0.59343882  0.94695896  1
  Se  Se155  1  0.08627118  0.92078384  0.45035911  1
  Se  Se156  1  0.08203264  0.93397434  0.93424139  1
  Se  Se157  1  0.41640189  0.24384756  0.44381221  1
  Se  Se158  1  0.41888057  0.24491622  0.94802461  1
  Se  Se159  1  0.41651614  0.59834819  0.43389607  1
  Se  Se160  1  0.40983998  0.58989315  0.94244197  1
  Se  Se161  1  0.41536895  0.93370859  0.43343970  1
  Se  Se162  1  0.41465037  0.91705197  0.94506492  1
  Se  Se163  1  0.74116090  0.24953788  0.45700428  1
  Se  Se164  1  0.74243891  0.25227039  0.93301639  1
  Se  Se165  1  0.74607716  0.58603628  0.44194572  1
  Se  Se166  1  0.73604613  0.59699409  0.94377274  1
  Se  Se167  1  0.74688168  0.91620478  0.44318098  1
  Se  Se168  1  0.75218060  0.91868002  0.95144898  1
  Se  Se169  1  0.25931331  0.08110322  0.43978629  1
  Se  Se170  1  0.25005991  0.08130403  0.94399290  1
  Se  Se171  1  0.25731771  0.41973052  0.44633000  1
  Se  Se172  1  0.25564624  0.41415544  0.94145793  1
  Se  Se173  1  0.25497227  0.76186908  0.44696530  1
  Se  Se174  1  0.26171613  0.74732916  0.94171104  1
  Se  Se175  1  0.57680464  0.07231058  0.43796189  1
  Se  Se176  1  0.57997556  0.08203777  0.94863925  1
  Se  Se177  1  0.59148332  0.40640583  0.44877687  1
  Se  Se178  1  0.58388694  0.40945031  0.93334869  1
  Se  Se179  1  0.59027972  0.74104675  0.43686755  1
  Se  Se180  1  0.57260216  0.75465657  0.95473157  1
  Se  Se181  1  0.91124286  0.08500295  0.44751307  1
  Se  Se182  1  0.91807330  0.07858645  0.93636306  1
  Se  Se183  1  0.92322895  0.41168878  0.43590516  1
  Se  Se184  1  0.92827645  0.40533662  0.94534151  1
  Se  Se185  1  0.92000224  0.75723740  0.45096483  1
  Se  Se186  1  0.91149389  0.75594973  0.95053360  1
  Se  Se187  1  0.25492548  0.25060141  0.30364580  1
  Se  Se188  1  0.25719068  0.24725277  0.80387363  1
  Se  Se189  1  0.24839628  0.58410577  0.30450559  1
  Se  Se190  1  0.25075564  0.58315537  0.80172343  1
  Se  Se191  1  0.24727780  0.91948271  0.30731029  1
  Se  Se192  1  0.25155783  0.90971389  0.79979692  1
  Se  Se193  1  0.57916564  0.24180106  0.31265499  1
  Se  Se194  1  0.58655908  0.25131884  0.80136744  1
  Se  Se195  1  0.58684999  0.57899893  0.29916382  1
  Se  Se196  1  0.57395641  0.57616668  0.80932226  1
  Se  Se197  1  0.56330875  0.88509995  0.29875174  1
  Se  Se198  1  0.58983004  0.91932655  0.80709021  1
  Se  Se199  1  0.91214067  0.24517322  0.30379803  1
  Se  Se200  1  0.90872201  0.23912469  0.81005755  1
  Se  Se201  1  0.91462017  0.58144209  0.31875562  1
  Se  Se202  1  0.90235841  0.57147639  0.80378916  1
  Se  Se203  1  0.91734296  0.92292938  0.30500755  1
  Se  Se204  1  0.91535881  0.92088682  0.80156042  1
  Se  Se205  1  0.08177984  0.08168936  0.30205296  1
  Se  Se206  1  0.07718596  0.07817401  0.79734149  1
  Se  Se207  1  0.08608697  0.41409723  0.30404314  1
  Se  Se208  1  0.08949085  0.41947420  0.81219883  1
  Se  Se209  1  0.08736009  0.75782870  0.31620582  1
  Se  Se210  1  0.08713964  0.76070733  0.81373668  1
  Se  Se211  1  0.40109881  0.06242997  0.29567691  1
  Se  Se212  1  0.42000461  0.08146874  0.80618979  1
  Se  Se213  1  0.41813635  0.41267775  0.30506076  1
  Se  Se214  1  0.41187842  0.41138903  0.79934964  1
  Se  Se215  1  0.40808139  0.74970620  0.29513419  1
  Se  Se216  1  0.41532420  0.74284026  0.79889911  1
  Se  Se217  1  0.74437788  0.08211834  0.30668395  1
  Se  Se218  1  0.74468116  0.07973102  0.79846240  1
  Se  Se219  1  0.75671807  0.41594132  0.31678946  1
  Se  Se220  1  0.74291208  0.41088868  0.79556128  1
  Se  Se221  1  0.75260238  0.74936754  0.30393792  1
  Se  Se222  1  0.75152354  0.75747452  0.81150717  1
  Se  Se223  1  0.24292612  0.08868013  0.19499338  1
  Se  Se224  1  0.24823325  0.08207791  0.70217712  1
  Se  Se225  1  0.25404408  0.41609921  0.19746419  1
  Se  Se226  1  0.24954163  0.41031534  0.69464738  1
  Se  Se227  1  0.25032262  0.75446190  0.20197205  1
  Se  Se228  1  0.24973098  0.74350906  0.69376891  1
  Se  Se229  1  0.58535199  0.08052636  0.20399957  1
  Se  Se230  1  0.58360098  0.08324818  0.69406881  1
  Se  Se231  1  0.57656758  0.41631070  0.18613020  1
  Se  Se232  1  0.58256307  0.41378011  0.69528475  1
  Se  Se233  1  0.61124523  0.72712677  0.19267124  1
  Se  Se234  1  0.57403622  0.76104602  0.68665258  1
  Se  Se235  1  0.91598446  0.08047406  0.19598356  1
  Se  Se236  1  0.91470552  0.08040910  0.69372066  1
  Se  Se237  1  0.92187136  0.41054898  0.20683191  1
  Se  Se238  1  0.90940409  0.41452732  0.68612182  1
  Se  Se239  1  0.91611811  0.75741218  0.19335277  1
  Se  Se240  1  0.91168226  0.75523501  0.69378293  1
  Se  Se241  1  0.07982987  0.25316954  0.19960271  1
  Se  Se242  1  0.09282532  0.23896046  0.68906821  1
  Se  Se243  1  0.09313849  0.57917888  0.18750079  1
  Se  Se244  1  0.08933135  0.57481349  0.68952692  1
  Se  Se245  1  0.08032401  0.92108116  0.20149485  1
  Se  Se246  1  0.08251061  0.91431690  0.69457628  1
  Se  Se247  1  0.40972198  0.24981047  0.19981061  1
  Se  Se248  1  0.41700208  0.24794534  0.69716679  1
  Se  Se249  1  0.41506339  0.58143155  0.20004770  1
  Se  Se250  1  0.41416052  0.58219197  0.69550194  1
  Se  Se251  1  0.39599397  0.94771906  0.20395453  1
  Se  Se252  1  0.41579479  0.91697531  0.70137510  1
  Se  Se253  1  0.75458620  0.24146746  0.18762952  1
  Se  Se254  1  0.74724004  0.24704824  0.69170442  1
  Se  Se255  1  0.75752661  0.57436139  0.20299916  1
  Se  Se256  1  0.75327667  0.58488296  0.68456650  1
  Se  Se257  1  0.74822043  0.91901489  0.19917244  1
  Se  Se258  1  0.74538756  0.91700383  0.69257798  1
