# generated using pymatgen
data_In86Cu29Se144
_symmetry_space_group_name_H-M   'P 1'
_cell_length_a   17.57865055
_cell_length_b   17.58235643
_cell_length_c   23.44058728
_cell_angle_alpha   90.01966968
_cell_angle_beta   89.99128823
_cell_angle_gamma   89.98780137
_symmetry_Int_Tables_number   1
_chemical_formula_structural   In86Cu29Se144
_chemical_formula_sum   'In86 Cu29 Se144'
_cell_volume   7244.87773502
_cell_formula_units_Z   1
loop_
 _symmetry_equiv_pos_site_id
 _symmetry_equiv_pos_as_xyz
  1  'x, y, z'
loop_
 _atom_site_type_symbol
 _atom_site_label
 _atom_site_symmetry_multiplicity
 _atom_site_fract_x
 _atom_site_fract_y
 _atom_site_fract_z
 _atom_site_occupancy
  In  In0  1  0.00865481  0.15824245  0.12027839  1
  In  In1  1  0.00862749  0.15342309  0.63568502  1
  In  In2  1  -0.01132627  0.50897475  0.12360837  1
  In  In3  1  0.01726224  0.52804768  0.59935290  1
  In  In4  1  0.00270227  0.83445954  0.12643060  1
  In  In5  1  0.01687743  0.81649688  0.62721886  1
  In  In6  1  0.33501021  0.16383054  0.12533502  1
  In  In7  1  0.31825318  0.16161200  0.62611197  1
  In  In8  1  0.33789274  0.49095483  0.13110310  1
  In  In9  1  0.34853085  0.51388980  0.61645609  1
  In  In10  1  0.37534892  0.81015121  0.16271811  1
  In  In11  1  0.33340761  0.83428423  0.62546574  1
  In  In12  1  0.65300584  0.17576955  0.12470068  1
  In  In13  1  0.67762430  0.15905543  0.62187385  1
  In  In14  1  0.65958499  0.50088395  0.12300450  1
  In  In15  1  0.68003173  0.50918758  0.61137918  1
  In  In16  1  0.62249042  0.85942562  0.16215380  1
  In  In17  1  0.63413692  0.83054511  0.61648371  1
  In  In18  1  0.18230832  -0.01040307  0.39122154  1
  In  In19  1  0.18081082  0.00947809  0.86035298  1
  In  In20  1  0.17353635  0.33037864  0.38232061  1
  In  In21  1  0.15717587  0.32631250  0.87621951  1
  In  In22  1  0.17945229  0.65553862  0.39033775  1
  In  In23  1  0.17815214  0.67308787  0.86052932  1
  In  In24  1  0.49835819  -0.00832009  0.36657037  1
  In  In25  1  0.49150708  0.00806622  0.89009204  1
  In  In26  1  0.50719150  0.34371980  0.36332627  1
  In  In27  1  0.50056843  0.33815125  0.89170037  1
  In  In28  1  0.49401521  0.67158604  0.37052194  1
  In  In29  1  0.50012573  0.66367972  0.87656571  1
  In  In30  1  0.83011095  0.00245757  0.37237963  1
  In  In31  1  0.82803644  -0.01228120  0.87151926  1
  In  In32  1  0.82548797  0.34191126  0.37474892  1
  In  In33  1  0.83564337  0.34911849  0.88061471  1
  In  In34  1  0.82178658  0.66449852  0.37672756  1
  In  In35  1  0.82684883  0.66465128  0.86429219  1
  In  In36  1  0.00453402  0.17308390  0.38036052  1
  In  In37  1  0.01309555  0.16395733  0.87621827  1
  In  In38  1  -0.00288969  0.50743695  0.38935261  1
  In  In39  1  -0.00703393  0.50229738  0.87095968  1
  In  In40  1  0.00471774  0.83857328  0.38408264  1
  In  In41  1  0.00392526  0.83663732  0.85786138  1
  In  In42  1  0.32503025  0.16024222  0.37101489  1
  In  In43  1  0.33696628  0.15633227  0.88189786  1
  In  In44  1  0.33746313  0.50278691  0.37459825  1
  In  In45  1  0.33976315  0.50670354  0.87421558  1
  In  In46  1  0.34224465  0.83378942  0.37143106  1
  In  In47  1  0.34010479  0.83054611  0.87350489  1
  In  In48  1  0.65510841  0.15906242  0.35865404  1
  In  In49  1  0.65454919  0.16088407  0.88772891  1
  In  In50  1  0.66023110  0.49912824  0.37427650  1
  In  In51  1  0.64441848  0.52086965  0.89693339  1
  In  In52  1  0.65222789  0.82251276  0.36016336  1
  In  In53  1  0.66503827  0.82526811  0.87655381  1
  In  In54  1  0.17562317  0.01257206  0.11914257  1
  In  In55  1  0.17303195  -0.00212526  0.62713351  1
  In  In56  1  0.18063206  0.32951381  0.12917100  1
  In  In57  1  0.16265084  0.33243034  0.61996559  1
  In  In58  1  0.18129562  0.67916385  0.12480915  1
  In  In59  1  0.17188752  0.67114802  0.61881403  1
  In  In60  1  0.49286908  -0.00066360  0.12614831  1
  In  In61  1  0.49975676  -0.02599038  0.61998767  1
  In  In62  1  0.49910376  0.33076583  0.12242234  1
  In  In63  1  0.48929249  0.33801484  0.62353839  1
  In  In64  1  0.50015196  0.66657007  0.12964615  1
  In  In65  1  0.49907424  0.66905511  0.62704555  1
  In  In66  1  0.82302228  -0.01693810  0.12113217  1
  In  In67  1  0.83573961  0.00765833  0.62648640  1
  In  In68  1  0.80192442  0.33906444  0.11962278  1
  In  In69  1  0.82325937  0.34120425  0.62370758  1
  In  In70  1  0.81740056  0.64358403  0.11243666  1
  In  In71  1  0.83833841  0.66375335  0.62615379  1
  In  In72  1  0.00080747  -0.00104691  0.25185282  1
  In  In73  1  0.82277530  0.82460017  -0.00633263  1
  In  In74  1  -0.00218563  0.33667944  0.26250677  1
  In  In75  1  0.33157524  0.33417813  0.75532795  1
  In  In76  1  0.17307811  0.49855439  0.00394714  1
  In  In77  1  0.66484509  -0.00669218  0.74806149  1
  In  In78  1  0.00160441  0.66776246  0.25577486  1
  In  In79  1  0.17866477  0.83676006  -0.00976231  1
  In  In80  1  0.82795594  0.17073124  0.00879984  1
  In  In81  1  0.83722112  0.16975221  0.50424284  1
  In  In82  1  -0.00106426  0.33940959  0.74303798  1
  In  In83  1  0.83489760  0.82909166  0.49790431  1
  In  In84  1  0.66231444  0.34195401  0.76179635  1
  In  In85  1  0.49615974  0.16804469  0.48774914  1
  Cu  Cu86  1  0.49423294  0.82860830  0.75178613  1
  Cu  Cu87  1  0.33063334  0.32320744  0.00536965  1
  Cu  Cu88  1  0.17049234  0.16505201  0.25318438  1
  Cu  Cu89  1  0.49631820  0.15450162  0.75500244  1
  Cu  Cu90  1  0.33120089  0.34165208  0.50048948  1
  Cu  Cu91  1  0.66016982  0.66614624  0.49362002  1
  Cu  Cu92  1  0.17280287  0.50608220  0.73900535  1
  Cu  Cu93  1  0.17429035  0.50865420  0.25435985  1
  Cu  Cu94  1  0.00365072  0.33221780  0.50015903  1
  Cu  Cu95  1  0.51208736  0.50759737  0.74851302  1
  Cu  Cu96  1  0.00557347  0.66648899  -0.00820576  1
  Cu  Cu97  1  0.49713547  0.50196606  0.24821104  1
  Cu  Cu98  1  0.33145285  -0.00704176  0.00366339  1
  Cu  Cu99  1  0.00154330  0.33330018  -0.00161803  1
  Cu  Cu100  1  0.82161969  0.49221552  0.24788452  1
  Cu  Cu101  1  0.01098467  -0.00217804  0.50906345  1
  Cu  Cu102  1  0.82246884  0.16202309  0.24305483  1
  Cu  Cu103  1  0.00114388  0.00300636  -0.00760044  1
  Cu  Cu104  1  0.83621642  0.16947350  0.75502693  1
  Cu  Cu105  1  0.82720496  0.81906645  0.24662891  1
  Cu  Cu106  1  0.49381018  0.17101290  0.24500030  1
  Cu  Cu107  1  0.83334306  0.51265010  0.74573853  1
  Cu  Cu108  1  0.16714852  0.82997964  0.74285086  1
  Cu  Cu109  1  0.83234579  0.83428877  0.74339597  1
  Cu  Cu110  1  0.65902748  0.32911392  0.49417688  1
  Cu  Cu111  1  0.17858668  0.83769296  0.25804721  1
  Cu  Cu112  1  0.33554497  0.00219051  0.49993474  1
  Cu  Cu113  1  0.65919747  0.67569870  0.00527635  1
  Cu  Cu114  1  0.34065459  0.67510713  0.49982599  1
  Se  Se115  1  0.08625254  0.08197469  0.04640578  1
  Se  Se116  1  0.09007194  0.08711461  0.55893146  1
  Se  Se117  1  0.07871904  0.41139180  0.06538259  1
  Se  Se118  1  0.08956546  0.41837209  0.54826537  1
  Se  Se119  1  0.08064081  0.74725698  0.05353596  1
  Se  Se120  1  0.08116407  0.74161568  0.54754892  1
  Se  Se121  1  0.41348871  0.08204378  0.05309720  1
  Se  Se122  1  0.41750373  0.08169053  0.56074720  1
  Se  Se123  1  0.41066998  0.41282932  0.05438439  1
  Se  Se124  1  0.42259959  0.42115654  0.54850014  1
  Se  Se125  1  0.42131534  0.76110689  0.06650030  1
  Se  Se126  1  0.42196741  0.75600513  0.55698175  1
  Se  Se127  1  0.73820359  0.07495104  0.06088050  1
  Se  Se128  1  0.74292664  0.06714113  0.54796838  1
  Se  Se129  1  0.76588338  0.44763225  0.05410777  1
  Se  Se130  1  0.74816174  0.41043071  0.54503948  1
  Se  Se131  1  0.73770218  0.75468291  0.06747077  1
  Se  Se132  1  0.73811274  0.74597330  0.55814240  1
  Se  Se133  1  0.24388049  0.24150342  0.05512144  1
  Se  Se134  1  0.25393634  0.25426457  0.55466556  1
  Se  Se135  1  0.26348220  0.59033742  0.05944732  1
  Se  Se136  1  0.25672432  0.58755767  0.54994335  1
  Se  Se137  1  0.25848173  0.91060533  0.06605757  1
  Se  Se138  1  0.25319285  0.91762002  0.55450046  1
  Se  Se139  1  0.59329614  0.26615462  0.05083080  1
  Se  Se140  1  0.58722071  0.24978750  0.56046137  1
  Se  Se141  1  0.57790591  0.58630582  0.05447943  1
  Se  Se142  1  0.57982367  0.58658284  0.55414117  1
  Se  Se143  1  0.57642295  0.90630580  0.06554718  1
  Se  Se144  1  0.58835043  0.92548246  0.54108190  1
  Se  Se145  1  0.92216313  0.26126060  0.06655125  1
  Se  Se146  1  0.92796787  0.25567014  0.56744070  1
  Se  Se147  1  0.92000144  0.58583084  0.04465431  1
  Se  Se148  1  0.89372628  0.57119384  0.55127152  1
  Se  Se149  1  0.92481581  0.91793879  0.05074519  1
  Se  Se150  1  0.92242389  0.91932719  0.56259240  1
  Se  Se151  1  0.08867793  0.24729094  0.45052792  1
  Se  Se152  1  0.08509830  0.24596076  0.95147019  1
  Se  Se153  1  0.07957871  0.59035281  0.45428732  1
  Se  Se154  1  0.08953155  0.58719410  0.93543085  1
  Se  Se155  1  0.09019228  0.91142348  0.45525486  1
  Se  Se156  1  0.08080164  0.92165245  0.93319403  1
  Se  Se157  1  0.40753897  0.26349659  0.43378482  1
  Se  Se158  1  0.41603212  0.24441792  0.94900072  1
  Se  Se159  1  0.41813930  0.58799014  0.44395688  1
  Se  Se160  1  0.43271297  0.56606170  0.94471971  1
  Se  Se161  1  0.41787722  0.92191313  0.44387226  1
  Se  Se162  1  0.41362339  0.90969384  0.94924006  1
  Se  Se163  1  0.73999887  0.24486258  0.43721482  1
  Se  Se164  1  0.74677286  0.25927087  0.94158753  1
  Se  Se165  1  0.74473634  0.57908486  0.44567699  1
  Se  Se166  1  0.74979281  0.60155902  0.94702632  1
  Se  Se167  1  0.74574990  0.90930792  0.43160514  1
  Se  Se168  1  0.73364201  0.92754831  0.94557637  1
  Se  Se169  1  0.25154286  0.09184416  0.45307041  1
  Se  Se170  1  0.24764959  0.07344248  0.94689335  1
  Se  Se171  1  0.24934662  0.42527329  0.44549007  1
  Se  Se172  1  0.25668821  0.40513029  0.93939575  1
  Se  Se173  1  0.25753866  0.75816350  0.44494366  1
  Se  Se174  1  0.26332911  0.73163940  0.94215035  1
  Se  Se175  1  0.59128302  0.07548413  0.43812496  1
  Se  Se176  1  0.57986076  0.08167366  0.95904826  1
  Se  Se177  1  0.57693700  0.41585774  0.44477603  1
  Se  Se178  1  0.60060737  0.40426789  0.95358868  1
  Se  Se179  1  0.58033208  0.75228955  0.44124073  1
  Se  Se180  1  0.57703951  0.75384229  0.94670914  1
  Se  Se181  1  0.92737156  0.07201819  0.44558545  1
  Se  Se182  1  0.91112287  0.08051297  0.93955969  1
  Se  Se183  1  0.91567004  0.40882797  0.44613289  1
  Se  Se184  1  0.92369260  0.42390920  0.94949897  1
  Se  Se185  1  0.92470590  0.73553995  0.44116804  1
  Se  Se186  1  0.92628508  0.74878005  0.93281565  1
  Se  Se187  1  0.24839347  0.25437187  0.30523347  1
  Se  Se188  1  0.24401705  0.23976889  0.81131675  1
  Se  Se189  1  0.25466301  0.59271195  0.30773979  1
  Se  Se190  1  0.25810987  0.57836173  0.79934711  1
  Se  Se191  1  0.25644338  0.92742989  0.30859485  1
  Se  Se192  1  0.24975941  0.90440258  0.80396573  1
  Se  Se193  1  0.58249154  0.25392030  0.29505892  1
  Se  Se194  1  0.57121419  0.24170947  0.81265139  1
  Se  Se195  1  0.57822595  0.58219286  0.30568971  1
  Se  Se196  1  0.59273904  0.58743637  0.80683413  1
  Se  Se197  1  0.58888364  0.92338905  0.29487749  1
  Se  Se198  1  0.57276602  0.91368801  0.81241624  1
  Se  Se199  1  0.90262352  0.23521011  0.30947284  1
  Se  Se200  1  0.91318042  0.25392076  0.81265424  1
  Se  Se201  1  0.90752482  0.57033601  0.30759922  1
  Se  Se202  1  0.92283763  0.59002686  0.79949205  1
  Se  Se203  1  0.90932908  0.90057928  0.30669179  1
  Se  Se204  1  0.91214481  0.92042059  0.79695882  1
  Se  Se205  1  0.09112355  0.08491550  0.31468070  1
  Se  Se206  1  0.07224797  0.07407676  0.80330585  1
  Se  Se207  1  0.08953969  0.43222038  0.31519986  1
  Se  Se208  1  0.09490152  0.42746984  0.80387980  1
  Se  Se209  1  0.09316066  0.75684060  0.31454635  1
  Se  Se210  1  0.08302468  0.74417374  0.79515702  1
  Se  Se211  1  0.41976322  0.08854905  0.30583759  1
  Se  Se212  1  0.41368508  0.07320746  0.80879239  1
  Se  Se213  1  0.41125486  0.41842805  0.30040290  1
  Se  Se214  1  0.43508794  0.42018762  0.80712278  1
  Se  Se215  1  0.42851008  0.76436785  0.29790163  1
  Se  Se216  1  0.41521593  0.74102092  0.80457025  1
  Se  Se217  1  0.74766140  0.07432290  0.29887209  1
  Se  Se218  1  0.74838955  0.09220734  0.81057790  1
  Se  Se219  1  0.73890493  0.41132127  0.30287770  1
  Se  Se220  1  0.75685282  0.43650904  0.81092668  1
  Se  Se221  1  0.74498186  0.73666940  0.30037602  1
  Se  Se222  1  0.74782653  0.75710662  0.80062178  1
  Se  Se223  1  0.25135059  0.08269067  0.19775915  1
  Se  Se224  1  0.25347823  0.07706810  0.69980113  1
  Se  Se225  1  0.24838265  0.41653548  0.20181738  1
  Se  Se226  1  0.25294169  0.42118270  0.68435626  1
  Se  Se227  1  0.25320424  0.74600560  0.20590978  1
  Se  Se228  1  0.25372624  0.74646650  0.69304093  1
  Se  Se229  1  0.57829792  0.08677491  0.19276475  1
  Se  Se230  1  0.57643804  0.08606981  0.68687581  1
  Se  Se231  1  0.57803750  0.41839613  0.19253173  1
  Se  Se232  1  0.58433890  0.42215564  0.68666924  1
  Se  Se233  1  0.59011856  0.73037227  0.20541076  1
  Se  Se234  1  0.58257621  0.74944870  0.69953173  1
  Se  Se235  1  0.90895377  0.08434335  0.18682757  1
  Se  Se236  1  0.91417638  0.08173548  0.70197462  1
  Se  Se237  1  0.90993092  0.41594277  0.19110218  1
  Se  Se238  1  0.91077899  0.43019089  0.68537057  1
  Se  Se239  1  0.91137837  0.74618384  0.18552112  1
  Se  Se240  1  0.91781491  0.74996106  0.69367081  1
  Se  Se241  1  0.08318364  0.24400590  0.19736024  1
  Se  Se242  1  0.09723508  0.24379810  0.69876543  1
  Se  Se243  1  0.09137428  0.58028906  0.18978269  1
  Se  Se244  1  0.08575496  0.58523423  0.68682648  1
  Se  Se245  1  0.09642266  0.91127232  0.19349668  1
  Se  Se246  1  0.08261452  0.91589594  0.69280324  1
  Se  Se247  1  0.41084668  0.25501449  0.19273181  1
  Se  Se248  1  0.42231067  0.24144366  0.69461026  1
  Se  Se249  1  0.41106671  0.58430118  0.19711459  1
  Se  Se250  1  0.41950789  0.58338038  0.69796846  1
  Se  Se251  1  0.39940567  0.94286216  0.20284255  1
  Se  Se252  1  0.41511129  0.91613761  0.69866437  1
  Se  Se253  1  0.74183068  0.25201157  0.19569510  1
  Se  Se254  1  0.75218088  0.24724126  0.69784102  1
  Se  Se255  1  0.74475262  0.58141883  0.19554182  1
  Se  Se256  1  0.74358612  0.58810558  0.69221920  1
  Se  Se257  1  0.75101586  0.91596538  0.20169734  1
  Se  Se258  1  0.74815397  0.90597269  0.68049383  1
