# generated using pymatgen
data_In86Cu29Se144
_symmetry_space_group_name_H-M   'P 1'
_cell_length_a   17.55086675
_cell_length_b   17.55096079
_cell_length_c   23.40760071
_cell_angle_alpha   90.01821574
_cell_angle_beta   90.02599939
_cell_angle_gamma   90.00361061
_symmetry_Int_Tables_number   1
_chemical_formula_structural   In86Cu29Se144
_chemical_formula_sum   'In86 Cu29 Se144'
_cell_volume   7210.34919424
_cell_formula_units_Z   1
loop_
 _symmetry_equiv_pos_site_id
 _symmetry_equiv_pos_as_xyz
  1  'x, y, z'
loop_
 _atom_site_type_symbol
 _atom_site_label
 _atom_site_symmetry_multiplicity
 _atom_site_fract_x
 _atom_site_fract_y
 _atom_site_fract_z
 _atom_site_occupancy
  In  In0  1  0.00051727  0.16977211  0.12314890  1
  In  In1  1  -0.01157539  0.16609262  0.62848245  1
  In  In2  1  0.00210054  0.48206012  0.12654548  1
  In  In3  1  0.01035366  0.50684924  0.61753068  1
  In  In4  1  0.00731591  0.81955234  0.12037024  1
  In  In5  1  -0.01188197  0.83919485  0.64734467  1
  In  In6  1  0.33314525  0.16256381  0.12842510  1
  In  In7  1  0.35013428  0.15942308  0.62538221  1
  In  In8  1  0.33772574  0.50929361  0.13845243  1
  In  In9  1  0.34367243  0.51483108  0.60817630  1
  In  In10  1  0.33878628  0.82946242  0.12167100  1
  In  In11  1  0.33493497  0.81905766  0.62743573  1
  In  In12  1  0.66511807  0.17105042  0.11658351  1
  In  In13  1  0.65940009  0.15689300  0.61381988  1
  In  In14  1  0.65535515  0.50248867  0.14353948  1
  In  In15  1  0.66141071  0.51001167  0.61509726  1
  In  In16  1  0.64652124  0.84382069  0.11804589  1
  In  In17  1  0.65735700  0.83657111  0.63453188  1
  In  In18  1  0.17644659  -0.01204837  0.37057157  1
  In  In19  1  0.15549038  0.00534561  0.88508765  1
  In  In20  1  0.17943150  0.34913913  0.35957839  1
  In  In21  1  0.16874794  0.33037341  0.88903096  1
  In  In22  1  0.17119781  0.64694265  0.37924583  1
  In  In23  1  0.17331804  0.66530547  0.87713422  1
  In  In24  1  0.50118495  0.00810408  0.37757189  1
  In  In25  1  0.51498171  -0.01366071  0.89565981  1
  In  In26  1  0.49760990  0.33390801  0.37337066  1
  In  In27  1  0.49487381  0.32894204  0.87778605  1
  In  In28  1  0.50121032  0.66940366  0.37610934  1
  In  In29  1  0.51249529  0.69350531  0.85056209  1
  In  In30  1  0.83291258  0.01592837  0.37956055  1
  In  In31  1  0.84103500  0.00017954  0.86571854  1
  In  In32  1  0.81530414  0.31329099  0.35581475  1
  In  In33  1  0.81890770  0.32201972  0.88008691  1
  In  In34  1  0.81337769  0.67163402  0.37541893  1
  In  In35  1  0.83903506  0.68464673  0.85333634  1
  In  In36  1  -0.01587269  0.17796467  0.37562650  1
  In  In37  1  0.00392830  0.15924674  0.88448211  1
  In  In38  1  0.01310010  0.49723782  0.37833858  1
  In  In39  1  0.00398544  0.51141832  0.87615653  1
  In  In40  1  0.00093500  0.82822871  0.37705677  1
  In  In41  1  0.00367416  0.84124320  0.86820259  1
  In  In42  1  0.34708917  0.18057145  0.35844198  1
  In  In43  1  0.34158272  0.15447027  0.88959768  1
  In  In44  1  0.33814987  0.49796205  0.36936695  1
  In  In45  1  0.32395919  0.50806878  0.88162021  1
  In  In46  1  0.35065710  0.84438677  0.36822336  1
  In  In47  1  0.34261276  0.82156620  0.88078229  1
  In  In48  1  0.66369028  0.17852667  0.38786606  1
  In  In49  1  0.68214877  0.14612087  0.89849032  1
  In  In50  1  0.64878632  0.49451619  0.37120962  1
  In  In51  1  0.65521396  0.51701567  0.87678943  1
  In  In52  1  0.65085248  0.81166429  0.37119849  1
  In  In53  1  0.66131714  0.83610933  0.86337392  1
  In  In54  1  0.17430561  0.00777988  0.11490478  1
  In  In55  1  0.17125040  -0.01389219  0.63284995  1
  In  In56  1  0.16664785  0.33167746  0.12596518  1
  In  In57  1  0.15497342  0.34309156  0.61962951  1
  In  In58  1  0.18680487  0.67413809  0.11233385  1
  In  In59  1  0.16929504  0.66252500  0.62921745  1
  In  In60  1  0.49607153  -0.01361303  0.11209623  1
  In  In61  1  0.50853138  0.00849194  0.61987746  1
  In  In62  1  0.50895744  0.32817533  0.14588238  1
  In  In63  1  0.50700020  0.33401631  0.60350566  1
  In  In64  1  0.49879068  0.66678608  0.13263534  1
  In  In65  1  0.49909320  0.66815151  0.62020426  1
  In  In66  1  0.82276341  0.02500229  0.12027081  1
  In  In67  1  0.82318149  0.00352151  0.63809673  1
  In  In68  1  0.83446964  0.31982980  0.14274924  1
  In  In69  1  0.83375897  0.32364608  0.61503566  1
  In  In70  1  0.83300548  0.65649956  0.12593983  1
  In  In71  1  0.81867857  0.68233758  0.64166240  1
  In  In72  1  0.33931875  -0.00747587  0.75482231  1
  In  In73  1  0.66643542  0.33668326  0.74673320  1
  In  In74  1  0.33400068  0.33867365  0.75202810  1
  In  In75  1  0.83354301  0.49357136  0.00054361  1
  In  In76  1  0.81942386  0.83986552  0.51574439  1
  In  In77  1  -0.00080540  0.33980626  0.74541142  1
  In  In78  1  0.17151248  0.82820789  0.51050624  1
  In  In79  1  0.82664199  0.49576678  0.49287616  1
  In  In80  1  0.00426877  0.66226821  0.25298107  1
  In  In81  1  0.49575806  0.49867069  0.00499359  1
  In  In82  1  0.17865694  0.17343652  0.49763540  1
  In  In83  1  0.00603042  0.00576623  0.24028767  1
  In  In84  1  0.66656020  0.00712150  0.24753849  1
  In  In85  1  0.83654102  0.83540510  -0.00926309  1
  Cu  Cu86  1  0.82776461  0.84090151  0.25437680  1
  Cu  Cu87  1  0.16026685  0.83574412  0.75719912  1
  Cu  Cu88  1  0.33090704  0.33128378  0.00960453  1
  Cu  Cu89  1  0.83275951  0.15928428  0.75441600  1
  Cu  Cu90  1  0.17180881  0.50716852  0.74908629  1
  Cu  Cu91  1  0.33077520  0.66367642  0.49725382  1
  Cu  Cu92  1  0.32403799  -0.00374723  0.00267035  1
  Cu  Cu93  1  0.18627677  0.82732975  0.24459320  1
  Cu  Cu94  1  0.34509223  0.66445318  0.00109876  1
  Cu  Cu95  1  -0.01121421  -0.00454437  -0.00233742  1
  Cu  Cu96  1  -0.01132577  0.66682743  0.50588048  1
  Cu  Cu97  1  0.82733416  0.50316729  0.25192278  1
  Cu  Cu98  1  0.33210048  0.33561429  0.48654865  1
  Cu  Cu99  1  0.66709835  0.32935918  0.01274121  1
  Cu  Cu100  1  0.00255465  0.33843019  0.49545494  1
  Cu  Cu101  1  -0.00030249  0.32768412  0.00792042  1
  Cu  Cu102  1  0.16507377  0.16039263  0.76230012  1
  Cu  Cu103  1  0.01820946  0.66091501  -0.00469612  1
  Cu  Cu104  1  0.82955236  0.50384766  0.74691930  1
  Cu  Cu105  1  0.51480595  0.16624171  0.74881188  1
  Cu  Cu106  1  0.67675509  -0.00731708  0.50393928  1
  Cu  Cu107  1  0.49784799  0.16095038  0.25203818  1
  Cu  Cu108  1  0.49245944  0.51498527  0.73949077  1
  Cu  Cu109  1  0.49709806  0.82653475  0.24456881  1
  Cu  Cu110  1  0.34992896  0.00765425  0.49429560  1
  Cu  Cu111  1  0.16031345  0.16317578  0.24304473  1
  Cu  Cu112  1  0.16785207  0.50344595  0.24758658  1
  Cu  Cu113  1  0.00437059  0.01050184  0.50392257  1
  Cu  Cu114  1  0.66673197  0.67565658  -0.00597611  1
  Se  Se115  1  0.07268589  0.07836054  0.05410871  1
  Se  Se116  1  0.09242658  0.08250465  0.56345265  1
  Se  Se117  1  0.08723761  0.41480809  0.05228979  1
  Se  Se118  1  0.08607433  0.42522025  0.54375116  1
  Se  Se119  1  0.09398162  0.75150796  0.04733928  1
  Se  Se120  1  0.06738330  0.74972119  0.56630905  1
  Se  Se121  1  0.40952041  0.07995408  0.05493842  1
  Se  Se122  1  0.43024640  0.09314055  0.54791547  1
  Se  Se123  1  0.41466930  0.40798525  0.06945344  1
  Se  Se124  1  0.41459454  0.41759807  0.54365917  1
  Se  Se125  1  0.42868037  0.74729681  0.05554658  1
  Se  Se126  1  0.41269203  0.75022792  0.54950761  1
  Se  Se127  1  0.73037056  0.07673907  0.04607182  1
  Se  Se128  1  0.75983044  0.07807171  0.55515590  1
  Se  Se129  1  0.74397891  0.41741304  0.07051528  1
  Se  Se130  1  0.73747671  0.40425993  0.55420731  1
  Se  Se131  1  0.74963959  0.74853000  0.05856318  1
  Se  Se132  1  0.73065673  0.73711239  0.55981029  1
  Se  Se133  1  0.24699894  0.24363711  0.05908750  1
  Se  Se134  1  0.26419343  0.26243905  0.56372319  1
  Se  Se135  1  0.26602119  0.57589411  0.05374167  1
  Se  Se136  1  0.23927750  0.58668702  0.54916082  1
  Se  Se137  1  0.24571236  0.90596649  0.05451660  1
  Se  Se138  1  0.26787531  0.92903775  0.55723752  1
  Se  Se139  1  0.56884189  0.25628263  0.05939113  1
  Se  Se140  1  0.58841622  0.24392623  0.54352583  1
  Se  Se141  1  0.59648671  0.58801480  0.05762654  1
  Se  Se142  1  0.55790941  0.56698632  0.55168797  1
  Se  Se143  1  0.58951776  0.92578238  0.03938369  1
  Se  Se144  1  0.58747512  0.91532363  0.55603199  1
  Se  Se145  1  0.90830161  0.25206924  0.06004453  1
  Se  Se146  1  0.92650717  0.24867658  0.54929258  1
  Se  Se147  1  0.93065818  0.58713824  0.05613851  1
  Se  Se148  1  0.90366060  0.58841179  0.56279843  1
  Se  Se149  1  0.91567608  0.91965476  0.06628164  1
  Se  Se150  1  0.92595497  0.92454636  0.56390856  1
  Se  Se151  1  0.08817340  0.25978941  0.43517154  1
  Se  Se152  1  0.08359889  0.24425381  0.95296101  1
  Se  Se153  1  0.07661155  0.58795288  0.45259699  1
  Se  Se154  1  0.09911301  0.57139637  0.94705777  1
  Se  Se155  1  0.07990034  0.92227242  0.44675766  1
  Se  Se156  1  0.07631765  0.91202834  0.94902852  1
  Se  Se157  1  0.41551798  0.24404134  0.44293851  1
  Se  Se158  1  0.41466796  0.25441596  0.95144699  1
  Se  Se159  1  0.41422683  0.58223573  0.44144836  1
  Se  Se160  1  0.42783601  0.59402677  0.93456672  1
  Se  Se161  1  0.42773130  0.91444954  0.44613213  1
  Se  Se162  1  0.41159999  0.91328492  0.95163867  1
  Se  Se163  1  0.76965174  0.24557000  0.44624248  1
  Se  Se164  1  0.75412512  0.24681812  0.96098771  1
  Se  Se165  1  0.73007631  0.59042989  0.44444609  1
  Se  Se166  1  0.75588754  0.59624464  0.93866778  1
  Se  Se167  1  0.74499591  0.91415751  0.43280537  1
  Se  Se168  1  0.74398973  0.92319498  0.93521387  1
  Se  Se169  1  0.26232762  0.08001809  0.43513610  1
  Se  Se170  1  0.24234572  0.08541350  0.95259635  1
  Se  Se171  1  0.24604438  0.42286184  0.44123927  1
  Se  Se172  1  0.25502217  0.41719083  0.95187959  1
  Se  Se173  1  0.25481356  0.75036703  0.43667956  1
  Se  Se174  1  0.25469509  0.74483583  0.94959296  1
  Se  Se175  1  0.59357110  0.07575752  0.44772144  1
  Se  Se176  1  0.55133293  0.11501057  0.94096770  1
  Se  Se177  1  0.58254843  0.40855277  0.44514670  1
  Se  Se178  1  0.59436560  0.41023034  0.94544582  1
  Se  Se179  1  0.57069812  0.75564556  0.45124115  1
  Se  Se180  1  0.58287023  0.75288213  0.93731095  1
  Se  Se181  1  0.91859954  0.09005525  0.45115990  1
  Se  Se182  1  0.90788992  0.08100408  0.94549006  1
  Se  Se183  1  0.91631809  0.40686592  0.43195291  1
  Se  Se184  1  0.92558879  0.40420325  0.93775188  1
  Se  Se185  1  0.91035221  0.74958764  0.44695752  1
  Se  Se186  1  0.92782391  0.73726850  0.93869917  1
  Se  Se187  1  0.24475763  0.24724266  0.29659998  1
  Se  Se188  1  0.24949429  0.24404894  0.81510514  1
  Se  Se189  1  0.25255418  0.58490499  0.30099355  1
  Se  Se190  1  0.25664985  0.58742665  0.80335299  1
  Se  Se191  1  0.26131017  0.91914028  0.29735166  1
  Se  Se192  1  0.24239266  0.91332520  0.81873082  1
  Se  Se193  1  0.58021788  0.24087013  0.30884483  1
  Se  Se194  1  0.58851512  0.24586975  0.81435372  1
  Se  Se195  1  0.58239193  0.59033596  0.30414133  1
  Se  Se196  1  0.58502600  0.58618739  0.79529625  1
  Se  Se197  1  0.57683159  0.91158909  0.30398762  1
  Se  Se198  1  0.57131016  0.92639179  0.80590837  1
  Se  Se199  1  0.92581116  0.25850094  0.29575929  1
  Se  Se200  1  0.91236069  0.24808477  0.80895287  1
  Se  Se201  1  0.90831219  0.57972471  0.31584779  1
  Se  Se202  1  0.91828394  0.57899689  0.80218733  1
  Se  Se203  1  0.91499320  0.91810706  0.30975284  1
  Se  Se204  1  0.90415620  0.90039777  0.80065839  1
  Se  Se205  1  0.08771039  0.08814949  0.31448121  1
  Se  Se206  1  0.07560288  0.07856779  0.80806643  1
  Se  Se207  1  0.07899682  0.42168633  0.29713744  1
  Se  Se208  1  0.09682181  0.41895296  0.80871595  1
  Se  Se209  1  0.09874334  0.75679265  0.30840921  1
  Se  Se210  1  0.08389521  0.74374111  0.80936331  1
  Se  Se211  1  0.41483152  0.07238400  0.30110498  1
  Se  Se212  1  0.42419851  0.09326492  0.80789603  1
  Se  Se213  1  0.39916552  0.39532224  0.30505589  1
  Se  Se214  1  0.42649402  0.43144798  0.80910645  1
  Se  Se215  1  0.41574240  0.74624871  0.30195769  1
  Se  Se216  1  0.40458077  0.75713912  0.79427180  1
  Se  Se217  1  0.75294407  0.09772289  0.30806000  1
  Se  Se218  1  0.74255956  0.08456544  0.80859352  1
  Se  Se219  1  0.74259779  0.42001893  0.30342067  1
  Se  Se220  1  0.75332380  0.42721747  0.81278798  1
  Se  Se221  1  0.74385471  0.75007772  0.29752793  1
  Se  Se222  1  0.72992304  0.74074850  0.79586081  1
  Se  Se223  1  0.24666503  0.07697139  0.19587325  1
  Se  Se224  1  0.24874366  0.09057869  0.69560935  1
  Se  Se225  1  0.24909511  0.41645509  0.19490355  1
  Se  Se226  1  0.24742408  0.42526353  0.68579551  1
  Se  Se227  1  0.26446760  0.73827773  0.19309912  1
  Se  Se228  1  0.24016364  0.75583594  0.69766835  1
  Se  Se229  1  0.57100087  0.08515815  0.18452261  1
  Se  Se230  1  0.59340555  0.07983401  0.69478854  1
  Se  Se231  1  0.57227320  0.42604711  0.21313460  1
  Se  Se232  1  0.56933825  0.42086072  0.68727294  1
  Se  Se233  1  0.59096079  0.75262063  0.19344430  1
  Se  Se234  1  0.57909613  0.74191548  0.69519826  1
  Se  Se235  1  0.90364636  0.09790321  0.19774169  1
  Se  Se236  1  0.92079955  0.07965501  0.70137534  1
  Se  Se237  1  0.91314920  0.42015079  0.20036991  1
  Se  Se238  1  0.90579821  0.42474764  0.68371765  1
  Se  Se239  1  0.91124705  0.75730271  0.19608483  1
  Se  Se240  1  0.93115556  0.72803348  0.70304899  1
  Se  Se241  1  0.07872787  0.25184011  0.19456245  1
  Se  Se242  1  0.09414782  0.24222650  0.69391731  1
  Se  Se243  1  0.09135056  0.58349645  0.18292965  1
  Se  Se244  1  0.07981790  0.58253900  0.69646600  1
  Se  Se245  1  0.09464066  0.90424327  0.18917723  1
  Se  Se246  1  0.08066194  0.92552741  0.70654858  1
  Se  Se247  1  0.41064330  0.24489220  0.20135146  1
  Se  Se248  1  0.43186635  0.25117151  0.69246025  1
  Se  Se249  1  0.44310515  0.56723734  0.20279827  1
  Se  Se250  1  0.40234492  0.59356069  0.68999185  1
  Se  Se251  1  0.41976465  0.91508995  0.19066261  1
  Se  Se252  1  0.42526434  0.91285118  0.68606339  1
  Se  Se253  1  0.72621308  0.25353277  0.19632979  1
  Se  Se254  1  0.75658812  0.24075075  0.69085366  1
  Se  Se255  1  0.74774297  0.59165681  0.20058815  1
  Se  Se256  1  0.73899889  0.57852506  0.69426841  1
  Se  Se257  1  0.75572649  0.91611160  0.18549152  1
  Se  Se258  1  0.76759134  0.89288835  0.69557577  1
