# generated using pymatgen
data_In86Cu29Se144
_symmetry_space_group_name_H-M   'P 1'
_cell_length_a   17.65110051
_cell_length_b   17.65056050
_cell_length_c   23.50811334
_cell_angle_alpha   89.97406377
_cell_angle_beta   89.98929431
_cell_angle_gamma   89.97909742
_symmetry_Int_Tables_number   1
_chemical_formula_structural   In86Cu29Se144
_chemical_formula_sum   'In86 Cu29 Se144'
_cell_volume   7323.99407233
_cell_formula_units_Z   1
loop_
 _symmetry_equiv_pos_site_id
 _symmetry_equiv_pos_as_xyz
  1  'x, y, z'
loop_
 _atom_site_type_symbol
 _atom_site_label
 _atom_site_symmetry_multiplicity
 _atom_site_fract_x
 _atom_site_fract_y
 _atom_site_fract_z
 _atom_site_occupancy
  In  In0  1  -0.01491365  0.15385641  0.12368718  1
  In  In1  1  -0.00416387  0.16394184  0.62476407  1
  In  In2  1  -0.01164271  0.51231973  0.11957675  1
  In  In3  1  -0.02622036  0.49269167  0.62739511  1
  In  In4  1  0.00693607  0.83741795  0.11845280  1
  In  In5  1  0.00485160  0.84875743  0.62705194  1
  In  In6  1  0.33406176  0.16650959  0.12493571  1
  In  In7  1  0.32159437  0.15977039  0.61823433  1
  In  In8  1  0.33878393  0.48071652  0.12473800  1
  In  In9  1  0.33969347  0.51521738  0.62254736  1
  In  In10  1  0.34116088  0.84829109  0.12743304  1
  In  In11  1  0.35231076  0.84395712  0.61895113  1
  In  In12  1  0.68424669  0.16964376  0.14280564  1
  In  In13  1  0.68256333  0.17169743  0.59986188  1
  In  In14  1  0.66415117  0.50490051  0.12764854  1
  In  In15  1  0.67415447  0.48618613  0.62878099  1
  In  In16  1  0.66287493  0.83907694  0.14654143  1
  In  In17  1  0.67475355  0.84711805  0.60703261  1
  In  In18  1  0.17372604  0.00258976  0.37228822  1
  In  In19  1  0.16789385  0.00201287  0.88192877  1
  In  In20  1  0.16352850  0.31383366  0.37643657  1
  In  In21  1  0.14618457  0.33266857  0.87430164  1
  In  In22  1  0.16351008  0.68122183  0.36936711  1
  In  In23  1  0.17647124  0.66623535  0.87895519  1
  In  In24  1  0.50784119  0.00428697  0.37398268  1
  In  In25  1  0.49464983  0.00092222  0.87727615  1
  In  In26  1  0.49362287  0.32817501  0.37092434  1
  In  In27  1  0.52338075  0.33308517  0.87430336  1
  In  In28  1  0.52874379  0.67241631  0.36429741  1
  In  In29  1  0.51093373  0.66638344  0.89307536  1
  In  In30  1  0.83563597  0.01903239  0.36404958  1
  In  In31  1  0.84561859  0.00056062  0.87510919  1
  In  In32  1  0.82935060  0.32877377  0.37733379  1
  In  In33  1  0.82953278  0.32591885  0.87784972  1
  In  In34  1  0.81708954  0.67037826  0.37797971  1
  In  In35  1  0.82392208  0.65062259  0.87700601  1
  In  In36  1  0.00772349  0.15662108  0.38277716  1
  In  In37  1  -0.00301759  0.16626359  0.87749562  1
  In  In38  1  -0.00908599  0.48642460  0.37656838  1
  In  In39  1  -0.00806622  0.47716190  0.87018811  1
  In  In40  1  -0.06633097  0.85478515  0.37558628  1
  In  In41  1  -0.00090357  0.85296680  0.87442594  1
  In  In42  1  0.33620563  0.16484540  0.37670561  1
  In  In43  1  0.33395368  0.14769962  0.87262560  1
  In  In44  1  0.35060523  0.50091635  0.37112517  1
  In  In45  1  0.33565914  0.51069665  0.87769081  1
  In  In46  1  0.34565494  0.85706674  0.36212039  1
  In  In47  1  0.33352150  0.83750274  0.88434839  1
  In  In48  1  0.66220472  0.16468359  0.37338199  1
  In  In49  1  0.66613975  0.17662884  0.87772642  1
  In  In50  1  0.68765632  0.49720419  0.35623939  1
  In  In51  1  0.69222714  0.48464408  0.90748257  1
  In  In52  1  0.67302414  0.83600731  0.36039508  1
  In  In53  1  0.66612483  0.82436736  0.88453412  1
  In  In54  1  0.16799304  0.00479218  0.12301360  1
  In  In55  1  0.16132965  0.01152012  0.63259921  1
  In  In56  1  0.18089182  0.32787949  0.12153108  1
  In  In57  1  0.15998905  0.31308427  0.62642147  1
  In  In58  1  0.15240827  0.67376046  0.11837182  1
  In  In59  1  0.17218589  0.67024319  0.62530980  1
  In  In60  1  0.51007706  -0.01598351  0.14739252  1
  In  In61  1  0.49714205  -0.00184297  0.62128933  1
  In  In62  1  0.49726335  0.33377363  0.12529038  1
  In  In63  1  0.51733785  0.33461153  0.62515985  1
  In  In64  1  0.52220499  0.68778340  0.11218619  1
  In  In65  1  0.50087458  0.67882917  0.62357490  1
  In  In66  1  0.81369523  0.00853720  0.15514365  1
  In  In67  1  0.83938227  0.01636209  0.60780399  1
  In  In68  1  0.82600151  0.34093336  0.12793104  1
  In  In69  1  0.83092909  0.32653846  0.62306082  1
  In  In70  1  0.82624179  0.66179293  0.12758289  1
  In  In71  1  0.82680115  0.66395458  0.61694454  1
  In  In72  1  0.66663187  0.00341927  0.73894272  1
  In  In73  1  0.83455996  0.83803536  0.00405594  1
  In  In74  1  0.33547182  0.67496047  0.75354374  1
  In  In75  1  -0.00096216  0.32983236  0.24453933  1
  In  In76  1  0.66226983  0.66462342  0.75316310  1
  In  In77  1  0.00143747  0.66660319  0.75886869  1
  In  In78  1  0.33501776  0.66129113  0.24065885  1
  In  In79  1  0.16274198  0.49309241  0.50094949  1
  In  In80  1  0.50789712  0.50051676  0.49987208  1
  In  In81  1  0.16155877  0.49994975  -0.00378620  1
  In  In82  1  0.32984984  0.33168764  0.74660647  1
  In  In83  1  0.49750534  0.16619516  0.00123453  1
  In  In84  1  0.16158697  0.83908618  0.49528496  1
  In  In85  1  -0.00592645  0.66964333  0.25334617  1
  Cu  Cu86  1  0.50209490  0.49003703  0.24479379  1
  Cu  Cu87  1  0.50267998  0.16908204  0.75031315  1
  Cu  Cu88  1  0.33218333  0.33183929  0.49839140  1
  Cu  Cu89  1  0.15649130  0.83586272  0.24853506  1
  Cu  Cu90  1  0.67237011  0.33116659  0.00529670  1
  Cu  Cu91  1  0.67002640  0.66638399  0.49206434  1
  Cu  Cu92  1  -0.00526599  0.32791823  0.00130538  1
  Cu  Cu93  1  0.83218535  0.16513976  0.74395127  1
  Cu  Cu94  1  -0.00069247  0.00401092  0.00183400  1
  Cu  Cu95  1  0.66888447  0.00354947  0.01990758  1
  Cu  Cu96  1  0.15841163  0.49359701  0.74220678  1
  Cu  Cu97  1  -0.00880271  0.66873361  -0.00217127  1
  Cu  Cu98  1  0.50026955  0.83967767  0.74935104  1
  Cu  Cu99  1  0.33469110  0.00418644  0.49571522  1
  Cu  Cu100  1  0.34234895  0.67984927  0.49255351  1
  Cu  Cu101  1  0.17717858  0.16720793  0.24933443  1
  Cu  Cu102  1  0.17190378  0.49535220  0.24630418  1
  Cu  Cu103  1  0.16224915  0.16046783  0.75331751  1
  Cu  Cu104  1  0.84049940  0.83382295  0.74800408  1
  Cu  Cu105  1  0.66784248  0.33259220  0.49416233  1
  Cu  Cu106  1  0.50906680  0.49666065  0.75656726  1
  Cu  Cu107  1  0.33377058  0.66610486  0.00357922  1
  Cu  Cu108  1  0.33368067  0.32497789  -0.00145107  1
  Cu  Cu109  1  0.17536824  0.84743728  0.75466305  1
  Cu  Cu110  1  -0.00847401  0.32453490  0.50111716  1
  Cu  Cu111  1  0.49417711  0.16917255  0.25274308  1
  Cu  Cu112  1  -0.00232467  0.65801146  0.49897876  1
  Cu  Cu113  1  -0.00255739  -0.00063476  0.49825491  1
  Cu  Cu114  1  0.33516243  -0.00251429  0.00305358  1
  Se  Se115  1  0.08157047  0.08802037  0.05587984  1
  Se  Se116  1  0.07985928  0.07912540  0.55620219  1
  Se  Se117  1  0.07536836  0.41133146  0.06126404  1
  Se  Se118  1  0.07255897  0.40640249  0.56142197  1
  Se  Se119  1  0.07877994  0.75251845  0.04386424  1
  Se  Se120  1  0.07641841  0.74140389  0.55752247  1
  Se  Se121  1  0.42128900  0.07027098  0.06439630  1
  Se  Se122  1  0.41505090  0.08516644  0.55419061  1
  Se  Se123  1  0.41730925  0.40854515  0.04870363  1
  Se  Se124  1  0.41034450  0.41317656  0.55939130  1
  Se  Se125  1  0.40903284  0.75195552  0.05981397  1
  Se  Se126  1  0.42534126  0.75658710  0.54920175  1
  Se  Se127  1  0.75592562  0.08326373  0.06976340  1
  Se  Se128  1  0.71795697  0.04580797  0.55174777  1
  Se  Se129  1  0.74925269  0.42314841  0.05597550  1
  Se  Se130  1  0.74933202  0.41248718  0.55305768  1
  Se  Se131  1  0.74285219  0.75717043  0.06609361  1
  Se  Se132  1  0.75217258  0.74984638  0.54760185  1
  Se  Se133  1  0.25151316  0.24157868  0.04954799  1
  Se  Se134  1  0.24662697  0.25134419  0.55117081  1
  Se  Se135  1  0.25123917  0.58384722  0.06184327  1
  Se  Se136  1  0.25951649  0.59768506  0.54814286  1
  Se  Se137  1  0.24967791  0.91571175  0.05644671  1
  Se  Se138  1  0.25247340  0.92518448  0.55809629  1
  Se  Se139  1  0.59352829  0.24619639  0.06317961  1
  Se  Se140  1  0.58018772  0.25349004  0.54722191  1
  Se  Se141  1  0.56907792  0.57087874  0.05828479  1
  Se  Se142  1  0.59532875  0.59159582  0.56231150  1
  Se  Se143  1  0.58770031  0.91625165  0.06843422  1
  Se  Se144  1  0.56392680  0.90432174  0.55248348  1
  Se  Se145  1  0.91284128  0.25499713  0.06360860  1
  Se  Se146  1  0.90965707  0.23988451  0.55403943  1
  Se  Se147  1  0.90558407  0.58834135  0.04899050  1
  Se  Se148  1  0.91157977  0.57839748  0.55170045  1
  Se  Se149  1  0.91408919  0.93320589  0.06495537  1
  Se  Se150  1  0.91830375  0.91305930  0.55315599  1
  Se  Se151  1  0.08338711  0.24629478  0.45249939  1
  Se  Se152  1  0.08066247  0.24820749  0.94873285  1
  Se  Se153  1  0.08149426  0.58777683  0.43686908  1
  Se  Se154  1  0.06890303  0.58671999  0.93428176  1
  Se  Se155  1  0.07002627  0.91940669  0.43268475  1
  Se  Se156  1  0.08207017  0.91859561  0.95003520  1
  Se  Se157  1  0.41696622  0.25124181  0.44595519  1
  Se  Se158  1  0.41380908  0.25376959  0.93173496  1
  Se  Se159  1  0.42390983  0.59675486  0.43797518  1
  Se  Se160  1  0.41582052  0.58209030  0.95100474  1
  Se  Se161  1  0.41795633  0.92205301  0.44315330  1
  Se  Se162  1  0.42234814  0.91776780  0.95002842  1
  Se  Se163  1  0.74901826  0.24335825  0.44491784  1
  Se  Se164  1  0.75115478  0.24356270  0.95167443  1
  Se  Se165  1  0.74523407  0.57220770  0.44218489  1
  Se  Se166  1  0.72120049  0.61627175  0.94882074  1
  Se  Se167  1  0.79132860  0.89390838  0.41751352  1
  Se  Se168  1  0.74259805  0.93064219  0.94444285  1
  Se  Se169  1  0.24763630  0.08542499  0.44542075  1
  Se  Se170  1  0.25383034  0.08353016  0.95083636  1
  Se  Se171  1  0.25824874  0.41547876  0.43748926  1
  Se  Se172  1  0.25390912  0.40778949  0.93709667  1
  Se  Se173  1  0.26023311  0.75685614  0.43426078  1
  Se  Se174  1  0.25097186  0.74838859  0.94930485  1
  Se  Se175  1  0.57407904  0.09473101  0.44514820  1
  Se  Se176  1  0.59421275  0.07443209  0.94687266  1
  Se  Se177  1  0.59069413  0.41543134  0.43378310  1
  Se  Se178  1  0.58103864  0.41153949  0.95576121  1
  Se  Se179  1  0.59551761  0.75567414  0.43890548  1
  Se  Se180  1  0.56965857  0.77138910  0.95482174  1
  Se  Se181  1  0.91153919  0.08454980  0.44807015  1
  Se  Se182  1  0.91347709  0.08535633  0.94866698  1
  Se  Se183  1  0.91170450  0.41058796  0.44863974  1
  Se  Se184  1  0.91276179  0.41174164  0.94787256  1
  Se  Se185  1  0.91666647  0.73892075  0.44300155  1
  Se  Se186  1  0.91672466  0.74877531  0.93311024  1
  Se  Se187  1  0.25536072  0.25096110  0.30568832  1
  Se  Se188  1  0.24320093  0.24473635  0.81135738  1
  Se  Se189  1  0.24316780  0.57808866  0.30995818  1
  Se  Se190  1  0.23955600  0.57312445  0.80123164  1
  Se  Se191  1  0.24454758  0.91809024  0.29743856  1
  Se  Se192  1  0.25729130  0.92220264  0.81375086  1
  Se  Se193  1  0.58045779  0.25090449  0.30393534  1
  Se  Se194  1  0.59058620  0.24925676  0.79967532  1
  Se  Se195  1  0.58608483  0.57102050  0.29830791  1
  Se  Se196  1  0.58127459  0.57746700  0.81919710  1
  Se  Se197  1  0.57401590  0.91300511  0.30269037  1
  Se  Se198  1  0.58652582  0.91368588  0.80965773  1
  Se  Se199  1  0.92195050  0.24252176  0.31305118  1
  Se  Se200  1  0.91024008  0.24324976  0.80728226  1
  Se  Se201  1  0.90962908  0.57627960  0.31223224  1
  Se  Se202  1  0.90643057  0.57004844  0.80504954  1
  Se  Se203  1  0.93791081  0.95543952  0.29568317  1
  Se  Se204  1  0.91906054  0.92262727  0.79860171  1
  Se  Se205  1  0.09273425  0.09075748  0.30644320  1
  Se  Se206  1  0.08232246  0.08058109  0.81194139  1
  Se  Se207  1  0.09220176  0.41856038  0.30874933  1
  Se  Se208  1  0.07828371  0.41018966  0.79573311  1
  Se  Se209  1  0.07261145  0.76960976  0.31317361  1
  Se  Se210  1  0.09710980  0.76032468  0.81106104  1
  Se  Se211  1  0.41551009  0.08277231  0.30643572  1
  Se  Se212  1  0.42367888  0.08112114  0.80085689  1
  Se  Se213  1  0.41471311  0.41304492  0.29891064  1
  Se  Se214  1  0.41921837  0.41966049  0.81058410  1
  Se  Se215  1  0.41822597  0.74522328  0.30809938  1
  Se  Se216  1  0.43029915  0.75588367  0.81353803  1
  Se  Se217  1  0.73636438  0.08262182  0.29932523  1
  Se  Se218  1  0.75320667  0.08664458  0.80836552  1
  Se  Se219  1  0.74875615  0.38943159  0.29608414  1
  Se  Se220  1  0.74207084  0.41692674  0.81934604  1
  Se  Se221  1  0.74405592  0.73536239  0.29731547  1
  Se  Se222  1  0.75940251  0.75810154  0.80848712  1
  Se  Se223  1  0.25484309  0.08129689  0.19362481  1
  Se  Se224  1  0.25311096  0.08617152  0.69949223  1
  Se  Se225  1  0.25271939  0.40890704  0.19669101  1
  Se  Se226  1  0.24598750  0.42516169  0.68154817  1
  Se  Se227  1  0.23663558  0.75372228  0.18957108  1
  Se  Se228  1  0.24842161  0.76591246  0.69074194  1
  Se  Se229  1  0.58291856  0.09180215  0.19908840  1
  Se  Se230  1  0.58001545  0.09723212  0.68247913  1
  Se  Se231  1  0.58709603  0.40885547  0.19222227  1
  Se  Se232  1  0.58833775  0.41433767  0.70094602  1
  Se  Se233  1  0.57813141  0.74372121  0.20259718  1
  Se  Se234  1  0.58589743  0.76476171  0.69020613  1
  Se  Se235  1  0.92633139  0.07578751  0.20624310  1
  Se  Se236  1  0.91207217  0.07783649  0.69182070  1
  Se  Se237  1  0.91327166  0.43263540  0.19503390  1
  Se  Se238  1  0.91080513  0.40323425  0.69691121  1
  Se  Se239  1  0.91413334  0.75836702  0.18671053  1
  Se  Se240  1  0.91660547  0.74958078  0.68863564  1
  Se  Se241  1  0.09230537  0.24108097  0.18679831  1
  Se  Se242  1  0.07805409  0.24182573  0.69919438  1
  Se  Se243  1  0.08888715  0.57711241  0.19242934  1
  Se  Se244  1  0.08353968  0.58112455  0.68605996  1
  Se  Se245  1  0.08232788  0.91988893  0.18975845  1
  Se  Se246  1  0.08560050  0.92134225  0.70046432  1
  Se  Se247  1  0.41466225  0.25040682  0.19320654  1
  Se  Se248  1  0.42174566  0.24649388  0.68672627  1
  Se  Se249  1  0.42615055  0.57312385  0.18350045  1
  Se  Se250  1  0.43252341  0.58080562  0.69778569  1
  Se  Se251  1  0.41076147  0.91437145  0.20912136  1
  Se  Se252  1  0.41654506  0.92281229  0.69804163  1
  Se  Se253  1  0.75515411  0.26665466  0.20772466  1
  Se  Se254  1  0.74414675  0.23856039  0.68708412  1
  Se  Se255  1  0.74893894  0.58238933  0.19780959  1
  Se  Se256  1  0.75701226  0.57853874  0.69482685  1
  Se  Se257  1  0.75329969  0.90625832  0.21703990  1
  Se  Se258  1  0.76095945  0.91085906  0.68646498  1
