# generated using pymatgen
data_In86Cu29Se144
_symmetry_space_group_name_H-M   'P 1'
_cell_length_a   17.55806045
_cell_length_b   17.55806654
_cell_length_c   23.41464161
_cell_angle_alpha   90.01112272
_cell_angle_beta   90.00521734
_cell_angle_gamma   89.99990790
_symmetry_Int_Tables_number   1
_chemical_formula_structural   In86Cu29Se144
_chemical_formula_sum   'In86 Cu29 Se144'
_cell_volume   7218.39652187
_cell_formula_units_Z   1
loop_
 _symmetry_equiv_pos_site_id
 _symmetry_equiv_pos_as_xyz
  1  'x, y, z'
loop_
 _atom_site_type_symbol
 _atom_site_label
 _atom_site_symmetry_multiplicity
 _atom_site_fract_x
 _atom_site_fract_y
 _atom_site_fract_z
 _atom_site_occupancy
  In  In0  1  -0.00293229  0.17083664  0.11660600  1
  In  In1  1  -0.01170832  0.16580119  0.63024987  1
  In  In2  1  0.00586365  0.51332907  0.11062673  1
  In  In3  1  0.00379688  0.49252486  0.62298670  1
  In  In4  1  0.00371814  0.81189878  0.11984852  1
  In  In5  1  0.01610950  0.83187666  0.62853988  1
  In  In6  1  0.33962343  0.16493330  0.12833400  1
  In  In7  1  0.33711530  0.14913668  0.62599500  1
  In  In8  1  0.32816903  0.50377443  0.13454182  1
  In  In9  1  0.33185950  0.51942982  0.62387809  1
  In  In10  1  0.33308657  0.83424844  0.11975224  1
  In  In11  1  0.33233324  0.83677709  0.62358523  1
  In  In12  1  0.65674167  0.16548660  0.11776741  1
  In  In13  1  0.65327922  0.15716562  0.61823778  1
  In  In14  1  0.66890542  0.49362966  0.11795576  1
  In  In15  1  0.67830443  0.50011773  0.62854634  1
  In  In16  1  0.66754638  0.85034227  0.12422042  1
  In  In17  1  0.64400740  0.85473724  0.64382578  1
  In  In18  1  0.17534692  -0.02089508  0.37694782  1
  In  In19  1  0.16639362  -0.00502055  0.88073847  1
  In  In20  1  0.18448701  0.33426144  0.37224411  1
  In  In21  1  0.16017112  0.33945720  0.88876907  1
  In  In22  1  0.16605199  0.66856969  0.37016812  1
  In  In23  1  0.17115899  0.65994878  0.88464243  1
  In  In24  1  0.49696231  -0.00391758  0.36846296  1
  In  In25  1  0.49747012  -0.00284824  0.87532610  1
  In  In26  1  0.49309089  0.32340276  0.36066732  1
  In  In27  1  0.49818130  0.32367698  0.88172077  1
  In  In28  1  0.49942095  0.68562763  0.37483807  1
  In  In29  1  0.51083286  0.68399223  0.87584200  1
  In  In30  1  0.82448598  0.01412620  0.37567137  1
  In  In31  1  0.83758284  -0.00255399  0.86723851  1
  In  In32  1  0.81380281  0.34021178  0.36642331  1
  In  In33  1  0.82716395  0.33178581  0.89098374  1
  In  In34  1  0.83937949  0.64748467  0.36566054  1
  In  In35  1  0.81011804  0.67491945  0.89172698  1
  In  In36  1  -0.00752192  0.16770484  0.37066247  1
  In  In37  1  0.00449000  0.15684079  0.88738326  1
  In  In38  1  -0.00278510  0.52301354  0.36592030  1
  In  In39  1  0.00524930  0.51085261  0.89137715  1
  In  In40  1  0.01603213  0.83139578  0.37451704  1
  In  In41  1  -0.00854762  0.84767793  0.87627772  1
  In  In42  1  0.35398370  0.17146007  0.35863796  1
  In  In43  1  0.34326384  0.15048568  0.88740902  1
  In  In44  1  0.32218917  0.49260513  0.36895942  1
  In  In45  1  0.31971502  0.50421791  0.87976973  1
  In  In46  1  0.33289368  0.83455151  0.36899865  1
  In  In47  1  0.33342979  0.83525280  0.87667424  1
  In  In48  1  0.61903261  0.13653754  0.32368143  1
  In  In49  1  0.67672432  0.15776800  0.88914300  1
  In  In50  1  0.67619453  0.48657375  0.36351582  1
  In  In51  1  0.66420551  0.51961091  0.88981149  1
  In  In52  1  0.65245958  0.83647267  0.38133906  1
  In  In53  1  0.65907724  0.82290963  0.86886812  1
  In  In54  1  0.17464299  0.00783231  0.11347813  1
  In  In55  1  0.18393863  -0.01067147  0.63652441  1
  In  In56  1  0.17680464  0.33859813  0.12347663  1
  In  In57  1  0.15841320  0.34104122  0.62126117  1
  In  In58  1  0.17076510  0.66573987  0.11684520  1
  In  In59  1  0.17546015  0.68054694  0.61716180  1
  In  In60  1  0.50020456  0.00571878  0.12542727  1
  In  In61  1  0.50017894  -0.00420163  0.62285265  1
  In  In62  1  0.51840047  0.30954881  0.14224395  1
  In  In63  1  0.51203743  0.32295418  0.62137218  1
  In  In64  1  0.48635732  0.66149488  0.12247875  1
  In  In65  1  0.48238686  0.67874685  0.63449602  1
  In  In66  1  0.81282152  0.00126114  0.12660508  1
  In  In67  1  0.82506168  -0.00011454  0.64260719  1
  In  In68  1  0.81778921  0.33001632  0.10456005  1
  In  In69  1  0.83325515  0.33906316  0.62665946  1
  In  In70  1  0.84717272  0.66789627  0.12391871  1
  In  In71  1  0.82754007  0.65853817  0.63186784  1
  In  In72  1  0.82928693  0.83271771  0.50321183  1
  In  In73  1  0.66674315  0.33208094  0.74814024  1
  In  In74  1  0.33085081  0.33227078  0.76316098  1
  In  In75  1  0.17776811  0.16020073  0.50086008  1
  In  In76  1  0.00269100  0.32943606  0.75433815  1
  In  In77  1  0.83534445  0.83719389  -0.00029063  1
  In  In78  1  0.82964942  0.17305097  0.50350437  1
  In  In79  1  -0.00189069  0.34181706  0.23435416  1
  In  In80  1  0.49681137  0.49400964  0.01095191  1
  In  In81  1  0.83553425  0.50013653  0.49929951  1
  In  In82  1  0.49396703  0.50335457  0.49968166  1
  In  In83  1  -0.00071267  0.67353817  0.75697182  1
  In  In84  1  0.66425455  0.66734928  0.24990925  1
  In  In85  1  0.00374956  -0.00810213  0.25215733  1
  Cu  Cu86  1  0.16802932  0.82645277  0.24372880  1
  Cu  Cu87  1  -0.00524441  0.00117110  -0.00062454  1
  Cu  Cu88  1  0.17393736  0.83736412  0.75156939  1
  Cu  Cu89  1  0.66066414  0.66807106  0.50416434  1
  Cu  Cu90  1  0.49358395  0.83782115  0.24713063  1
  Cu  Cu91  1  0.83182361  0.15769093  0.75852114  1
  Cu  Cu92  1  0.49539450  0.49966667  0.24583195  1
  Cu  Cu93  1  0.01000902  0.67109749  0.49315737  1
  Cu  Cu94  1  0.49885884  0.15695311  0.75104859  1
  Cu  Cu95  1  0.82462762  0.51050721  0.76183644  1
  Cu  Cu96  1  0.65715143  0.00264642  -0.00141582  1
  Cu  Cu97  1  0.16134796  0.50439126  0.24566583  1
  Cu  Cu98  1  0.82608685  0.17242826  0.23715785  1
  Cu  Cu99  1  0.83316422  0.83060518  0.24678295  1
  Cu  Cu100  1  0.33881632  0.67021060  0.00079362  1
  Cu  Cu101  1  0.16530173  0.15488850  0.76228436  1
  Cu  Cu102  1  0.32491676  0.67365222  0.49707330  1
  Cu  Cu103  1  0.50423006  0.51523623  0.75809465  1
  Cu  Cu104  1  0.33316058  0.32908895  0.00999615  1
  Cu  Cu105  1  0.00347004  0.32646697  0.00627290  1
  Cu  Cu106  1  0.01466026  0.34679559  0.49132720  1
  Cu  Cu107  1  0.17775150  0.15726587  0.24757079  1
  Cu  Cu108  1  0.34208186  -0.00420476  0.49847658  1
  Cu  Cu109  1  0.65664956  0.31729663  0.48657443  1
  Cu  Cu110  1  0.34020943  0.33187133  0.49120800  1
  Cu  Cu111  1  0.00778563  -0.00438135  0.50875522  1
  Cu  Cu112  1  0.49249540  0.83369793  0.75148532  1
  Cu  Cu113  1  0.17015421  0.51149619  0.75018776  1
  Cu  Cu114  1  0.33449471  -0.00329707  0.00149757  1
  Se  Se115  1  0.08019076  0.08527316  0.05067643  1
  Se  Se116  1  0.08376320  0.08169432  0.56715870  1
  Se  Se117  1  0.08762284  0.41324443  0.05511135  1
  Se  Se118  1  0.09295515  0.42984775  0.54773902  1
  Se  Se119  1  0.08715875  0.74518313  0.04612206  1
  Se  Se120  1  0.08632886  0.75759161  0.54887938  1
  Se  Se121  1  0.41596951  0.08408707  0.05350054  1
  Se  Se122  1  0.42161411  0.08361153  0.55100173  1
  Se  Se123  1  0.41300569  0.40430999  0.07407791  1
  Se  Se124  1  0.40998975  0.40953381  0.56329425  1
  Se  Se125  1  0.42257692  0.75485815  0.05114675  1
  Se  Se126  1  0.41217065  0.74959170  0.55377605  1
  Se  Se127  1  0.74590347  0.08263665  0.05036818  1
  Se  Se128  1  0.74849765  0.07065432  0.55817048  1
  Se  Se129  1  0.75552840  0.43391686  0.03983185  1
  Se  Se130  1  0.73663513  0.40147492  0.55029811  1
  Se  Se131  1  0.74661975  0.75106099  0.06325828  1
  Se  Se132  1  0.74210009  0.74413562  0.56528359  1
  Se  Se133  1  0.24830342  0.24169820  0.05912998  1
  Se  Se134  1  0.26222672  0.25718794  0.56153571  1
  Se  Se135  1  0.26154367  0.58027210  0.05373157  1
  Se  Se136  1  0.24566040  0.58479380  0.54930087  1
  Se  Se137  1  0.24641988  0.91122073  0.04852982  1
  Se  Se138  1  0.25098926  0.92110901  0.55246183  1
  Se  Se139  1  0.57515010  0.25260087  0.05124691  1
  Se  Se140  1  0.57591019  0.23835394  0.54499556  1
  Se  Se141  1  0.59047316  0.59572670  0.05688581  1
  Se  Se142  1  0.58410608  0.58571242  0.56610216  1
  Se  Se143  1  0.57740458  0.91849279  0.05357337  1
  Se  Se144  1  0.58614886  0.91528109  0.55513162  1
  Se  Se145  1  0.90879992  0.24174523  0.04571316  1
  Se  Se146  1  0.93159956  0.26835198  0.55460064  1
  Se  Se147  1  0.91337132  0.58950400  0.04538685  1
  Se  Se148  1  0.92771241  0.59494496  0.55735183  1
  Se  Se149  1  0.92139048  0.92516486  0.06755521  1
  Se  Se150  1  0.91953179  0.92207152  0.56604534  1
  Se  Se151  1  0.08398633  0.24991527  0.43886098  1
  Se  Se152  1  0.08786987  0.24307852  0.95249464  1
  Se  Se153  1  0.08692248  0.58151811  0.44114481  1
  Se  Se154  1  0.10450358  0.57129006  0.95704975  1
  Se  Se155  1  0.08571964  0.91398526  0.45054361  1
  Se  Se156  1  0.07871253  0.91516775  0.94990187  1
  Se  Se157  1  0.42143354  0.24766400  0.44001772  1
  Se  Se158  1  0.41434302  0.24829342  0.95215523  1
  Se  Se159  1  0.40669791  0.59215432  0.43656035  1
  Se  Se160  1  0.41886580  0.58604341  0.94117973  1
  Se  Se161  1  0.41951183  0.91128853  0.44002570  1
  Se  Se162  1  0.41840685  0.91428897  0.94680899  1
  Se  Se163  1  0.74191936  0.24109055  0.42953069  1
  Se  Se164  1  0.73866524  0.25527519  0.95606140  1
  Se  Se165  1  0.73818693  0.58816020  0.44081281  1
  Se  Se166  1  0.76676766  0.56774789  0.96107389  1
  Se  Se167  1  0.74214588  0.92817306  0.44468939  1
  Se  Se168  1  0.74125881  0.92297119  0.93940416  1
  Se  Se169  1  0.26453472  0.07760504  0.43408592  1
  Se  Se170  1  0.24536234  0.08064357  0.95140949  1
  Se  Se171  1  0.25044873  0.41797620  0.44932883  1
  Se  Se172  1  0.25491800  0.41462941  0.95318136  1
  Se  Se173  1  0.24550719  0.75555302  0.43869192  1
  Se  Se174  1  0.25273138  0.75149281  0.94724708  1
  Se  Se175  1  0.58728135  0.08838209  0.42457238  1
  Se  Se176  1  0.57177702  0.08664310  0.94602633  1
  Se  Se177  1  0.58442374  0.41581614  0.43683195  1
  Se  Se178  1  0.58778404  0.41070246  0.94428709  1
  Se  Se179  1  0.57717347  0.75322610  0.45413430  1
  Se  Se180  1  0.59521339  0.74851281  0.95108489  1
  Se  Se181  1  0.92817659  0.07695391  0.44860573  1
  Se  Se182  1  0.90527425  0.07858369  0.94613141  1
  Se  Se183  1  0.92113907  0.41292584  0.43243577  1
  Se  Se184  1  0.92682331  0.41053043  0.94740948  1
  Se  Se185  1  0.91646369  0.74237586  0.43672843  1
  Se  Se186  1  0.92635727  0.74322505  0.94326869  1
  Se  Se187  1  0.25350514  0.24848124  0.29990079  1
  Se  Se188  1  0.24018231  0.24217457  0.82159650  1
  Se  Se189  1  0.24772522  0.58391258  0.30186258  1
  Se  Se190  1  0.25289948  0.59160512  0.80531737  1
  Se  Se191  1  0.24987184  0.91404579  0.29601624  1
  Se  Se192  1  0.25342611  0.92251821  0.80765737  1
  Se  Se193  1  0.61276002  0.28134241  0.30563928  1
  Se  Se194  1  0.57995746  0.23996138  0.80897536  1
  Se  Se195  1  0.57300097  0.57741962  0.31199476  1
  Se  Se196  1  0.59190514  0.59232993  0.81059199  1
  Se  Se197  1  0.58529736  0.91065410  0.30104944  1
  Se  Se198  1  0.57912916  0.91460421  0.80518917  1
  Se  Se199  1  0.91039524  0.24830118  0.29842616  1
  Se  Se200  1  0.90897666  0.24570871  0.81530024  1
  Se  Se201  1  0.91015596  0.57401840  0.28730519  1
  Se  Se202  1  0.91182851  0.58394296  0.82006046  1
  Se  Se203  1  0.90848720  0.90935234  0.31526456  1
  Se  Se204  1  0.91342225  0.91098589  0.79766508  1
  Se  Se205  1  0.09346442  0.08610517  0.31140987  1
  Se  Se206  1  0.07643812  0.07530618  0.81194896  1
  Se  Se207  1  0.08627317  0.41860442  0.30796410  1
  Se  Se208  1  0.08944596  0.42829769  0.80975730  1
  Se  Se209  1  0.08075208  0.74756347  0.29815748  1
  Se  Se210  1  0.09444277  0.75989497  0.81540078  1
  Se  Se211  1  0.42543312  0.08008629  0.29282444  1
  Se  Se212  1  0.41147556  0.07943576  0.80515546  1
  Se  Se213  1  0.41154301  0.41721000  0.30083597  1
  Se  Se214  1  0.42684894  0.42782760  0.81519164  1
  Se  Se215  1  0.41421187  0.74966076  0.29901855  1
  Se  Se216  1  0.41362310  0.74854095  0.80757392  1
  Se  Se217  1  0.75399061  0.08251428  0.29404900  1
  Se  Se218  1  0.74010431  0.08026719  0.80764944  1
  Se  Se219  1  0.76820563  0.43261798  0.28884244  1
  Se  Se220  1  0.74791079  0.42049262  0.81690215  1
  Se  Se221  1  0.75459356  0.75463607  0.31449143  1
  Se  Se222  1  0.76443193  0.75619056  0.80846231  1
  Se  Se223  1  0.25512308  0.07248130  0.19252357  1
  Se  Se224  1  0.25516985  0.08396518  0.70375128  1
  Se  Se225  1  0.24800949  0.41506767  0.20162729  1
  Se  Se226  1  0.24619529  0.42075928  0.69393886  1
  Se  Se227  1  0.25323442  0.74658478  0.18830086  1
  Se  Se228  1  0.25137098  0.75152599  0.69469903  1
  Se  Se229  1  0.58937327  0.08210468  0.19521885  1
  Se  Se230  1  0.58386545  0.07861443  0.69454762  1
  Se  Se231  1  0.58457308  0.42419158  0.19263924  1
  Se  Se232  1  0.57149706  0.42785966  0.69293771  1
  Se  Se233  1  0.57637827  0.75608096  0.18751324  1
  Se  Se234  1  0.57876367  0.74642015  0.70178985  1
  Se  Se235  1  0.91520006  0.08475090  0.19005818  1
  Se  Se236  1  0.92042097  0.08031915  0.70371380  1
  Se  Se237  1  0.90988446  0.42053990  0.16917550  1
  Se  Se238  1  0.90762810  0.43035596  0.70065476  1
  Se  Se239  1  0.92037140  0.74953949  0.19903483  1
  Se  Se240  1  0.91231376  0.75636385  0.68987196  1
  Se  Se241  1  0.09199907  0.23825426  0.19068859  1
  Se  Se242  1  0.09674844  0.23878816  0.69428356  1
  Se  Se243  1  0.08391994  0.58624180  0.18803420  1
  Se  Se244  1  0.08534938  0.58483431  0.68930750  1
  Se  Se245  1  0.08941050  0.91035450  0.18424363  1
  Se  Se246  1  0.08543933  0.91905098  0.70120702  1
  Se  Se247  1  0.41249094  0.24834865  0.20243092  1
  Se  Se248  1  0.42122451  0.24734157  0.69517497  1
  Se  Se249  1  0.41208004  0.58973473  0.20121209  1
  Se  Se250  1  0.41049221  0.58501884  0.70290191  1
  Se  Se251  1  0.41306792  0.91919720  0.18997563  1
  Se  Se252  1  0.41461743  0.91826215  0.69359605  1
  Se  Se253  1  0.74546718  0.25333451  0.18246919  1
  Se  Se254  1  0.75840261  0.23808612  0.68925998  1
  Se  Se255  1  0.75265526  0.58273077  0.18677726  1
  Se  Se256  1  0.74085948  0.58757090  0.70472338  1
  Se  Se257  1  0.74675794  0.91778002  0.20358765  1
  Se  Se258  1  0.74995448  0.90989311  0.70717750  1
