# generated using pymatgen
data_In86Cu29Se144
_symmetry_space_group_name_H-M   'P 1'
_cell_length_a   17.57520046
_cell_length_b   17.57336649
_cell_length_c   23.42654470
_cell_angle_alpha   90.01671791
_cell_angle_beta   90.00824996
_cell_angle_gamma   89.97082015
_symmetry_Int_Tables_number   1
_chemical_formula_structural   In86Cu29Se144
_chemical_formula_sum   'In86 Cu29 Se144'
_cell_volume   7235.41442107
_cell_formula_units_Z   1
loop_
 _symmetry_equiv_pos_site_id
 _symmetry_equiv_pos_as_xyz
  1  'x, y, z'
loop_
 _atom_site_type_symbol
 _atom_site_label
 _atom_site_symmetry_multiplicity
 _atom_site_fract_x
 _atom_site_fract_y
 _atom_site_fract_z
 _atom_site_occupancy
  In  In0  1  -0.00405189  0.16736267  0.11992387  1
  In  In1  1  -0.00094794  0.17447899  0.61962008  1
  In  In2  1  0.00543442  0.50452185  0.12135205  1
  In  In3  1  0.00277444  0.49640078  0.62017388  1
  In  In4  1  0.00403151  0.81692571  0.12424027  1
  In  In5  1  -0.01676702  0.82989098  0.62736171  1
  In  In6  1  0.32010605  0.16359775  0.12492520  1
  In  In7  1  0.32370227  0.16209090  0.63057987  1
  In  In8  1  0.33323277  0.51240931  0.12816007  1
  In  In9  1  0.33449244  0.50477608  0.61989599  1
  In  In10  1  0.32478430  0.83775844  0.12661765  1
  In  In11  1  0.33816116  0.83319831  0.64222854  1
  In  In12  1  0.67842521  0.17940003  0.12251418  1
  In  In13  1  0.67847540  0.16548807  0.62841734  1
  In  In14  1  0.67701927  0.48628899  0.14127663  1
  In  In15  1  0.66510826  0.48895049  0.61080685  1
  In  In16  1  0.65396020  0.83241167  0.12376452  1
  In  In17  1  0.67825487  0.82742425  0.62418809  1
  In  In18  1  0.17450705  0.00442751  0.37342278  1
  In  In19  1  0.17623130  -0.00562611  0.88902673  1
  In  In20  1  0.15492792  0.33705459  0.39379692  1
  In  In21  1  0.15345318  0.34800071  0.88313250  1
  In  In22  1  0.15347285  0.65595152  0.36586385  1
  In  In23  1  0.16620013  0.66362167  0.87089189  1
  In  In24  1  0.48684232  0.00741925  0.37061335  1
  In  In25  1  0.50053300  -0.00728828  0.85889645  1
  In  In26  1  0.52070406  0.34082400  0.37368100  1
  In  In27  1  0.51089909  0.32605406  0.87152338  1
  In  In28  1  0.48979745  0.64697827  0.36081119  1
  In  In29  1  0.49216328  0.68119894  0.87145232  1
  In  In30  1  0.82838943  0.00285339  0.38428776  1
  In  In31  1  0.84027858  0.02449788  0.86844212  1
  In  In32  1  0.82153509  0.34529167  0.40199981  1
  In  In33  1  0.83992595  0.33269261  0.86802793  1
  In  In34  1  0.83400287  0.66464603  0.37454071  1
  In  In35  1  0.83502238  0.64645853  0.87438067  1
  In  In36  1  -0.01184176  0.18085004  0.39247090  1
  In  In37  1  -0.00876679  0.17949189  0.88065324  1
  In  In38  1  -0.01715784  0.49810344  0.39354133  1
  In  In39  1  -0.00025765  0.49804656  0.86884586  1
  In  In40  1  -0.00125124  0.82121072  0.37308975  1
  In  In41  1  0.01547952  0.83683098  0.87430311  1
  In  In42  1  0.32850891  0.15915810  0.37373024  1
  In  In43  1  0.32679037  0.15415650  0.87351184  1
  In  In44  1  0.32211109  0.50547025  0.37999891  1
  In  In45  1  0.31677395  0.49798615  0.87327756  1
  In  In46  1  0.33472533  0.83073474  0.36771848  1
  In  In47  1  0.33023718  0.82655799  0.86795097  1
  In  In48  1  0.67680641  0.18079957  0.37273599  1
  In  In49  1  0.68816754  0.18178566  0.85468387  1
  In  In50  1  0.66561501  0.49892868  0.38001086  1
  In  In51  1  0.68728360  0.50091930  0.87513706  1
  In  In52  1  0.68102420  0.82652762  0.37800712  1
  In  In53  1  0.65531524  0.84434728  0.87136360  1
  In  In54  1  0.17859683  0.00385966  0.11272535  1
  In  In55  1  0.16920954  0.01237292  0.63132511  1
  In  In56  1  0.15503533  0.33003047  0.11734014  1
  In  In57  1  0.15290764  0.32270141  0.61149054  1
  In  In58  1  0.16708025  0.66534172  0.12309406  1
  In  In59  1  0.17434653  0.65919817  0.63083072  1
  In  In60  1  0.49300397  -0.01086148  0.12438346  1
  In  In61  1  0.49883133  -0.00168174  0.63919570  1
  In  In62  1  0.51717974  0.34755156  0.13230167  1
  In  In63  1  0.50688889  0.34979064  0.61955097  1
  In  In64  1  0.49485200  0.66142126  0.13927425  1
  In  In65  1  0.50172593  0.65237597  0.62572514  1
  In  In66  1  0.82369713  0.01515971  0.12138832  1
  In  In67  1  0.83259966  -0.00417643  0.62197064  1
  In  In68  1  0.82531547  0.32930563  0.12494205  1
  In  In69  1  0.83618366  0.33619906  0.61823541  1
  In  In70  1  0.84906249  0.65557104  0.13337055  1
  In  In71  1  0.83773140  0.66464993  0.61991223  1
  In  In72  1  -0.00941693  0.33671929  0.26634816  1
  In  In73  1  0.49894792  0.50386032  0.01044844  1
  In  In74  1  0.65816129  -0.00517086  0.25107218  1
  In  In75  1  0.00119177  0.00711522  0.74957178  1
  In  In76  1  0.50494383  0.82492475  0.50315147  1
  In  In77  1  0.50286976  0.17107567  0.49518566  1
  In  In78  1  0.33435679  0.33086070  0.25136339  1
  In  In79  1  0.16274911  0.83410830  0.49875922  1
  In  In80  1  0.49498363  0.83436620  -0.00595108  1
  In  In81  1  0.33283023  0.33586292  0.74773369  1
  In  In82  1  0.49676133  0.16111321  -0.00733079  1
  In  In83  1  0.66453736  0.66863783  0.74904917  1
  In  In84  1  0.84045783  0.83597416  0.00076295  1
  In  In85  1  0.00022816  0.00318058  0.24141745  1
  Cu  Cu86  1  0.67213402  0.01465690  -0.01052582  1
  Cu  Cu87  1  0.33640934  0.33551731  0.50325576  1
  Cu  Cu88  1  0.32652394  0.66683023  -0.00112552  1
  Cu  Cu89  1  0.83773632  0.50096700  0.26024351  1
  Cu  Cu90  1  0.17366832  0.82955412  0.24813325  1
  Cu  Cu91  1  0.32921989  0.66328567  0.49791269  1
  Cu  Cu92  1  0.16248716  0.16925787  0.75241515  1
  Cu  Cu93  1  0.67581449  0.66084839  0.00506469  1
  Cu  Cu94  1  0.50112936  0.50518592  0.74405021  1
  Cu  Cu95  1  0.32979738  0.00084863  0.50384417  1
  Cu  Cu96  1  0.83496872  0.83042843  0.25142733  1
  Cu  Cu97  1  -0.00732873  0.33883000  -0.00239437  1
  Cu  Cu98  1  0.67123164  0.65914778  0.49770238  1
  Cu  Cu99  1  0.66993241  0.00192692  0.50142219  1
  Cu  Cu100  1  0.00280129  0.00472849  -0.00254046  1
  Cu  Cu101  1  0.16663171  0.50392825  0.24945714  1
  Cu  Cu102  1  0.16347073  0.82848419  0.75473581  1
  Cu  Cu103  1  0.50930044  0.17219807  0.74867506  1
  Cu  Cu104  1  -0.00369676  0.66589599  0.49787125  1
  Cu  Cu105  1  0.83183570  0.83066539  0.74729585  1
  Cu  Cu106  1  0.67521623  0.33630510  -0.00276971  1
  Cu  Cu107  1  0.16082334  0.49855853  0.74750767  1
  Cu  Cu108  1  0.83760238  0.49433720  0.74450656  1
  Cu  Cu109  1  0.16131753  0.16449742  0.24990180  1
  Cu  Cu110  1  -0.00389624  -0.00106766  0.50722103  1
  Cu  Cu111  1  0.49572935  0.82513988  0.24829045  1
  Cu  Cu112  1  0.32382119  0.33128386  0.00141537  1
  Cu  Cu113  1  0.00621414  0.66105447  -0.00211206  1
  Cu  Cu114  1  0.49574835  0.16192468  0.25119710  1
  Se  Se115  1  0.08387219  0.08762549  0.05431039  1
  Se  Se116  1  0.08203886  0.07976095  0.55889623  1
  Se  Se117  1  0.08084219  0.41959576  0.04968954  1
  Se  Se118  1  0.09787960  0.43013619  0.55028126  1
  Se  Se119  1  0.08734940  0.74779848  0.04985963  1
  Se  Se120  1  0.07584625  0.74460157  0.56085106  1
  Se  Se121  1  0.40877952  0.07505108  0.05659949  1
  Se  Se122  1  0.41678851  0.07927770  0.55993214  1
  Se  Se123  1  0.40818351  0.40465879  0.06351328  1
  Se  Se124  1  0.41910445  0.42376492  0.55070899  1
  Se  Se125  1  0.41557561  0.73971033  0.05889583  1
  Se  Se126  1  0.40473464  0.74384635  0.56137268  1
  Se  Se127  1  0.75036381  0.09629445  0.04736886  1
  Se  Se128  1  0.75371646  0.08418610  0.55388077  1
  Se  Se129  1  0.74906658  0.42076526  0.05721255  1
  Se  Se130  1  0.76774816  0.42976281  0.54748767  1
  Se  Se131  1  0.75095078  0.74806198  0.06366754  1
  Se  Se132  1  0.75104604  0.74578554  0.55113938  1
  Se  Se133  1  0.24299057  0.24601964  0.05388265  1
  Se  Se134  1  0.25777397  0.24712215  0.55565300  1
  Se  Se135  1  0.24868032  0.57960503  0.05315838  1
  Se  Se136  1  0.24441217  0.58260235  0.55188624  1
  Se  Se137  1  0.25402111  0.91039319  0.04879269  1
  Se  Se138  1  0.25431371  0.91700363  0.56392385  1
  Se  Se139  1  0.58389720  0.25926458  0.05228242  1
  Se  Se140  1  0.59094420  0.25467248  0.55847676  1
  Se  Se141  1  0.59358433  0.58925003  0.06875082  1
  Se  Se142  1  0.58113205  0.58237017  0.55010305  1
  Se  Se143  1  0.59292332  0.93069437  0.04861166  1
  Se  Se144  1  0.58707200  0.92493577  0.56111578  1
  Se  Se145  1  0.91379233  0.25478023  0.05523090  1
  Se  Se146  1  0.93236896  0.26682098  0.54820532  1
  Se  Se147  1  0.91805233  0.58361036  0.05194593  1
  Se  Se148  1  0.91597756  0.57864096  0.55089596  1
  Se  Se149  1  0.92571476  0.92773767  0.06469913  1
  Se  Se150  1  0.91177257  0.90977135  0.55212537  1
  Se  Se151  1  0.10808969  0.21990533  0.44837130  1
  Se  Se152  1  0.08116760  0.25364342  0.94935631  1
  Se  Se153  1  0.08286472  0.58377159  0.44602625  1
  Se  Se154  1  0.08490496  0.57841952  0.93933360  1
  Se  Se155  1  0.07329451  0.92588256  0.43885785  1
  Se  Se156  1  0.08432031  0.91299050  0.95276249  1
  Se  Se157  1  0.41035535  0.25940817  0.43502373  1
  Se  Se158  1  0.40723255  0.26101033  0.93797383  1
  Se  Se159  1  0.41654726  0.58403948  0.44489436  1
  Se  Se160  1  0.41244903  0.58797808  0.94085621  1
  Se  Se161  1  0.41048487  0.91919467  0.44570030  1
  Se  Se162  1  0.40922381  0.92677291  0.93569512  1
  Se  Se163  1  0.74569438  0.24175215  0.45669100  1
  Se  Se164  1  0.75200942  0.25276690  0.93911053  1
  Se  Se165  1  0.75883515  0.57849298  0.44599804  1
  Se  Se166  1  0.75839908  0.57706224  0.95366039  1
  Se  Se167  1  0.75058256  0.91275635  0.45058423  1
  Se  Se168  1  0.75136729  0.92383936  0.93732854  1
  Se  Se169  1  0.24922810  0.08372541  0.44925883  1
  Se  Se170  1  0.24790951  0.09176906  0.95206992  1
  Se  Se171  1  0.24979094  0.41892776  0.45208451  1
  Se  Se172  1  0.24608898  0.42222810  0.95097197  1
  Se  Se173  1  0.25081369  0.74387708  0.43745612  1
  Se  Se174  1  0.24882353  0.74869175  0.94031674  1
  Se  Se175  1  0.58965685  0.07393628  0.43597576  1
  Se  Se176  1  0.58849788  0.08414021  0.92604703  1
  Se  Se177  1  0.58957488  0.41399716  0.45185259  1
  Se  Se178  1  0.58811980  0.41753278  0.94292819  1
  Se  Se179  1  0.58694728  0.73746620  0.43731976  1
  Se  Se180  1  0.59643282  0.74009692  0.94408167  1
  Se  Se181  1  0.91233535  0.08254348  0.45288334  1
  Se  Se182  1  0.91511970  0.08840736  0.95003649  1
  Se  Se183  1  0.94911335  0.37856832  0.45372848  1
  Se  Se184  1  0.91314339  0.42073670  0.93971694  1
  Se  Se185  1  0.91377921  0.75149086  0.44576995  1
  Se  Se186  1  0.92376565  0.74244026  0.93804197  1
  Se  Se187  1  0.23623555  0.24927917  0.31126499  1
  Se  Se188  1  0.24217821  0.25277108  0.81241825  1
  Se  Se189  1  0.25265489  0.58567276  0.30170491  1
  Se  Se190  1  0.24845504  0.58103612  0.79876197  1
  Se  Se191  1  0.24944774  0.91721854  0.30375890  1
  Se  Se192  1  0.24149505  0.91702605  0.80806099  1
  Se  Se193  1  0.58063939  0.24387876  0.30267058  1
  Se  Se194  1  0.59227386  0.26236711  0.79411752  1
  Se  Se195  1  0.60249390  0.59047630  0.30619122  1
  Se  Se196  1  0.57839095  0.57769061  0.81436112  1
  Se  Se197  1  0.57134071  0.90362365  0.31417461  1
  Se  Se198  1  0.58212019  0.90960739  0.79178487  1
  Se  Se199  1  0.89695931  0.24755163  0.31935148  1
  Se  Se200  1  0.91218343  0.23888995  0.80099879  1
  Se  Se201  1  0.92624153  0.58020163  0.31159779  1
  Se  Se202  1  0.91761403  0.58154640  0.79772101  1
  Se  Se203  1  0.91158660  0.91722480  0.30860124  1
  Se  Se204  1  0.91186351  0.91159524  0.80952453  1
  Se  Se205  1  0.07787633  0.09066989  0.31255469  1
  Se  Se206  1  0.08909650  0.08777113  0.81743718  1
  Se  Se207  1  0.09024231  0.42714088  0.31541422  1
  Se  Se208  1  0.08059308  0.41104966  0.79971425  1
  Se  Se209  1  0.08308559  0.75183411  0.29923843  1
  Se  Se210  1  0.07692231  0.74381623  0.80231533  1
  Se  Se211  1  0.40512329  0.08116075  0.29728896  1
  Se  Se212  1  0.42177857  0.09382087  0.80214116  1
  Se  Se213  1  0.41716341  0.41997683  0.31473959  1
  Se  Se214  1  0.42492489  0.42498822  0.80984433  1
  Se  Se215  1  0.41034073  0.74249302  0.29990699  1
  Se  Se216  1  0.42082564  0.75787492  0.79705345  1
  Se  Se217  1  0.75344907  0.08339986  0.30522263  1
  Se  Se218  1  0.73879118  0.06703467  0.79760867  1
  Se  Se219  1  0.76004795  0.41585845  0.31630289  1
  Se  Se220  1  0.75180580  0.41616560  0.80020695  1
  Se  Se221  1  0.75139929  0.74606039  0.30238997  1
  Se  Se222  1  0.75603890  0.75411883  0.81417671  1
  Se  Se223  1  0.24265176  0.08066660  0.19636568  1
  Se  Se224  1  0.25076973  0.08327958  0.70708113  1
  Se  Se225  1  0.23843599  0.41559967  0.19006477  1
  Se  Se226  1  0.24129159  0.41841368  0.68544749  1
  Se  Se227  1  0.25364027  0.74360416  0.19349300  1
  Se  Se228  1  0.24872087  0.74671398  0.70121969  1
  Se  Se229  1  0.57704288  0.08852731  0.18493236  1
  Se  Se230  1  0.58986411  0.08554439  0.69609641  1
  Se  Se231  1  0.58107719  0.42385849  0.21064152  1
  Se  Se232  1  0.58778231  0.42378742  0.69377255  1
  Se  Se233  1  0.58715054  0.74819285  0.19809805  1
  Se  Se234  1  0.57396566  0.75687451  0.68791971  1
  Se  Se235  1  0.90212742  0.09921118  0.19513379  1
  Se  Se236  1  0.90945060  0.09240214  0.68960294  1
  Se  Se237  1  0.91407960  0.42250097  0.19339996  1
  Se  Se238  1  0.92249438  0.41370867  0.69091705  1
  Se  Se239  1  0.92263190  0.74879350  0.20057076  1
  Se  Se240  1  0.91288070  0.74171082  0.69844328  1
  Se  Se241  1  0.07826905  0.24915449  0.19686915  1
  Se  Se242  1  0.08455774  0.24877312  0.69319475  1
  Se  Se243  1  0.08243747  0.58520111  0.19439979  1
  Se  Se244  1  0.07865272  0.58319749  0.69341924  1
  Se  Se245  1  0.09297938  0.91026615  0.18686281  1
  Se  Se246  1  0.08702662  0.90857859  0.69033787  1
  Se  Se247  1  0.42391944  0.24413058  0.18556845  1
  Se  Se248  1  0.42658854  0.24907547  0.68626467  1
  Se  Se249  1  0.42366043  0.56609331  0.20323778  1
  Se  Se250  1  0.41020251  0.58423754  0.69644599  1
  Se  Se251  1  0.41422459  0.91340214  0.19739528  1
  Se  Se252  1  0.40043594  0.93520617  0.70413102  1
  Se  Se253  1  0.73780049  0.26365449  0.19913462  1
  Se  Se254  1  0.74669514  0.26564529  0.68934055  1
  Se  Se255  1  0.75794039  0.58232510  0.20111511  1
  Se  Se256  1  0.75076078  0.57626830  0.68866689  1
  Se  Se257  1  0.75649188  0.91010131  0.18885674  1
  Se  Se258  1  0.75154234  0.91517328  0.69418102  1
