# generated using pymatgen
data_In86Cu29Se144
_symmetry_space_group_name_H-M   'P 1'
_cell_length_a   17.57889089
_cell_length_b   17.57732589
_cell_length_c   23.43215347
_cell_angle_alpha   90.01887572
_cell_angle_beta   90.01595498
_cell_angle_gamma   90.00251554
_symmetry_Int_Tables_number   1
_chemical_formula_structural   In86Cu29Se144
_chemical_formula_sum   'In86 Cu29 Se144'
_cell_volume   7240.29793735
_cell_formula_units_Z   1
loop_
 _symmetry_equiv_pos_site_id
 _symmetry_equiv_pos_as_xyz
  1  'x, y, z'
loop_
 _atom_site_type_symbol
 _atom_site_label
 _atom_site_symmetry_multiplicity
 _atom_site_fract_x
 _atom_site_fract_y
 _atom_site_fract_z
 _atom_site_occupancy
  In  In0  1  0.00115338  0.15087033  0.12437395  1
  In  In1  1  0.00852603  0.14935328  0.64013967  1
  In  In2  1  0.01021617  0.50765842  0.11696037  1
  In  In3  1  -0.01284812  0.50052294  0.62608118  1
  In  In4  1  0.00007416  0.82328094  0.13281996  1
  In  In5  1  0.01378383  0.84184043  0.61626768  1
  In  In6  1  0.34052219  0.17085966  0.11709302  1
  In  In7  1  0.32505999  0.16119107  0.61661018  1
  In  In8  1  0.31867407  0.49975935  0.12423602  1
  In  In9  1  0.34634482  0.49783960  0.63074052  1
  In  In10  1  0.33028250  0.82934460  0.11228625  1
  In  In11  1  0.33022022  0.83632591  0.62894663  1
  In  In12  1  0.66825117  0.16455006  0.12651868  1
  In  In13  1  0.66036841  0.16784799  0.63771903  1
  In  In14  1  0.66522707  0.48456913  0.11755190  1
  In  In15  1  0.67183525  0.50084808  0.63403436  1
  In  In16  1  0.67173722  0.85254861  0.12227343  1
  In  In17  1  0.67939305  0.83194357  0.63743464  1
  In  In18  1  0.15735882  0.00529149  0.37855017  1
  In  In19  1  0.16764838  0.00001886  0.87479682  1
  In  In20  1  0.16978767  0.31777947  0.37846177  1
  In  In21  1  0.16084588  0.33637235  0.88067976  1
  In  In22  1  0.15691040  0.68544584  0.38586949  1
  In  In23  1  0.17395164  0.66171811  0.87714189  1
  In  In24  1  0.51178509  0.00572415  0.37854901  1
  In  In25  1  0.49564006  0.00269421  0.87261000  1
  In  In26  1  0.48906729  0.31771111  0.36786617  1
  In  In27  1  0.50262613  0.30998364  0.87238126  1
  In  In28  1  0.49104564  0.66526068  0.37646700  1
  In  In29  1  0.50947739  0.68387069  0.86861371  1
  In  In30  1  0.82721916  -0.00988653  0.37128621  1
  In  In31  1  0.82991590  -0.00570645  0.85292556  1
  In  In32  1  0.82603390  0.34198947  0.37191976  1
  In  In33  1  0.83874824  0.33145472  0.86879387  1
  In  In34  1  0.84931527  0.67678471  0.37140081  1
  In  In35  1  0.81855583  0.67012893  0.87271730  1
  In  In36  1  0.01494675  0.15848833  0.37719547  1
  In  In37  1  0.00181945  0.17388270  0.86698559  1
  In  In38  1  -0.01355293  0.50342644  0.37104332  1
  In  In39  1  0.00664285  0.49103996  0.88197808  1
  In  In40  1  -0.00320480  0.83919791  0.37770875  1
  In  In41  1  -0.00358600  0.85051945  0.86990410  1
  In  In42  1  0.32825999  0.17609414  0.38813529  1
  In  In43  1  0.34720612  0.15240366  0.88051784  1
  In  In44  1  0.33999658  0.49564228  0.37235076  1
  In  In45  1  0.31751523  0.49758590  0.87478434  1
  In  In46  1  0.31355310  0.82543400  0.37978696  1
  In  In47  1  0.33302375  0.83818241  0.87210188  1
  In  In48  1  0.65620297  0.15989729  0.37579352  1
  In  In49  1  0.64924787  0.14438286  0.84646697  1
  In  In50  1  0.68070717  0.49431636  0.37364647  1
  In  In51  1  0.67169796  0.50647459  0.87434663  1
  In  In52  1  0.66388500  0.85290762  0.37723755  1
  In  In53  1  0.66798332  0.82490453  0.86516799  1
  In  In54  1  0.15702674  -0.01008135  0.11428154  1
  In  In55  1  0.17097209  0.00059344  0.62658348  1
  In  In56  1  0.17485968  0.33859849  0.12040707  1
  In  In57  1  0.17582615  0.31072747  0.62539425  1
  In  In58  1  0.15982249  0.65995559  0.11945794  1
  In  In59  1  0.16665408  0.68554085  0.61939830  1
  In  In60  1  0.51013528  0.01054029  0.11440132  1
  In  In61  1  0.49443022  0.01089106  0.63943483  1
  In  In62  1  0.50851825  0.31613450  0.12766874  1
  In  In63  1  0.51013873  0.33190419  0.62549290  1
  In  In64  1  0.48420971  0.67123139  0.12137024  1
  In  In65  1  0.49962923  0.67031265  0.63600666  1
  In  In66  1  0.83375410  -0.01060828  0.13837113  1
  In  In67  1  0.84990059  -0.01229383  0.65071600  1
  In  In68  1  0.81912012  0.32998055  0.12086766  1
  In  In69  1  0.83198325  0.32247631  0.64571781  1
  In  In70  1  0.85616931  0.67179154  0.12337148  1
  In  In71  1  0.82621603  0.66697222  0.62255706  1
  In  In72  1  0.32682600  0.66179117  0.25302781  1
  In  In73  1  0.33860979  0.00510338  0.24445103  1
  In  In74  1  0.83469067  0.83157543  -0.00238996  1
  In  In75  1  0.83000708  0.50512809  0.50222301  1
  In  In76  1  0.66670292  0.66454319  0.25010365  1
  In  In77  1  0.33589654  0.32896097  0.75206200  1
  In  In78  1  -0.00433747  0.32921832  0.25145161  1
  In  In79  1  0.00033300  0.67149048  0.74582547  1
  In  In80  1  0.83708486  0.16273602  0.51233882  1
  In  In81  1  0.49602444  0.84420175  0.50908304  1
  In  In82  1  0.16912005  0.49978889  0.49806869  1
  In  In83  1  0.49323141  0.49915350  -0.00164312  1
  In  In84  1  0.83099766  0.16818525  -0.00964979  1
  In  In85  1  0.50163681  0.49436823  0.50185185  1
  Cu  Cu86  1  0.67142607  0.00411283  0.50599564  1
  Cu  Cu87  1  0.83144088  0.49907775  0.24484663  1
  Cu  Cu88  1  0.82772240  0.16023866  0.25152704  1
  Cu  Cu89  1  0.00662745  0.32757048  0.50518409  1
  Cu  Cu90  1  0.16057078  0.49840536  0.75522160  1
  Cu  Cu91  1  0.66909778  0.32642492  -0.00412387  1
  Cu  Cu92  1  0.17157551  0.16388561  0.25195968  1
  Cu  Cu93  1  0.00536056  -0.00078334  0.50526338  1
  Cu  Cu94  1  0.50233776  0.83993742  0.24750883  1
  Cu  Cu95  1  0.33425307  0.67441174  -0.00581625  1
  Cu  Cu96  1  0.33147297  -0.00135198  -0.00417427  1
  Cu  Cu97  1  0.00029896  0.33211713  -0.00304537  1
  Cu  Cu98  1  0.15936062  0.50215044  0.24605290  1
  Cu  Cu99  1  0.50345937  0.16844879  0.24749543  1
  Cu  Cu100  1  0.66596434  0.00400458  -0.00597030  1
  Cu  Cu101  1  0.17037504  0.15928956  0.75306027  1
  Cu  Cu102  1  0.15855778  0.83483664  0.24938939  1
  Cu  Cu103  1  0.66627509  0.32559823  0.50514523  1
  Cu  Cu104  1  0.32987617  -0.00268432  0.50463650  1
  Cu  Cu105  1  0.50064470  0.50905399  0.75717098  1
  Cu  Cu106  1  0.16891030  0.84075003  0.74786087  1
  Cu  Cu107  1  0.00129472  0.00192647  -0.00494598  1
  Cu  Cu108  1  0.50306806  0.48435366  0.24928826  1
  Cu  Cu109  1  0.66620361  0.66847556  -0.00612677  1
  Cu  Cu110  1  0.32968650  0.32913628  -0.00299914  1
  Cu  Cu111  1  0.83577700  0.50211841  0.75308553  1
  Cu  Cu112  1  0.66372034  0.67909976  0.50486006  1
  Cu  Cu113  1  0.00584958  0.66469456  -0.00127998  1
  Cu  Cu114  1  0.49940246  0.83566762  0.75103572  1
  Se  Se115  1  0.08445001  0.08596206  0.04758757  1
  Se  Se116  1  0.08547007  0.08584437  0.55873247  1
  Se  Se117  1  0.08494222  0.41440967  0.05231268  1
  Se  Se118  1  0.08130870  0.41280566  0.56438313  1
  Se  Se119  1  0.08049925  0.75262190  0.05577311  1
  Se  Se120  1  0.08135381  0.75056345  0.54600581  1
  Se  Se121  1  0.41683941  0.08299454  0.04851299  1
  Se  Se122  1  0.41853216  0.07561389  0.55677792  1
  Se  Se123  1  0.40996784  0.40736303  0.06186622  1
  Se  Se124  1  0.40879577  0.40290702  0.55708631  1
  Se  Se125  1  0.42240026  0.75545791  0.04439244  1
  Se  Se126  1  0.41280404  0.74187965  0.56043167  1
  Se  Se127  1  0.75295504  0.07302305  0.05744593  1
  Se  Se128  1  0.74893500  0.07588577  0.57350757  1
  Se  Se129  1  0.75199849  0.41415781  0.04449153  1
  Se  Se130  1  0.74881378  0.40703296  0.56281311  1
  Se  Se131  1  0.74461541  0.74345537  0.06109228  1
  Se  Se132  1  0.75056234  0.75880725  0.55582034  1
  Se  Se133  1  0.24642460  0.24655395  0.05200458  1
  Se  Se134  1  0.25058376  0.24704152  0.54570060  1
  Se  Se135  1  0.25467623  0.58983201  0.05133920  1
  Se  Se136  1  0.25650324  0.58322444  0.56457859  1
  Se  Se137  1  0.24685950  0.91370348  0.04723167  1
  Se  Se138  1  0.24769594  0.91252248  0.55607784  1
  Se  Se139  1  0.58890668  0.24309568  0.05222438  1
  Se  Se140  1  0.58509187  0.24188956  0.55737261  1
  Se  Se141  1  0.58562539  0.59065677  0.05794009  1
  Se  Se142  1  0.58988991  0.59055027  0.56098609  1
  Se  Se143  1  0.58516519  0.91727817  0.04735548  1
  Se  Se144  1  0.59112249  0.92483092  0.56916438  1
  Se  Se145  1  0.92184323  0.25158422  0.05870467  1
  Se  Se146  1  0.92581297  0.25605987  0.57014060  1
  Se  Se147  1  0.91785367  0.58236750  0.04901509  1
  Se  Se148  1  0.92652498  0.59726865  0.55316643  1
  Se  Se149  1  0.92147887  0.92307465  0.05839059  1
  Se  Se150  1  0.91465220  0.92764276  0.56178901  1
  Se  Se151  1  0.08586893  0.24366610  0.45072880  1
  Se  Se152  1  0.08056209  0.24478330  0.94514411  1
  Se  Se153  1  0.06953099  0.58480411  0.44211069  1
  Se  Se154  1  0.08919673  0.58047368  0.94578447  1
  Se  Se155  1  0.08621150  0.91611585  0.44881975  1
  Se  Se156  1  0.08396351  0.91504976  0.94441038  1
  Se  Se157  1  0.43143310  0.24198006  0.44962739  1
  Se  Se158  1  0.41888759  0.24651217  0.94966683  1
  Se  Se159  1  0.40549091  0.58917509  0.44794790  1
  Se  Se160  1  0.41249303  0.59153072  0.93392093  1
  Se  Se161  1  0.40688202  0.92241540  0.43693220  1
  Se  Se162  1  0.41790806  0.91715820  0.94315679  1
  Se  Se163  1  0.75119020  0.25116578  0.44393900  1
  Se  Se164  1  0.73668083  0.24672816  0.92759812  1
  Se  Se165  1  0.74156942  0.59826843  0.44105214  1
  Se  Se166  1  0.75289174  0.58338690  0.94825506  1
  Se  Se167  1  0.75086402  0.91934254  0.45142727  1
  Se  Se168  1  0.74921718  0.92424219  0.93576225  1
  Se  Se169  1  0.24844411  0.07949525  0.44658745  1
  Se  Se170  1  0.24786472  0.08451180  0.94520649  1
  Se  Se171  1  0.26028900  0.40688888  0.44207677  1
  Se  Se172  1  0.24626454  0.41767740  0.95018692  1
  Se  Se173  1  0.25401296  0.74191219  0.45622876  1
  Se  Se174  1  0.24810934  0.75604475  0.94224870  1
  Se  Se175  1  0.58389152  0.08482760  0.45503243  1
  Se  Se176  1  0.58734072  0.08750179  0.93746482  1
  Se  Se177  1  0.59475141  0.40895467  0.44079959  1
  Se  Se178  1  0.58432883  0.40927781  0.93915279  1
  Se  Se179  1  0.58136765  0.75112402  0.44145985  1
  Se  Se180  1  0.58763411  0.75790802  0.94484650  1
  Se  Se181  1  0.92221682  0.07784116  0.44467124  1
  Se  Se182  1  0.91683213  0.07232132  0.93246597  1
  Se  Se183  1  0.92316903  0.40571837  0.44633706  1
  Se  Se184  1  0.91287927  0.41198759  0.94511617  1
  Se  Se185  1  0.91568896  0.75552218  0.44735737  1
  Se  Se186  1  0.92613214  0.74321255  0.93601062  1
  Se  Se187  1  0.25443933  0.24564758  0.30548163  1
  Se  Se188  1  0.24698084  0.24273769  0.81510435  1
  Se  Se189  1  0.23482315  0.57787302  0.31511545  1
  Se  Se190  1  0.24902106  0.58321696  0.80056726  1
  Se  Se191  1  0.24539893  0.91459562  0.30434957  1
  Se  Se192  1  0.25248770  0.92325866  0.80265308  1
  Se  Se193  1  0.58849134  0.25029478  0.30280914  1
  Se  Se194  1  0.58849655  0.25895863  0.79217297  1
  Se  Se195  1  0.57371289  0.57154113  0.31088430  1
  Se  Se196  1  0.58960140  0.59055521  0.80637894  1
  Se  Se197  1  0.58128640  0.92373361  0.30215515  1
  Se  Se198  1  0.58220639  0.91683714  0.80659723  1
  Se  Se199  1  0.90855583  0.23812404  0.31462342  1
  Se  Se200  1  0.91693219  0.25027874  0.79747481  1
  Se  Se201  1  0.91251570  0.58431780  0.29757300  1
  Se  Se202  1  0.91823964  0.58150601  0.81260160  1
  Se  Se203  1  0.93131011  0.93323348  0.30752894  1
  Se  Se204  1  0.91871419  0.91220048  0.79026914  1
  Se  Se205  1  0.08426577  0.07982427  0.29921014  1
  Se  Se206  1  0.08131175  0.07939825  0.80465557  1
  Se  Se207  1  0.08771522  0.41883049  0.31219426  1
  Se  Se208  1  0.08003875  0.41167657  0.80553566  1
  Se  Se209  1  0.07991938  0.75243062  0.30707495  1
  Se  Se210  1  0.09095082  0.75753102  0.80901609  1
  Se  Se211  1  0.42244532  0.09163409  0.31069006  1
  Se  Se212  1  0.42239806  0.08936595  0.80057117  1
  Se  Se213  1  0.41242525  0.40929040  0.30160993  1
  Se  Se214  1  0.42401346  0.42155929  0.81518245  1
  Se  Se215  1  0.41887392  0.76233969  0.30674717  1
  Se  Se216  1  0.41280356  0.75137336  0.80215248  1
  Se  Se217  1  0.74456772  0.08130914  0.30880688  1
  Se  Se218  1  0.77631300  0.10856058  0.79686872  1
  Se  Se219  1  0.74754794  0.41403829  0.29526543  1
  Se  Se220  1  0.75133272  0.42065920  0.80669051  1
  Se  Se221  1  0.74739456  0.75747076  0.31225393  1
  Se  Se222  1  0.76270710  0.75816608  0.79714866  1
  Se  Se223  1  0.24297499  0.08624947  0.18340408  1
  Se  Se224  1  0.25541492  0.08306462  0.69551805  1
  Se  Se225  1  0.24638876  0.41741680  0.19866529  1
  Se  Se226  1  0.24245435  0.41926162  0.69238783  1
  Se  Se227  1  0.24363949  0.75598225  0.19060676  1
  Se  Se228  1  0.24829437  0.75024523  0.69767475  1
  Se  Se229  1  0.58379755  0.08092329  0.19467006  1
  Se  Se230  1  0.59163622  0.07475403  0.70662105  1
  Se  Se231  1  0.58764357  0.40892820  0.19210619  1
  Se  Se232  1  0.57461946  0.42686210  0.69579671  1
  Se  Se233  1  0.57601777  0.75321961  0.18791087  1
  Se  Se234  1  0.58629724  0.75118825  0.70069582  1
  Se  Se235  1  0.91613344  0.08326151  0.19852280  1
  Se  Se236  1  0.89037429  0.11345338  0.70093694  1
  Se  Se237  1  0.91356003  0.41864511  0.18497731  1
  Se  Se238  1  0.91886304  0.41772385  0.70102146  1
  Se  Se239  1  0.89970454  0.76412058  0.20008656  1
  Se  Se240  1  0.91601838  0.75881582  0.68288415  1
  Se  Se241  1  0.08870111  0.24404773  0.19047974  1
  Se  Se242  1  0.08926340  0.24614760  0.69990546  1
  Se  Se243  1  0.07790034  0.58842206  0.19558588  1
  Se  Se244  1  0.09073615  0.57880900  0.68729584  1
  Se  Se245  1  0.08074263  0.91977636  0.19299913  1
  Se  Se246  1  0.08250575  0.92119582  0.69512830  1
  Se  Se247  1  0.41324788  0.24728938  0.19565997  1
  Se  Se248  1  0.41916633  0.24260417  0.68698706  1
  Se  Se249  1  0.42249541  0.57092635  0.19366106  1
  Se  Se250  1  0.41425821  0.58658408  0.70250043  1
  Se  Se251  1  0.42134654  0.91114194  0.18243823  1
  Se  Se252  1  0.41249824  0.91640839  0.69892687  1
  Se  Se253  1  0.75082244  0.24711846  0.19630193  1
  Se  Se254  1  0.71460546  0.27805229  0.70145955  1
  Se  Se255  1  0.75209269  0.57845276  0.18268477  1
  Se  Se256  1  0.75463564  0.58742748  0.69919354  1
  Se  Se257  1  0.74243839  0.91600442  0.20419270  1
  Se  Se258  1  0.74056145  0.92717083  0.70767214  1
