# generated using pymatgen
data_In86Cu29Se144
_symmetry_space_group_name_H-M   'P 1'
_cell_length_a   17.58167407
_cell_length_b   17.59106479
_cell_length_c   23.43810298
_cell_angle_alpha   89.97842281
_cell_angle_beta   90.00736195
_cell_angle_gamma   89.97524770
_symmetry_Int_Tables_number   1
_chemical_formula_structural   In86Cu29Se144
_chemical_formula_sum   'In86 Cu29 Se144'
_cell_volume   7248.94386133
_cell_formula_units_Z   1
loop_
 _symmetry_equiv_pos_site_id
 _symmetry_equiv_pos_as_xyz
  1  'x, y, z'
loop_
 _atom_site_type_symbol
 _atom_site_label
 _atom_site_symmetry_multiplicity
 _atom_site_fract_x
 _atom_site_fract_y
 _atom_site_fract_z
 _atom_site_occupancy
  In  In0  1  -0.01114746  0.17567850  0.13228506  1
  In  In1  1  -0.00490482  0.16275398  0.62857078  1
  In  In2  1  -0.00642504  0.50260230  0.13252100  1
  In  In3  1  -0.01656080  0.51238968  0.62849710  1
  In  In4  1  0.00376513  0.82800266  0.12916075  1
  In  In5  1  -0.00720827  0.84007326  0.61692208  1
  In  In6  1  0.34247365  0.16947976  0.12848360  1
  In  In7  1  0.31433561  0.15748149  0.62109906  1
  In  In8  1  0.32213301  0.49810286  0.12516548  1
  In  In9  1  0.34444517  0.50188561  0.62857022  1
  In  In10  1  0.32603166  0.83966373  0.11990217  1
  In  In11  1  0.31942863  0.84716999  0.63977431  1
  In  In12  1  0.66737950  0.16003677  0.12370310  1
  In  In13  1  0.68517869  0.16411098  0.63417677  1
  In  In14  1  0.68692160  0.50235661  0.11687757  1
  In  In15  1  0.68202958  0.49426455  0.63419626  1
  In  In16  1  0.67534174  0.83096121  0.13235657  1
  In  In17  1  0.67860589  0.82201869  0.63319005  1
  In  In18  1  0.13138750  0.02450189  0.40445182  1
  In  In19  1  0.15098762  -0.00852287  0.86928599  1
  In  In20  1  0.15184420  0.32026799  0.36738607  1
  In  In21  1  0.15906924  0.34171801  0.87695161  1
  In  In22  1  0.15836713  0.68508919  0.38159000  1
  In  In23  1  0.16884680  0.67068513  0.86544498  1
  In  In24  1  0.51011946  -0.01044781  0.37802111  1
  In  In25  1  0.51059676  0.00455993  0.85916985  1
  In  In26  1  0.50315117  0.34073736  0.37060464  1
  In  In27  1  0.51042087  0.31658228  0.87646112  1
  In  In28  1  0.50688238  0.65564479  0.37484065  1
  In  In29  1  0.50732405  0.68144212  0.86229532  1
  In  In30  1  0.84228334  0.00051187  0.37810905  1
  In  In31  1  0.83260400  0.00701246  0.86007793  1
  In  In32  1  0.84545200  0.31548762  0.39438079  1
  In  In33  1  0.83445978  0.33906673  0.88012121  1
  In  In34  1  0.83401276  0.66450401  0.37409755  1
  In  In35  1  0.82490197  0.65158148  0.86863261  1
  In  In36  1  -0.00735425  0.16882442  0.37894019  1
  In  In37  1  -0.02383925  0.15578008  0.85723110  1
  In  In38  1  -0.01113923  0.48693819  0.37066043  1
  In  In39  1  -0.01279876  0.48692572  0.86484158  1
  In  In40  1  -0.00067161  0.83425927  0.37571644  1
  In  In41  1  0.00602407  0.83839683  0.86902241  1
  In  In42  1  0.32015502  0.16046566  0.37450680  1
  In  In43  1  0.34466670  0.16410025  0.87364231  1
  In  In44  1  0.34599865  0.49690418  0.37320786  1
  In  In45  1  0.32113943  0.50227269  0.87561373  1
  In  In46  1  0.31683472  0.83357478  0.37824087  1
  In  In47  1  0.32388008  0.82515138  0.86245913  1
  In  In48  1  0.69912533  0.16587896  0.38299629  1
  In  In49  1  0.71904021  0.20035214  0.82033611  1
  In  In50  1  0.66609769  0.50423074  0.37428837  1
  In  In51  1  0.67753765  0.51121768  0.87841741  1
  In  In52  1  0.68353778  0.84298138  0.36814449  1
  In  In53  1  0.66963403  0.83445253  0.86160618  1
  In  In54  1  0.16382714  -0.01325308  0.12216060  1
  In  In55  1  0.15556394  0.00318210  0.62383356  1
  In  In56  1  0.16608975  0.32985841  0.13648916  1
  In  In57  1  0.16035263  0.31246825  0.62058110  1
  In  In58  1  0.15264783  0.66450781  0.12343845  1
  In  In59  1  0.14661278  0.68124055  0.63190467  1
  In  In60  1  0.50683915  0.00732145  0.12566714  1
  In  In61  1  0.50754804  -0.01909215  0.64108524  1
  In  In62  1  0.50081610  0.32267104  0.12663810  1
  In  In63  1  0.50847431  0.34348860  0.63066198  1
  In  In64  1  0.50570085  0.67828919  0.12339087  1
  In  In65  1  0.50596503  0.66845730  0.64288134  1
  In  In66  1  0.82829295  0.00905923  0.13080333  1
  In  In67  1  0.84818618  0.00462695  0.62290734  1
  In  In68  1  0.83889262  0.34350853  0.11366235  1
  In  In69  1  0.82647632  0.33415714  0.62963307  1
  In  In70  1  0.83822520  0.66341032  0.12801633  1
  In  In71  1  0.83143321  0.66903576  0.62233597  1
  In  In72  1  0.16634109  0.49800183  0.49890105  1
  In  In73  1  0.50211935  0.49933750  -0.00141239  1
  In  In74  1  0.16120895  0.50153848  -0.00216274  1
  In  In75  1  0.50234980  0.82801182  0.50814828  1
  In  In76  1  0.50539466  0.84005184  -0.01773586  1
  In  In77  1  0.50849763  0.50183693  0.50191777  1
  In  In78  1  0.50251616  0.16402894  0.51442380  1
  In  In79  1  0.67176825  0.33267386  0.25086579  1
  In  In80  1  0.33010675  -0.00049490  0.24724463  1
  In  In81  1  0.83633306  0.83062295  -0.00128197  1
  In  In82  1  0.33038870  0.33224086  0.75313793  1
  In  In83  1  0.50559974  0.16223779  -0.00401004  1
  In  In84  1  0.33114300  0.66692247  0.25727940  1
  In  In85  1  0.16157019  0.16990181  0.00543157  1
  Cu  Cu86  1  0.32417593  -0.00756556  0.50765430  1
  Cu  Cu87  1  0.32712592  0.67309837  0.51146943  1
  Cu  Cu88  1  0.84494936  0.83326937  0.74497325  1
  Cu  Cu89  1  0.16034410  0.16045674  0.74645586  1
  Cu  Cu90  1  0.33161914  0.67651286  -0.01248530  1
  Cu  Cu91  1  0.50265838  0.50055195  0.24829340  1
  Cu  Cu92  1  0.83109072  0.50405679  0.74887921  1
  Cu  Cu93  1  0.83790318  0.16329462  0.25454076  1
  Cu  Cu94  1  -0.00866220  0.66869829  0.50132047  1
  Cu  Cu95  1  0.83498971  0.49749554  0.25071957  1
  Cu  Cu96  1  0.67862829  0.00239797  0.50180348  1
  Cu  Cu97  1  0.50605608  0.16533561  0.24933200  1
  Cu  Cu98  1  -0.00361209  0.32984632  0.50370590  1
  Cu  Cu99  1  0.15949320  0.83812169  0.25384009  1
  Cu  Cu100  1  -0.00068705  0.66556870  0.00113204  1
  Cu  Cu101  1  0.32278590  -0.00572464  -0.00651983  1
  Cu  Cu102  1  0.16041474  0.16679830  0.25788054  1
  Cu  Cu103  1  0.51099434  0.83042309  0.25248016  1
  Cu  Cu104  1  0.67313358  0.66910161  0.50062552  1
  Cu  Cu105  1  0.16526779  0.49983672  0.74755180  1
  Cu  Cu106  1  0.49679657  0.16580884  0.74456405  1
  Cu  Cu107  1  0.16399562  0.49934767  0.25135867  1
  Cu  Cu108  1  0.67065793  0.00382891  -0.00264066  1
  Cu  Cu109  1  -0.00391700  0.33055576  -0.00080552  1
  Cu  Cu110  1  -0.00855538  0.00326473  -0.00868397  1
  Cu  Cu111  1  0.33282611  0.32453542  0.49353850  1
  Cu  Cu112  1  0.83601996  0.83117659  0.25259083  1
  Cu  Cu113  1  0.16157156  0.83391484  0.74566928  1
  Cu  Cu114  1  0.50401128  0.50161795  0.75609002  1
  Se  Se115  1  0.07025829  0.07625200  0.06012018  1
  Se  Se116  1  0.09117105  0.10115042  0.55713945  1
  Se  Se117  1  0.07860861  0.40805894  0.06112998  1
  Se  Se118  1  0.07639565  0.41382930  0.56276527  1
  Se  Se119  1  0.08194691  0.75183330  0.05213010  1
  Se  Se120  1  0.07858699  0.75122701  0.55028129  1
  Se  Se121  1  0.40556991  0.07080484  0.05435660  1
  Se  Se122  1  0.41353540  0.06452130  0.56688070  1
  Se  Se123  1  0.41170238  0.41163610  0.06106744  1
  Se  Se124  1  0.41004488  0.40564726  0.55423715  1
  Se  Se125  1  0.41301127  0.75243958  0.05035496  1
  Se  Se126  1  0.41136540  0.74570355  0.57198946  1
  Se  Se127  1  0.75296928  0.08430631  0.05309677  1
  Se  Se128  1  0.75663813  0.08774931  0.55622114  1
  Se  Se129  1  0.74550816  0.41003448  0.04554278  1
  Se  Se130  1  0.75400148  0.42252076  0.55710809  1
  Se  Se131  1  0.74448156  0.74301763  0.05781446  1
  Se  Se132  1  0.75367739  0.75661013  0.55145903  1
  Se  Se133  1  0.25757530  0.25787946  0.06167329  1
  Se  Se134  1  0.24801760  0.24500000  0.54698154  1
  Se  Se135  1  0.25704386  0.59682076  0.05315807  1
  Se  Se136  1  0.24931286  0.58593120  0.56645165  1
  Se  Se137  1  0.24196707  0.91066201  0.04676212  1
  Se  Se138  1  0.24063437  0.91077020  0.55994306  1
  Se  Se139  1  0.59431581  0.25723803  0.05468495  1
  Se  Se140  1  0.59485760  0.25750640  0.56596397  1
  Se  Se141  1  0.58981249  0.59271401  0.05655610  1
  Se  Se142  1  0.59083694  0.59413798  0.56415794  1
  Se  Se143  1  0.59101358  0.92117851  0.05601552  1
  Se  Se144  1  0.59645668  0.92156539  0.56004581  1
  Se  Se145  1  0.91467447  0.24441435  0.05192526  1
  Se  Se146  1  0.91314154  0.25200515  0.56146442  1
  Se  Se147  1  0.91983433  0.58213408  0.05679541  1
  Se  Se148  1  0.90765943  0.58245894  0.54987966  1
  Se  Se149  1  0.92030552  0.92356125  0.06050040  1
  Se  Se150  1  0.92499895  0.93053229  0.54581185  1
  Se  Se151  1  0.08143486  0.25026912  0.44805156  1
  Se  Se152  1  0.07236790  0.24958065  0.93796644  1
  Se  Se153  1  0.07299226  0.58696329  0.44079041  1
  Se  Se154  1  0.07438790  0.58712925  0.93449867  1
  Se  Se155  1  0.09636215  0.89611770  0.44641573  1
  Se  Se156  1  0.07856858  0.91599852  0.94753136  1
  Se  Se157  1  0.42013780  0.24678799  0.43861612  1
  Se  Se158  1  0.40678794  0.25840034  0.94798430  1
  Se  Se159  1  0.40703471  0.59461371  0.44943787  1
  Se  Se160  1  0.41499975  0.59258656  0.93529796  1
  Se  Se161  1  0.40944743  0.91951298  0.44618939  1
  Se  Se162  1  0.40773735  0.92713636  0.92907555  1
  Se  Se163  1  0.74163770  0.25880397  0.45937666  1
  Se  Se164  1  0.74336116  0.23857853  0.92488618  1
  Se  Se165  1  0.74883891  0.58252523  0.44435253  1
  Se  Se166  1  0.76065111  0.58236859  0.95237392  1
  Se  Se167  1  0.75555490  0.91587827  0.44629484  1
  Se  Se168  1  0.74727492  0.91997939  0.93747962  1
  Se  Se169  1  0.25187538  0.08308782  0.45250258  1
  Se  Se170  1  0.24711746  0.08276284  0.93753243  1
  Se  Se171  1  0.25510026  0.40909031  0.43526476  1
  Se  Se172  1  0.25841954  0.40586428  0.94863728  1
  Se  Se173  1  0.24718250  0.75318519  0.45440718  1
  Se  Se174  1  0.24163641  0.75547875  0.93944959  1
  Se  Se175  1  0.59073862  0.08011778  0.44508413  1
  Se  Se176  1  0.59333780  0.07989425  0.93325951  1
  Se  Se177  1  0.59405415  0.40575581  0.44517917  1
  Se  Se178  1  0.59141308  0.40972321  0.93976342  1
  Se  Se179  1  0.59035957  0.74667537  0.43957578  1
  Se  Se180  1  0.60123352  0.74255200  0.93921895  1
  Se  Se181  1  0.90930319  0.09147673  0.44901852  1
  Se  Se182  1  0.90673221  0.08309580  0.93868757  1
  Se  Se183  1  0.91701141  0.42005895  0.45279601  1
  Se  Se184  1  0.91836032  0.42286592  0.94972900  1
  Se  Se185  1  0.91193744  0.75145060  0.44293041  1
  Se  Se186  1  0.92330159  0.74300843  0.93583989  1
  Se  Se187  1  0.25225938  0.24986799  0.30315531  1
  Se  Se188  1  0.23841599  0.23988114  0.81132114  1
  Se  Se189  1  0.23958008  0.57789930  0.31697951  1
  Se  Se190  1  0.25079434  0.58131305  0.79977781  1
  Se  Se191  1  0.23689555  0.92280898  0.31212065  1
  Se  Se192  1  0.24240090  0.91859448  0.80103228  1
  Se  Se193  1  0.58749192  0.23866407  0.31420630  1
  Se  Se194  1  0.57993481  0.25249426  0.79353831  1
  Se  Se195  1  0.58700383  0.58320590  0.30021601  1
  Se  Se196  1  0.58991452  0.58481220  0.80646771  1
  Se  Se197  1  0.59030304  0.92032889  0.30230123  1
  Se  Se198  1  0.57703244  0.90549341  0.79537497  1
  Se  Se199  1  0.91350513  0.25419397  0.30795809  1
  Se  Se200  1  0.93134199  0.27709581  0.80837087  1
  Se  Se201  1  0.91817635  0.58214791  0.30414977  1
  Se  Se202  1  0.92086978  0.58599421  0.79913159  1
  Se  Se203  1  0.91825684  0.91634218  0.30520238  1
  Se  Se204  1  0.92226755  0.91957193  0.80043971  1
  Se  Se205  1  0.07879427  0.08276916  0.31143163  1
  Se  Se206  1  0.07531457  0.07787940  0.79931221  1
  Se  Se207  1  0.07914518  0.41384730  0.30150493  1
  Se  Se208  1  0.08435726  0.41410245  0.79975527  1
  Se  Se209  1  0.07848445  0.74798191  0.30255116  1
  Se  Se210  1  0.07913267  0.74829212  0.79891018  1
  Se  Se211  1  0.42511810  0.08423871  0.31053429  1
  Se  Se212  1  0.41318878  0.08366242  0.79802813  1
  Se  Se213  1  0.41872560  0.41555078  0.29855241  1
  Se  Se214  1  0.42315786  0.41906987  0.81532116  1
  Se  Se215  1  0.42435671  0.76057853  0.31499478  1
  Se  Se216  1  0.41300058  0.74935899  0.79702565  1
  Se  Se217  1  0.75380460  0.07859562  0.30571919  1
  Se  Se218  1  0.72470698  0.05739194  0.79577489  1
  Se  Se219  1  0.76117919  0.41581637  0.31490696  1
  Se  Se220  1  0.75263877  0.42343870  0.80859751  1
  Se  Se221  1  0.75039840  0.74513776  0.30220127  1
  Se  Se222  1  0.76192094  0.75203694  0.80144498  1
  Se  Se223  1  0.23742236  0.09228397  0.18897208  1
  Se  Se224  1  0.24644291  0.07671588  0.69712103  1
  Se  Se225  1  0.25108960  0.41810507  0.20012467  1
  Se  Se226  1  0.24287893  0.41700213  0.68609264  1
  Se  Se227  1  0.24331803  0.75747168  0.19391641  1
  Se  Se228  1  0.24696448  0.74401882  0.69848093  1
  Se  Se229  1  0.58943542  0.08093488  0.19800567  1
  Se  Se230  1  0.58417868  0.08650477  0.69235814  1
  Se  Se231  1  0.58371864  0.42251166  0.18683382  1
  Se  Se232  1  0.58803360  0.42032047  0.70211209  1
  Se  Se233  1  0.58966915  0.74568229  0.19794006  1
  Se  Se234  1  0.58615961  0.75807313  0.70425575  1
  Se  Se235  1  0.92064569  0.07989013  0.20010144  1
  Se  Se236  1  0.91190117  0.08815931  0.70125364  1
  Se  Se237  1  0.91343894  0.40996339  0.19549194  1
  Se  Se238  1  0.91326056  0.41856598  0.69591505  1
  Se  Se239  1  0.91827323  0.74805249  0.19654590  1
  Se  Se240  1  0.92225312  0.74836793  0.68784972  1
  Se  Se241  1  0.07862815  0.24978597  0.20149121  1
  Se  Se242  1  0.07944770  0.25003687  0.69850739  1
  Se  Se243  1  0.08252930  0.58424839  0.19833094  1
  Se  Se244  1  0.07885827  0.58196967  0.69596710  1
  Se  Se245  1  0.07897723  0.92053877  0.19712112  1
  Se  Se246  1  0.07701154  0.91525455  0.69175940  1
  Se  Se247  1  0.41923688  0.24960842  0.20152434  1
  Se  Se248  1  0.41402562  0.24507889  0.68482961  1
  Se  Se249  1  0.42034027  0.58242576  0.18949865  1
  Se  Se250  1  0.41636991  0.58098888  0.70343509  1
  Se  Se251  1  0.42645562  0.90598067  0.19084718  1
  Se  Se252  1  0.41467565  0.91221425  0.70720568  1
  Se  Se253  1  0.76024720  0.24346498  0.18999502  1
  Se  Se254  1  0.75247053  0.25328528  0.70719276  1
  Se  Se255  1  0.75252083  0.58050099  0.19640908  1
  Se  Se256  1  0.74953748  0.59369890  0.69826827  1
  Se  Se257  1  0.75374640  0.91729738  0.19863171  1
  Se  Se258  1  0.76291861  0.91634231  0.68992553  1
