# generated using pymatgen
data_In86Cu29Se144
_symmetry_space_group_name_H-M   'P 1'
_cell_length_a   17.57825083
_cell_length_b   17.58056251
_cell_length_c   23.43677691
_cell_angle_alpha   89.99991892
_cell_angle_beta   89.97793999
_cell_angle_gamma   90.00754802
_symmetry_Int_Tables_number   1
_chemical_formula_structural   In86Cu29Se144
_chemical_formula_sum   'In86 Cu29 Se144'
_cell_volume   7242.79635253
_cell_formula_units_Z   1
loop_
 _symmetry_equiv_pos_site_id
 _symmetry_equiv_pos_as_xyz
  1  'x, y, z'
loop_
 _atom_site_type_symbol
 _atom_site_label
 _atom_site_symmetry_multiplicity
 _atom_site_fract_x
 _atom_site_fract_y
 _atom_site_fract_z
 _atom_site_occupancy
  In  In0  1  -0.00632839  0.17872546  0.13179095  1
  In  In1  1  0.01188142  0.17013289  0.62258058  1
  In  In2  1  0.00299590  0.50030933  0.12118785  1
  In  In3  1  0.00846270  0.49652899  0.62796341  1
  In  In4  1  0.00809606  0.81600924  0.13227348  1
  In  In5  1  -0.01234656  0.83382073  0.63090054  1
  In  In6  1  0.34691819  0.16992390  0.12816219  1
  In  In7  1  0.33288375  0.16813819  0.62376367  1
  In  In8  1  0.32634083  0.50488085  0.13127805  1
  In  In9  1  0.32645399  0.51455430  0.62696532  1
  In  In10  1  0.31750378  0.83447185  0.12302016  1
  In  In11  1  0.33600168  0.82144291  0.63422290  1
  In  In12  1  0.67585231  0.17077959  0.11781591  1
  In  In13  1  0.64918009  0.16393295  0.62554729  1
  In  In14  1  0.66421848  0.48605168  0.11931530  1
  In  In15  1  0.67576929  0.50263831  0.62838144  1
  In  In16  1  0.65647298  0.83923205  0.12200587  1
  In  In17  1  0.66576963  0.84120803  0.63086354  1
  In  In18  1  0.16576916  0.01295809  0.37679668  1
  In  In19  1  0.16599294  -0.01475227  0.87225779  1
  In  In20  1  0.16197325  0.32979276  0.37798521  1
  In  In21  1  0.17023583  0.35139478  0.88188788  1
  In  In22  1  0.15795542  0.65542470  0.37378208  1
  In  In23  1  0.16596538  0.66514081  0.87071026  1
  In  In24  1  0.49496344  0.00119344  0.38504297  1
  In  In25  1  0.50458708  0.01564871  0.85884101  1
  In  In26  1  0.48276586  0.31578154  0.35878444  1
  In  In27  1  0.49403344  0.32211236  0.87892768  1
  In  In28  1  0.49334137  0.68059906  0.37991028  1
  In  In29  1  0.50743603  0.66467444  0.85781453  1
  In  In30  1  0.82932124  -0.01372976  0.37720825  1
  In  In31  1  0.83103197  0.01089467  0.87753422  1
  In  In32  1  0.83777868  0.34032079  0.36343022  1
  In  In33  1  0.84226301  0.32172973  0.88046063  1
  In  In34  1  0.84123346  0.66552584  0.37722889  1
  In  In35  1  0.82907676  0.66303070  0.86468908  1
  In  In36  1  0.01241300  0.17839818  0.36461685  1
  In  In37  1  -0.01538833  0.16325170  0.87583767  1
  In  In38  1  0.00276841  0.50279813  0.37181372  1
  In  In39  1  0.00228864  0.49843024  0.87658660  1
  In  In40  1  -0.00862638  0.82292573  0.37284390  1
  In  In41  1  0.01940939  0.82968703  0.86952831  1
  In  In42  1  0.32866668  0.16742661  0.37921149  1
  In  In43  1  0.35324675  0.16380670  0.87640880  1
  In  In44  1  0.31780795  0.48880020  0.37076943  1
  In  In45  1  0.32686704  0.49843868  0.87611824  1
  In  In46  1  0.34364306  0.83873969  0.37811961  1
  In  In47  1  0.31878219  0.82790089  0.86019785  1
  In  In48  1  0.65383733  0.16661330  0.37105773  1
  In  In49  1  0.66682442  0.15800678  0.88017659  1
  In  In50  1  0.67704780  0.49332464  0.37350281  1
  In  In51  1  0.67078351  0.51525652  0.87323416  1
  In  In52  1  0.66129285  0.83840138  0.38834006  1
  In  In53  1  0.67388027  0.83647939  0.85955770  1
  In  In54  1  0.16766127  -0.01960929  0.12294222  1
  In  In55  1  0.16368498  0.01794815  0.62528540  1
  In  In56  1  0.15414990  0.34704403  0.13288004  1
  In  In57  1  0.15514283  0.32976581  0.61289700  1
  In  In58  1  0.16824226  0.66195334  0.12316969  1
  In  In59  1  0.17534542  0.66093280  0.63446560  1
  In  In60  1  0.49990543  0.00822845  0.11949511  1
  In  In61  1  0.50256340  0.00285862  0.62969871  1
  In  In62  1  0.50931970  0.31961110  0.14179598  1
  In  In63  1  0.50475117  0.32469842  0.61981751  1
  In  In64  1  0.49801117  0.65497577  0.12532880  1
  In  In65  1  0.48130743  0.67334159  0.63687053  1
  In  In66  1  0.83474245  0.01633121  0.11835222  1
  In  In67  1  0.83160895  -0.02049397  0.63073891  1
  In  In68  1  0.83508949  0.33434518  0.12055051  1
  In  In69  1  0.84200116  0.34313492  0.62498256  1
  In  In70  1  0.85165063  0.66993481  0.11970624  1
  In  In71  1  0.82374183  0.68711084  0.64499940  1
  In  In72  1  0.83809103  0.50482933  0.49880516  1
  In  In73  1  -0.00082262  -0.00008219  0.75135461  1
  In  In74  1  0.32996868  -0.00006936  0.25427705  1
  In  In75  1  0.33492323  0.33598524  0.75331458  1
  In  In76  1  0.49701499  0.84059262  -0.01113477  1
  In  In77  1  0.83773078  0.16369348  0.50079742  1
  In  In78  1  0.49773645  0.49501546  -0.00327989  1
  In  In79  1  0.16723322  0.83402970  0.50634469  1
  In  In80  1  0.67115161  0.65802886  0.25419276  1
  In  In81  1  0.66694811  0.33828521  0.74776380  1
  In  In82  1  0.67086305  0.00268654  0.24364296  1
  In  In83  1  0.83934321  0.83359623  -0.01100194  1
  In  In84  1  0.49855765  0.49768257  0.50212963  1
  In  In85  1  0.16379679  0.16718873  0.00661485  1
  Cu  Cu86  1  0.49299018  0.50161939  0.25022061  1
  Cu  Cu87  1  0.16977155  0.17588942  0.74829237  1
  Cu  Cu88  1  0.49572203  0.83352927  0.25428984  1
  Cu  Cu89  1  0.66261106  0.67721820  0.51131801  1
  Cu  Cu90  1  0.83577774  0.17166346  0.24432459  1
  Cu  Cu91  1  0.32881974  0.32949970  0.49437952  1
  Cu  Cu92  1  0.33020708  0.67277749  -0.00263590  1
  Cu  Cu93  1  0.33124519  -0.00175369  -0.00327110  1
  Cu  Cu94  1  0.66501575  -0.00268200  0.50400750  1
  Cu  Cu95  1  0.83828793  0.49662879  0.24345643  1
  Cu  Cu96  1  0.49740722  0.83685133  0.74791351  1
  Cu  Cu97  1  0.67100933  0.32835167  0.00133120  1
  Cu  Cu98  1  0.34167286  0.00054428  0.50470572  1
  Cu  Cu99  1  0.66192424  0.32547727  0.49374079  1
  Cu  Cu100  1  -0.00714475  0.66676202  0.50233273  1
  Cu  Cu101  1  0.33646569  0.33488881  0.00418193  1
  Cu  Cu102  1  0.16061843  0.82266630  0.24875403  1
  Cu  Cu103  1  0.83117899  0.16789193  0.75247870  1
  Cu  Cu104  1  0.16374362  0.49912384  0.75268747  1
  Cu  Cu105  1  0.83990685  0.83170777  0.25151078  1
  Cu  Cu106  1  -0.00153082  0.33504401  0.00408727  1
  Cu  Cu107  1  0.01151821  0.65958345  -0.00091197  1
  Cu  Cu108  1  0.84317217  0.49999136  0.75047139  1
  Cu  Cu109  1  0.67745241  0.67030977  -0.00895055  1
  Cu  Cu110  1  0.16776987  0.16710360  0.25231002  1
  Cu  Cu111  1  0.16647338  0.50199088  0.25006312  1
  Cu  Cu112  1  -0.00215678  -0.00407507  -0.00216160  1
  Cu  Cu113  1  -0.00146489  0.00068759  0.50335561  1
  Cu  Cu114  1  0.33035693  0.66685505  0.50625406  1
  Se  Se115  1  0.07457564  0.07379389  0.06398251  1
  Se  Se116  1  0.08459584  0.08786023  0.54776558  1
  Se  Se117  1  0.08732413  0.41885072  0.05062513  1
  Se  Se118  1  0.08205040  0.42517331  0.54936555  1
  Se  Se119  1  0.08740234  0.74883131  0.05382209  1
  Se  Se120  1  0.07583878  0.74351283  0.56385357  1
  Se  Se121  1  0.41027589  0.08236035  0.05179882  1
  Se  Se122  1  0.42181528  0.08688968  0.55805281  1
  Se  Se123  1  0.41799630  0.41178055  0.06734570  1
  Se  Se124  1  0.40372704  0.40910267  0.56086970  1
  Se  Se125  1  0.41619707  0.74774656  0.05727764  1
  Se  Se126  1  0.41500109  0.75046070  0.55621848  1
  Se  Se127  1  0.74066564  0.07569566  0.04899893  1
  Se  Se128  1  0.74815415  0.07650580  0.56352470  1
  Se  Se129  1  0.75384061  0.41763994  0.04882259  1
  Se  Se130  1  0.74103343  0.40788905  0.55270952  1
  Se  Se131  1  0.74618589  0.75021596  0.05833384  1
  Se  Se132  1  0.75163560  0.75502164  0.56267954  1
  Se  Se133  1  0.25291665  0.25859937  0.06575603  1
  Se  Se134  1  0.24912893  0.24701982  0.55324233  1
  Se  Se135  1  0.25621976  0.58397696  0.05344427  1
  Se  Se136  1  0.24162040  0.58387367  0.55279670  1
  Se  Se137  1  0.24739118  0.91129237  0.04504880  1
  Se  Se138  1  0.25736687  0.92452750  0.56514337  1
  Se  Se139  1  0.58171267  0.25522580  0.05767038  1
  Se  Se140  1  0.57971142  0.24265648  0.54701241  1
  Se  Se141  1  0.59332452  0.59155154  0.05100178  1
  Se  Se142  1  0.58445200  0.58904267  0.56475587  1
  Se  Se143  1  0.59005880  0.92950043  0.04877718  1
  Se  Se144  1  0.58085266  0.91622377  0.55847487  1
  Se  Se145  1  0.91608986  0.24606602  0.05237689  1
  Se  Se146  1  0.92619077  0.26053950  0.55454532  1
  Se  Se147  1  0.91985567  0.58123048  0.04896585  1
  Se  Se148  1  0.91333533  0.59283911  0.56889907  1
  Se  Se149  1  0.92244785  0.91309536  0.06202601  1
  Se  Se150  1  0.91692493  0.91494870  0.55416667  1
  Se  Se151  1  0.08770293  0.23855104  0.44612782  1
  Se  Se152  1  0.07743733  0.25392930  0.94114147  1
  Se  Se153  1  0.07531877  0.58386351  0.44853792  1
  Se  Se154  1  0.09322140  0.57761790  0.94318560  1
  Se  Se155  1  0.07836689  0.91916042  0.44120812  1
  Se  Se156  1  0.08380694  0.91395431  0.94752646  1
  Se  Se157  1  0.41877823  0.24913567  0.44487575  1
  Se  Se158  1  0.41782505  0.24727257  0.95500561  1
  Se  Se159  1  0.40616143  0.58534436  0.44145067  1
  Se  Se160  1  0.41667879  0.59555399  0.93866094  1
  Se  Se161  1  0.42155903  0.91144728  0.45413881  1
  Se  Se162  1  0.40528219  0.92332399  0.92847997  1
  Se  Se163  1  0.75139205  0.25366178  0.43575221  1
  Se  Se164  1  0.75126093  0.24400306  0.94561327  1
  Se  Se165  1  0.73676570  0.59589315  0.44580332  1
  Se  Se166  1  0.76132429  0.58299843  0.94456569  1
  Se  Se167  1  0.75248743  0.91415043  0.45454344  1
  Se  Se168  1  0.73839632  0.92168894  0.94035563  1
  Se  Se169  1  0.25489036  0.07846691  0.44945193  1
  Se  Se170  1  0.24936121  0.08226253  0.93934976  1
  Se  Se171  1  0.24321486  0.41613156  0.44818886  1
  Se  Se172  1  0.25538951  0.42259746  0.95493417  1
  Se  Se173  1  0.25302575  0.74597685  0.44103695  1
  Se  Se174  1  0.24881532  0.75181271  0.94011230  1
  Se  Se175  1  0.58736098  0.08215752  0.44710805  1
  Se  Se176  1  0.56377762  0.09094237  0.94151663  1
  Se  Se177  1  0.58341169  0.41015447  0.43614001  1
  Se  Se178  1  0.59461260  0.40889368  0.93725825  1
  Se  Se179  1  0.57724755  0.75259311  0.45295467  1
  Se  Se180  1  0.59061383  0.74576247  0.93463063  1
  Se  Se181  1  0.92382479  0.07742485  0.43574634  1
  Se  Se182  1  0.91340323  0.08381041  0.95232442  1
  Se  Se183  1  0.92269170  0.40886666  0.44157850  1
  Se  Se184  1  0.91731952  0.41556862  0.94547490  1
  Se  Se185  1  0.91064810  0.75208338  0.45038929  1
  Se  Se186  1  0.93111276  0.73890824  0.93636439  1
  Se  Se187  1  0.24906402  0.24871018  0.30836525  1
  Se  Se188  1  0.24596014  0.24793432  0.81787763  1
  Se  Se189  1  0.24982494  0.58605507  0.30380235  1
  Se  Se190  1  0.25276209  0.57980353  0.80328999  1
  Se  Se191  1  0.23784275  0.90571351  0.31120987  1
  Se  Se192  1  0.25117154  0.92724404  0.79565743  1
  Se  Se193  1  0.59523692  0.26155695  0.30124715  1
  Se  Se194  1  0.58126421  0.24535015  0.80726173  1
  Se  Se195  1  0.57244452  0.57725525  0.31537291  1
  Se  Se196  1  0.58984449  0.57698396  0.79560475  1
  Se  Se197  1  0.57931570  0.91508825  0.30924752  1
  Se  Se198  1  0.58331061  0.91974680  0.79843228  1
  Se  Se199  1  0.92031380  0.25373092  0.29841247  1
  Se  Se200  1  0.91896712  0.25026840  0.80087480  1
  Se  Se201  1  0.91162241  0.58074965  0.30451586  1
  Se  Se202  1  0.92524380  0.58325333  0.80480138  1
  Se  Se203  1  0.91854072  0.91782056  0.30546122  1
  Se  Se204  1  0.91258336  0.91265917  0.81527429  1
  Se  Se205  1  0.08321511  0.07879820  0.29978078  1
  Se  Se206  1  0.09006734  0.09418735  0.81070873  1
  Se  Se207  1  0.08591837  0.41740865  0.30605126  1
  Se  Se208  1  0.08366655  0.41249553  0.80583623  1
  Se  Se209  1  0.07797472  0.74256737  0.30627260  1
  Se  Se210  1  0.09568468  0.75217007  0.79688119  1
  Se  Se211  1  0.42529788  0.08773968  0.30904882  1
  Se  Se212  1  0.40030746  0.07803371  0.79590935  1
  Se  Se213  1  0.40893888  0.41731554  0.30140143  1
  Se  Se214  1  0.42920878  0.42416292  0.81191287  1
  Se  Se215  1  0.41027339  0.74993545  0.30383409  1
  Se  Se216  1  0.41583372  0.74912828  0.79920994  1
  Se  Se217  1  0.75976247  0.09023994  0.30831379  1
  Se  Se218  1  0.74838788  0.08447724  0.80394144  1
  Se  Se219  1  0.74894363  0.41804359  0.29574539  1
  Se  Se220  1  0.76126249  0.41914129  0.81120136  1
  Se  Se221  1  0.75051172  0.76009475  0.31208944  1
  Se  Se222  1  0.75117830  0.74670437  0.79637963  1
  Se  Se223  1  0.24197863  0.08561452  0.18775829  1
  Se  Se224  1  0.25047984  0.09022263  0.69672472  1
  Se  Se225  1  0.25067000  0.41560654  0.19960875  1
  Se  Se226  1  0.24175422  0.41742117  0.69001882  1
  Se  Se227  1  0.24979229  0.74667920  0.19488918  1
  Se  Se228  1  0.24323655  0.75356773  0.70260917  1
  Se  Se229  1  0.57725209  0.09377298  0.19101413  1
  Se  Se230  1  0.58921215  0.07875978  0.70066647  1
  Se  Se231  1  0.58310037  0.42432021  0.19835085  1
  Se  Se232  1  0.57258502  0.42417468  0.68783264  1
  Se  Se233  1  0.57837713  0.75286983  0.19525085  1
  Se  Se234  1  0.58010970  0.75127403  0.69513082  1
  Se  Se235  1  0.91711303  0.08206943  0.19535774  1
  Se  Se236  1  0.91132981  0.09047970  0.68738420  1
  Se  Se237  1  0.92125767  0.41448338  0.18948778  1
  Se  Se238  1  0.92398002  0.41413648  0.69840112  1
  Se  Se239  1  0.91867086  0.74114266  0.20182227  1
  Se  Se240  1  0.92673680  0.74992108  0.70805498  1
  Se  Se241  1  0.08377025  0.25207527  0.19979753  1
  Se  Se242  1  0.08482464  0.25542988  0.69496018  1
  Se  Se243  1  0.08310094  0.58261348  0.19299107  1
  Se  Se244  1  0.08188402  0.58349508  0.69889954  1
  Se  Se245  1  0.08219165  0.91252086  0.19729640  1
  Se  Se246  1  0.09054025  0.91629217  0.68903567  1
  Se  Se247  1  0.41105499  0.25028338  0.20533249  1
  Se  Se248  1  0.42613439  0.24506754  0.69557971  1
  Se  Se249  1  0.41262643  0.58865188  0.19870057  1
  Se  Se250  1  0.41352870  0.57537730  0.70125050  1
  Se  Se251  1  0.42138226  0.91239152  0.18859254  1
  Se  Se252  1  0.41359940  0.91883915  0.69437525  1
  Se  Se253  1  0.75081245  0.25280348  0.19097371  1
  Se  Se254  1  0.75618512  0.24573979  0.68594665  1
  Se  Se255  1  0.75669032  0.57863790  0.18361818  1
  Se  Se256  1  0.75255983  0.58019011  0.70143492  1
  Se  Se257  1  0.76077861  0.90684928  0.18697338  1
  Se  Se258  1  0.75221196  0.91055935  0.70538310  1
