# generated using pymatgen
data_In86Cu29Se144
_symmetry_space_group_name_H-M   'P 1'
_cell_length_a   17.58723172
_cell_length_b   17.58002784
_cell_length_c   23.45278421
_cell_angle_alpha   90.00021159
_cell_angle_beta   90.00304386
_cell_angle_gamma   90.01244330
_symmetry_Int_Tables_number   1
_chemical_formula_structural   In86Cu29Se144
_chemical_formula_sum   'In86 Cu29 Se144'
_cell_volume   7251.22599913
_cell_formula_units_Z   1
loop_
 _symmetry_equiv_pos_site_id
 _symmetry_equiv_pos_as_xyz
  1  'x, y, z'
loop_
 _atom_site_type_symbol
 _atom_site_label
 _atom_site_symmetry_multiplicity
 _atom_site_fract_x
 _atom_site_fract_y
 _atom_site_fract_z
 _atom_site_occupancy
  In  In0  1  0.01701310  0.17284511  0.12319029  1
  In  In1  1  0.00382456  0.15283410  0.62269296  1
  In  In2  1  -0.00101751  0.50708041  0.13114954  1
  In  In3  1  0.00538281  0.50704827  0.61708248  1
  In  In4  1  -0.00403656  0.82008530  0.12496707  1
  In  In5  1  -0.00595957  0.82671996  0.62242088  1
  In  In6  1  0.33183262  0.18244652  0.12152780  1
  In  In7  1  0.31848943  0.17448930  0.63506253  1
  In  In8  1  0.32859016  0.49553451  0.12151438  1
  In  In9  1  0.31439583  0.51766002  0.64648598  1
  In  In10  1  0.33955024  0.82755154  0.11088582  1
  In  In11  1  0.31474374  0.84255986  0.64509442  1
  In  In12  1  0.67478632  0.16091389  0.13085753  1
  In  In13  1  0.65789124  0.16971756  0.62842180  1
  In  In14  1  0.66687380  0.50442229  0.12317302  1
  In  In15  1  0.67456455  0.50108605  0.62122573  1
  In  In16  1  0.66194144  0.82384268  0.12940867  1
  In  In17  1  0.67095548  0.82192815  0.63192005  1
  In  In18  1  0.16859484  -0.00016967  0.38501484  1
  In  In19  1  0.18440239  -0.01403102  0.88041023  1
  In  In20  1  0.16716060  0.33902862  0.37650939  1
  In  In21  1  0.16668116  0.32081036  0.88053945  1
  In  In22  1  0.15779063  0.67518488  0.38188247  1
  In  In23  1  0.18530860  0.69250793  0.85204271  1
  In  In24  1  0.51394507  -0.00733200  0.37297624  1
  In  In25  1  0.48534037  -0.01513153  0.86694430  1
  In  In26  1  0.49857958  0.33523343  0.36197235  1
  In  In27  1  0.50055817  0.36060241  0.87354767  1
  In  In28  1  0.49887758  0.65757153  0.36966692  1
  In  In29  1  0.49652524  0.66571910  0.88700077  1
  In  In30  1  0.82087207  -0.00034137  0.37521447  1
  In  In31  1  0.81661831  0.00470398  0.86690960  1
  In  In32  1  0.84886567  0.34515368  0.36350031  1
  In  In33  1  0.84045149  0.35189630  0.87695330  1
  In  In34  1  0.83548768  0.66656497  0.37720184  1
  In  In35  1  0.82442177  0.65695471  0.86888656  1
  In  In36  1  0.00189227  0.17999104  0.37405733  1
  In  In37  1  0.00526511  0.18316288  0.87800738  1
  In  In38  1  -0.00023953  0.50424071  0.37607531  1
  In  In39  1  -0.01362454  0.50537074  0.88179523  1
  In  In40  1  0.00712615  0.82305334  0.38040689  1
  In  In41  1  0.01963648  0.83069972  0.87072580  1
  In  In42  1  0.32236813  0.16953650  0.37653952  1
  In  In43  1  0.32863215  0.16034516  0.86954098  1
  In  In44  1  0.33770250  0.49202613  0.37579812  1
  In  In45  1  0.36147055  0.51996189  0.84958133  1
  In  In46  1  0.32613966  0.82251465  0.37998009  1
  In  In47  1  0.33243376  0.82944123  0.87831879  1
  In  In48  1  0.66608657  0.16600093  0.36493137  1
  In  In49  1  0.67032414  0.15468435  0.87406430  1
  In  In50  1  0.68008071  0.51298120  0.36475117  1
  In  In51  1  0.64039981  0.54350274  0.92280993  1
  In  In52  1  0.67317819  0.84403209  0.36700151  1
  In  In53  1  0.64911824  0.81284053  0.86903653  1
  In  In54  1  0.17022102  0.00189211  0.11666623  1
  In  In55  1  0.16620924  0.00102452  0.62321698  1
  In  In56  1  0.17486458  0.33686299  0.12826590  1
  In  In57  1  0.16750137  0.33848709  0.61708127  1
  In  In58  1  0.15890968  0.66150973  0.12278838  1
  In  In59  1  0.16236580  0.66633684  0.63009041  1
  In  In60  1  0.51038302  -0.00991887  0.12449587  1
  In  In61  1  0.50345573  -0.00935804  0.63718873  1
  In  In62  1  0.49438831  0.34223868  0.12887092  1
  In  In63  1  0.49595696  0.33049590  0.62795700  1
  In  In64  1  0.51770140  0.67955143  0.09855048  1
  In  In65  1  0.48722935  0.66808508  0.63830908  1
  In  In66  1  0.82562566  -0.01356274  0.12646052  1
  In  In67  1  0.84066854  -0.01447496  0.62758937  1
  In  In68  1  0.82822934  0.34212908  0.13460336  1
  In  In69  1  0.82264336  0.34387972  0.61863746  1
  In  In70  1  0.84102171  0.65711636  0.12802213  1
  In  In71  1  0.83241161  0.66669714  0.62430452  1
  In  In72  1  -0.00538083  0.00165927  0.25005041  1
  In  In73  1  -0.00098918  -0.00383665  0.74711921  1
  In  In74  1  -0.00418733  0.33332720  0.75474315  1
  In  In75  1  0.49825284  0.49966238  0.50445650  1
  In  In76  1  0.49633857  0.16759226  0.00425433  1
  In  In77  1  0.49619745  0.82988988  0.49898351  1
  In  In78  1  0.83811207  0.16999153  -0.00038567  1
  In  In79  1  0.33898964  0.66451639  0.24516049  1
  In  In80  1  0.66602786  0.33579393  0.75461002  1
  In  In81  1  0.34047565  0.00382318  0.24290911  1
  In  In82  1  0.49301908  0.16802613  0.51021570  1
  In  In83  1  0.83756811  0.16759516  0.49773473  1
  In  In84  1  0.83561408  0.82741187  0.00207862  1
  In  In85  1  0.17418784  0.50675531  -0.00793417  1
  Cu  Cu86  1  0.82910287  0.82510621  0.24953672  1
  Cu  Cu87  1  0.00329117  0.33613210  0.49298753  1
  Cu  Cu88  1  0.32114805  0.66808809  0.51067344  1
  Cu  Cu89  1  0.82909050  0.82919928  0.74809876  1
  Cu  Cu90  1  0.16595105  0.83350754  0.25333745  1
  Cu  Cu91  1  0.16011049  0.49376031  0.74463179  1
  Cu  Cu92  1  0.67253847  0.67211101  0.49989700  1
  Cu  Cu93  1  0.32756246  -0.00159303  0.50750780  1
  Cu  Cu94  1  0.16222710  0.15917298  0.75275525  1
  Cu  Cu95  1  0.00853658  0.00587417  -0.00543427  1
  Cu  Cu96  1  0.00543682  -0.00668241  0.50181909  1
  Cu  Cu97  1  0.16623889  0.18207323  0.25301472  1
  Cu  Cu98  1  0.65949038  -0.01312862  -0.00326701  1
  Cu  Cu99  1  0.67166626  -0.00226740  0.49885087  1
  Cu  Cu100  1  0.49857965  0.16387393  0.75108481  1
  Cu  Cu101  1  0.50135388  0.83033749  0.75837429  1
  Cu  Cu102  1  0.50468699  0.50108464  0.24374079  1
  Cu  Cu103  1  0.01043585  0.67094310  -0.00259651  1
  Cu  Cu104  1  0.83184105  0.50237898  0.25038241  1
  Cu  Cu105  1  0.67417560  0.34493825  0.48940427  1
  Cu  Cu106  1  0.83257567  0.16734485  0.25075654  1
  Cu  Cu107  1  0.50083485  0.16670438  0.24267112  1
  Cu  Cu108  1  0.82787092  0.50531119  0.75040448  1
  Cu  Cu109  1  0.16557426  0.50115099  0.25188612  1
  Cu  Cu110  1  0.32842591  0.33221512  -0.00381306  1
  Cu  Cu111  1  -0.00356576  0.66477805  0.50144656  1
  Cu  Cu112  1  0.67496894  0.33787516  0.00664604  1
  Cu  Cu113  1  0.33070063  -0.00224465  -0.00590475  1
  Cu  Cu114  1  0.32636170  0.33589011  0.50156629  1
  Se  Se115  1  0.08840128  0.08840345  0.05044991  1
  Se  Se116  1  0.08735468  0.08232728  0.54974050  1
  Se  Se117  1  0.08822908  0.42426380  0.06130394  1
  Se  Se118  1  0.08382432  0.41924728  0.54967242  1
  Se  Se119  1  0.08810204  0.75510553  0.05391122  1
  Se  Se120  1  0.08185464  0.74548776  0.55648725  1
  Se  Se121  1  0.40688313  0.07319029  0.06289344  1
  Se  Se122  1  0.40920052  0.07300247  0.56930939  1
  Se  Se123  1  0.41126594  0.41135922  0.05343370  1
  Se  Se124  1  0.40487525  0.41455679  0.56392844  1
  Se  Se125  1  0.41263256  0.74419761  0.04011205  1
  Se  Se126  1  0.40563375  0.75042069  0.56512952  1
  Se  Se127  1  0.74343688  0.07033579  0.05234543  1
  Se  Se128  1  0.74669457  0.08143814  0.56082794  1
  Se  Se129  1  0.75824465  0.42208714  0.05773988  1
  Se  Se130  1  0.75382795  0.42799945  0.54453912  1
  Se  Se131  1  0.74709884  0.73666959  0.05927467  1
  Se  Se132  1  0.75307503  0.75550239  0.55469287  1
  Se  Se133  1  0.24383920  0.25255814  0.05069223  1
  Se  Se134  1  0.24829671  0.24570059  0.55347227  1
  Se  Se135  1  0.26075507  0.59743758  0.05520761  1
  Se  Se136  1  0.24355302  0.57711715  0.56078066  1
  Se  Se137  1  0.24960586  0.91476862  0.05117514  1
  Se  Se138  1  0.24888783  0.90987486  0.55926837  1
  Se  Se139  1  0.59335008  0.25261168  0.06270558  1
  Se  Se140  1  0.59521215  0.26649752  0.55249053  1
  Se  Se141  1  0.58086936  0.56726104  0.04503339  1
  Se  Se142  1  0.58487981  0.59813437  0.55990260  1
  Se  Se143  1  0.58316007  0.90371727  0.05391758  1
  Se  Se144  1  0.58827476  0.91970599  0.55815313  1
  Se  Se145  1  0.91986968  0.25772881  0.06464375  1
  Se  Se146  1  0.92611586  0.25886342  0.55993815  1
  Se  Se147  1  0.92900911  0.58908589  0.05416379  1
  Se  Se148  1  0.91062801  0.58180065  0.55308063  1
  Se  Se149  1  0.92844734  0.92644721  0.05610004  1
  Se  Se150  1  0.91627532  0.91327551  0.55117443  1
  Se  Se151  1  0.08856842  0.24930995  0.44590351  1
  Se  Se152  1  0.07589557  0.25870605  0.95399832  1
  Se  Se153  1  0.08273985  0.58336318  0.44788131  1
  Se  Se154  1  0.08690775  0.59728503  0.93061073  1
  Se  Se155  1  0.08815616  0.90984895  0.44774931  1
  Se  Se156  1  0.08781246  0.91450826  0.94627917  1
  Se  Se157  1  0.41433299  0.26061306  0.44296450  1
  Se  Se158  1  0.41456582  0.25473187  0.93694467  1
  Se  Se159  1  0.40564499  0.59515091  0.44722199  1
  Se  Se160  1  0.41320109  0.56764130  0.94418276  1
  Se  Se161  1  0.40819282  0.92790522  0.44072096  1
  Se  Se162  1  0.41835953  0.91288528  0.94811318  1
  Se  Se163  1  0.74967246  0.25556318  0.43374564  1
  Se  Se164  1  0.74308844  0.25666431  0.94025186  1
  Se  Se165  1  0.74988788  0.58339805  0.44632476  1
  Se  Se166  1  0.77878550  0.57133313  0.95157496  1
  Se  Se167  1  0.75172211  0.91136627  0.44720500  1
  Se  Se168  1  0.74472163  0.91226620  0.93755199  1
  Se  Se169  1  0.25251404  0.08537331  0.45045850  1
  Se  Se170  1  0.24924923  0.08767919  0.94627995  1
  Se  Se171  1  0.24909958  0.42300206  0.44701367  1
  Se  Se172  1  0.26128235  0.41658605  0.93109106  1
  Se  Se173  1  0.24313227  0.75297943  0.45351212  1
  Se  Se174  1  0.23982476  0.75104091  0.94283461  1
  Se  Se175  1  0.58899546  0.08412179  0.44628168  1
  Se  Se176  1  0.58022475  0.07364919  0.94187542  1
  Se  Se177  1  0.58446174  0.41886519  0.43347319  1
  Se  Se178  1  0.58310213  0.41300855  0.95515197  1
  Se  Se179  1  0.58694077  0.74334669  0.43763412  1
  Se  Se180  1  0.58562823  0.74777608  0.95349887  1
  Se  Se181  1  0.92734760  0.07409119  0.43792832  1
  Se  Se182  1  0.92020311  0.07531400  0.93513490  1
  Se  Se183  1  0.91522136  0.41873420  0.44473119  1
  Se  Se184  1  0.93553315  0.40192338  0.95002871  1
  Se  Se185  1  0.91505737  0.75086568  0.44798347  1
  Se  Se186  1  0.92525980  0.74612866  0.93602347  1
  Se  Se187  1  0.25475578  0.25943408  0.30597261  1
  Se  Se188  1  0.24394180  0.24669127  0.80388397  1
  Se  Se189  1  0.24721163  0.58322159  0.31195312  1
  Se  Se190  1  0.24385557  0.57711131  0.79792534  1
  Se  Se191  1  0.24836951  0.91610342  0.30793334  1
  Se  Se192  1  0.25591836  0.91234324  0.80428170  1
  Se  Se193  1  0.58366823  0.24994148  0.29826857  1
  Se  Se194  1  0.57412986  0.24470731  0.81525593  1
  Se  Se195  1  0.58436122  0.58538600  0.29897573  1
  Se  Se196  1  0.58659196  0.57879326  0.82492772  1
  Se  Se197  1  0.58212821  0.91469922  0.29810852  1
  Se  Se198  1  0.58887025  0.91849925  0.80504518  1
  Se  Se199  1  0.92197589  0.24935953  0.29808571  1
  Se  Se200  1  0.90082213  0.24283462  0.80977495  1
  Se  Se201  1  0.91593234  0.58454855  0.30588344  1
  Se  Se202  1  0.91863440  0.58280799  0.80211991  1
  Se  Se203  1  0.90951290  0.90794094  0.31009278  1
  Se  Se204  1  0.90830471  0.90829378  0.81103885  1
  Se  Se205  1  0.09314891  0.08802318  0.30815743  1
  Se  Se206  1  0.08345173  0.08276793  0.81530847  1
  Se  Se207  1  0.08238246  0.41896875  0.30739939  1
  Se  Se208  1  0.08631499  0.42105048  0.81419398  1
  Se  Se209  1  0.08255389  0.74806176  0.30295814  1
  Se  Se210  1  0.07643389  0.74902576  0.79121935  1
  Se  Se211  1  0.42514087  0.09159322  0.31196227  1
  Se  Se212  1  0.41297558  0.07931006  0.80140733  1
  Se  Se213  1  0.41588861  0.42293384  0.29761100  1
  Se  Se214  1  0.40571891  0.39898599  0.79631165  1
  Se  Se215  1  0.42230307  0.76040524  0.30849453  1
  Se  Se216  1  0.41975550  0.74598516  0.81186049  1
  Se  Se217  1  0.74941685  0.07944097  0.29956602  1
  Se  Se218  1  0.74644804  0.08898720  0.79531535  1
  Se  Se219  1  0.74814956  0.41329629  0.30038503  1
  Se  Se220  1  0.74786160  0.43118484  0.81385951  1
  Se  Se221  1  0.74769288  0.74459070  0.30687174  1
  Se  Se222  1  0.74601610  0.74532520  0.80205825  1
  Se  Se223  1  0.24110867  0.09569650  0.19226685  1
  Se  Se224  1  0.24581435  0.07691262  0.69838112  1
  Se  Se225  1  0.25297751  0.42136986  0.19911095  1
  Se  Se226  1  0.24384029  0.40513574  0.69719737  1
  Se  Se227  1  0.24557159  0.75803236  0.18918230  1
  Se  Se228  1  0.26823780  0.72264375  0.69617063  1
  Se  Se229  1  0.58331986  0.07941331  0.19366132  1
  Se  Se230  1  0.58514375  0.08362166  0.69866005  1
  Se  Se231  1  0.58934815  0.41542886  0.19341438  1
  Se  Se232  1  0.58007700  0.42386468  0.68968447  1
  Se  Se233  1  0.57445172  0.73650766  0.18984755  1
  Se  Se234  1  0.58045818  0.74831958  0.69970609  1
  Se  Se235  1  0.90902752  0.08991324  0.18448851  1
  Se  Se236  1  0.90597228  0.09200963  0.69380703  1
  Se  Se237  1  0.92002228  0.42031238  0.19978416  1
  Se  Se238  1  0.90844563  0.42356131  0.69080024  1
  Se  Se239  1  0.91791369  0.74553132  0.19869072  1
  Se  Se240  1  0.91460592  0.74810516  0.69540403  1
  Se  Se241  1  0.08296795  0.26031422  0.19693836  1
  Se  Se242  1  0.08443641  0.24216570  0.69191064  1
  Se  Se243  1  0.08446716  0.58830884  0.20043269  1
  Se  Se244  1  0.07571764  0.58063344  0.69658467  1
  Se  Se245  1  0.08879682  0.91470236  0.19065953  1
  Se  Se246  1  0.08957925  0.90494769  0.69147450  1
  Se  Se247  1  0.41457964  0.25230411  0.19576009  1
  Se  Se248  1  0.41695887  0.24774544  0.69727873  1
  Se  Se249  1  0.42678314  0.58054487  0.18127742  1
  Se  Se250  1  0.43062769  0.56438748  0.70212161  1
  Se  Se251  1  0.42196579  0.90207366  0.19019477  1
  Se  Se252  1  0.41697342  0.91362496  0.70505614  1
  Se  Se253  1  0.74786518  0.25090389  0.19882415  1
  Se  Se254  1  0.75695205  0.24920452  0.69026270  1
  Se  Se255  1  0.74862852  0.58466809  0.19586062  1
  Se  Se256  1  0.74526574  0.58633501  0.69402098  1
  Se  Se257  1  0.74568159  0.90977908  0.19726413  1
  Se  Se258  1  0.74826429  0.91657099  0.69627274  1
