# generated using pymatgen
data_In86Cu29Se144
_symmetry_space_group_name_H-M   'P 1'
_cell_length_a   17.58111123
_cell_length_b   17.58079176
_cell_length_c   23.43394065
_cell_angle_alpha   89.99127023
_cell_angle_beta   89.99413045
_cell_angle_gamma   90.02651910
_symmetry_Int_Tables_number   1
_chemical_formula_structural   In86Cu29Se144
_chemical_formula_sum   'In86 Cu29 Se144'
_cell_volume   7243.19243145
_cell_formula_units_Z   1
loop_
 _symmetry_equiv_pos_site_id
 _symmetry_equiv_pos_as_xyz
  1  'x, y, z'
loop_
 _atom_site_type_symbol
 _atom_site_label
 _atom_site_symmetry_multiplicity
 _atom_site_fract_x
 _atom_site_fract_y
 _atom_site_fract_z
 _atom_site_occupancy
  In  In0  1  -0.00099801  0.15237891  0.12838553  1
  In  In1  1  -0.00686021  0.15751606  0.62938466  1
  In  In2  1  0.00558715  0.51103305  0.12283582  1
  In  In3  1  0.00576729  0.50809971  0.63755367  1
  In  In4  1  0.00971210  0.82715037  0.13366803  1
  In  In5  1  0.00654269  0.83655394  0.62496578  1
  In  In6  1  0.32390561  0.17601973  0.13269520  1
  In  In7  1  0.34447155  0.17590451  0.59829894  1
  In  In8  1  0.33666672  0.49837209  0.13625760  1
  In  In9  1  0.32032483  0.48052102  0.62578461  1
  In  In10  1  0.32803591  0.83695036  0.12815157  1
  In  In11  1  0.33488055  0.85092671  0.60251960  1
  In  In12  1  0.67771665  0.17049788  0.12663180  1
  In  In13  1  0.67042203  0.16571335  0.62695472  1
  In  In14  1  0.66659482  0.48709376  0.11985752  1
  In  In15  1  0.66668937  0.48409273  0.62942286  1
  In  In16  1  0.64592826  0.84623587  0.12141639  1
  In  In17  1  0.67324168  0.83744967  0.62334776  1
  In  In18  1  0.16636767  -0.00072869  0.37639753  1
  In  In19  1  0.16254843  0.00246494  0.88134941  1
  In  In20  1  0.17431503  0.31852528  0.38521747  1
  In  In21  1  0.15332290  0.31912877  0.86183403  1
  In  In22  1  0.17255145  0.67214336  0.37055397  1
  In  In23  1  0.17006706  0.68127261  0.87494806  1
  In  In24  1  0.47349290  0.01972428  0.39766704  1
  In  In25  1  0.50715590  -0.01138699  0.87237891  1
  In  In26  1  0.48912114  0.31559281  0.37060933  1
  In  In27  1  0.49437067  0.32484305  0.86507583  1
  In  In28  1  0.49326502  0.68509454  0.37678189  1
  In  In29  1  0.50308717  0.67748501  0.87571515  1
  In  In30  1  0.84509715  -0.00978770  0.38407435  1
  In  In31  1  0.83504132  0.00205930  0.85842823  1
  In  In32  1  0.82204397  0.33354783  0.37712447  1
  In  In33  1  0.84057706  0.33543926  0.86298173  1
  In  In34  1  0.84903773  0.67808519  0.37146426  1
  In  In35  1  0.83226868  0.65232657  0.87740426  1
  In  In36  1  0.01551671  0.15083390  0.39075114  1
  In  In37  1  0.00310937  0.16963977  0.86441286  1
  In  In38  1  -0.00658614  0.50871604  0.37493979  1
  In  In39  1  -0.00628802  0.48663382  0.86349608  1
  In  In40  1  -0.00127140  0.83222838  0.37740923  1
  In  In41  1  0.01195042  0.84481998  0.86648191  1
  In  In42  1  0.32867228  0.16353649  0.37965858  1
  In  In43  1  0.31764385  0.15650627  0.87381759  1
  In  In44  1  0.33000298  0.49465563  0.36621453  1
  In  In45  1  0.33706731  0.49507836  0.87347643  1
  In  In46  1  0.33132105  0.83798215  0.37415975  1
  In  In47  1  0.33172117  0.83322921  0.88137660  1
  In  In48  1  0.65751059  0.16799000  0.38169415  1
  In  In49  1  0.67230584  0.16078172  0.85243193  1
  In  In50  1  0.67284828  0.48526849  0.37551297  1
  In  In51  1  0.67819759  0.50582841  0.87652001  1
  In  In52  1  0.65258349  0.85273770  0.38724330  1
  In  In53  1  0.65748876  0.84081709  0.87239628  1
  In  In54  1  0.16647140  0.00141404  0.12736890  1
  In  In55  1  0.16575527  -0.00717477  0.61388460  1
  In  In56  1  0.17351117  0.33735235  0.12542161  1
  In  In57  1  0.17559025  0.31806082  0.63787821  1
  In  In58  1  0.15743009  0.67551250  0.13407793  1
  In  In59  1  0.15511963  0.67307196  0.61980565  1
  In  In60  1  0.50177480  -0.01645117  0.12197793  1
  In  In61  1  0.50297168  0.00522336  0.61641642  1
  In  In62  1  0.50107292  0.32843064  0.13258235  1
  In  In63  1  0.50526713  0.31974641  0.62963927  1
  In  In64  1  0.48539560  0.67601752  0.12973703  1
  In  In65  1  0.49717962  0.67653745  0.62224734  1
  In  In66  1  0.83585950  0.01108007  0.12796120  1
  In  In67  1  0.83470391  0.00083615  0.63025420  1
  In  In68  1  0.82305205  0.32930076  0.12347793  1
  In  In69  1  0.85043566  0.31102796  0.64559263  1
  In  In70  1  0.84951227  0.66986976  0.12285175  1
  In  In71  1  0.84768486  0.68221082  0.61964288  1
  In  In72  1  0.83368425  0.83272100  -0.00350420  1
  In  In73  1  0.67139750  0.66473204  0.75114693  1
  In  In74  1  0.83291129  0.16345270  -0.00428046  1
  In  In75  1  0.32764323  0.66903937  0.74684067  1
  In  In76  1  0.49995405  0.15878872  -0.00493759  1
  In  In77  1  0.49949992  0.50564100  -0.00081716  1
  In  In78  1  0.16558086  0.50359626  -0.00070673  1
  In  In79  1  0.83501580  0.49899206  0.50595008  1
  In  In80  1  0.66440447  0.00478945  0.24847034  1
  In  In81  1  0.50355379  0.50173879  0.50777472  1
  In  In82  1  0.00078782  0.33341589  0.25898310  1
  In  In83  1  0.16414109  0.49712436  0.49701204  1
  In  In84  1  0.33540902  0.00306905  0.73637225  1
  In  In85  1  0.67209887  0.66275175  0.25780636  1
  Cu  Cu86  1  0.48931730  0.83880103  0.25429190  1
  Cu  Cu87  1  0.66639285  0.67311033  -0.00269834  1
  Cu  Cu88  1  0.32727713  0.67818494  0.00769184  1
  Cu  Cu89  1  0.66382989  0.31980168  0.50407277  1
  Cu  Cu90  1  0.83579512  0.16642649  0.25399689  1
  Cu  Cu91  1  0.49035890  0.49421064  0.74831404  1
  Cu  Cu92  1  0.67171577  0.33451990  -0.00534876  1
  Cu  Cu93  1  0.49428692  0.16460546  0.73858507  1
  Cu  Cu94  1  0.33030489  0.66883579  0.49543883  1
  Cu  Cu95  1  0.84170567  0.83154104  0.74505809  1
  Cu  Cu96  1  0.32935506  -0.00240494  0.00207917  1
  Cu  Cu97  1  -0.00038154  0.32945267  0.51268401  1
  Cu  Cu98  1  0.16799808  0.16461112  0.25765005  1
  Cu  Cu99  1  0.16605343  0.16023298  0.74576043  1
  Cu  Cu100  1  0.16805527  0.50159268  0.25054673  1
  Cu  Cu101  1  0.67799692  0.67060490  0.49877290  1
  Cu  Cu102  1  -0.00336749  0.32881917  -0.01318972  1
  Cu  Cu103  1  0.83203994  0.49852050  0.75071351  1
  Cu  Cu104  1  0.32420115  0.33088440  0.00384043  1
  Cu  Cu105  1  0.67164133  0.00026604  0.50656449  1
  Cu  Cu106  1  0.83463709  0.49897748  0.25102448  1
  Cu  Cu107  1  0.50413875  0.49698887  0.25053436  1
  Cu  Cu108  1  0.49671403  0.16669736  0.25801968  1
  Cu  Cu109  1  0.16652724  0.83809133  0.25338632  1
  Cu  Cu110  1  -0.00492731  -0.00139202  0.50364729  1
  Cu  Cu111  1  0.83623212  0.83501464  0.25310556  1
  Cu  Cu112  1  0.00048109  0.66507407  0.00114684  1
  Cu  Cu113  1  0.00610012  -0.00415877  0.00084488  1
  Cu  Cu114  1  0.16860069  0.83883636  0.74413040  1
  Se  Se115  1  0.08372624  0.08379414  0.05507436  1
  Se  Se116  1  0.07734029  0.08446310  0.55594299  1
  Se  Se117  1  0.07290031  0.40667153  0.05422415  1
  Se  Se118  1  0.08009805  0.41433453  0.56648047  1
  Se  Se119  1  0.08129917  0.74840142  0.05602675  1
  Se  Se120  1  0.09469154  0.76800599  0.55116711  1
  Se  Se121  1  0.40897854  0.08032063  0.06232731  1
  Se  Se122  1  0.40105950  0.06008298  0.54777456  1
  Se  Se123  1  0.41100706  0.40981880  0.05867730  1
  Se  Se124  1  0.41394903  0.40562128  0.55922578  1
  Se  Se125  1  0.41709442  0.75992417  0.05600368  1
  Se  Se126  1  0.41722572  0.74958101  0.54821303  1
  Se  Se127  1  0.73920517  0.07249830  0.05431075  1
  Se  Se128  1  0.75450454  0.08431512  0.55838322  1
  Se  Se129  1  0.75517993  0.41571704  0.04874904  1
  Se  Se130  1  0.74871324  0.40078643  0.55983863  1
  Se  Se131  1  0.74288242  0.74960322  0.06406897  1
  Se  Se132  1  0.75669788  0.75549554  0.55339549  1
  Se  Se133  1  0.24201739  0.24590799  0.05519305  1
  Se  Se134  1  0.24139867  0.25990985  0.55090662  1
  Se  Se135  1  0.25561551  0.58748330  0.06481628  1
  Se  Se136  1  0.25742373  0.58720681  0.55870244  1
  Se  Se137  1  0.24527958  0.91608323  0.05696594  1
  Se  Se138  1  0.25656496  0.93707533  0.53547238  1
  Se  Se139  1  0.59036794  0.25536033  0.05501185  1
  Se  Se140  1  0.57735632  0.23791153  0.55505165  1
  Se  Se141  1  0.58687134  0.59552382  0.06282928  1
  Se  Se142  1  0.60104326  0.59227147  0.56321543  1
  Se  Se143  1  0.58372198  0.92439011  0.04238694  1
  Se  Se144  1  0.58566175  0.91294021  0.55374425  1
  Se  Se145  1  0.92391251  0.25260400  0.05746178  1
  Se  Se146  1  0.91172051  0.24492067  0.55892946  1
  Se  Se147  1  0.91619267  0.57943152  0.05036673  1
  Se  Se148  1  0.93267401  0.58910836  0.55609979  1
  Se  Se149  1  0.92123667  0.92051120  0.06148508  1
  Se  Se150  1  0.91423494  0.91652658  0.56046819  1
  Se  Se151  1  0.08374298  0.25039562  0.45532609  1
  Se  Se152  1  0.08290254  0.24284268  0.94110485  1
  Se  Se153  1  0.07702746  0.59401912  0.44252497  1
  Se  Se154  1  0.07649706  0.58763168  0.93517068  1
  Se  Se155  1  0.07791550  0.92024150  0.44517979  1
  Se  Se156  1  0.08739620  0.90950995  0.94867321  1
  Se  Se157  1  0.41998151  0.24048835  0.44727451  1
  Se  Se158  1  0.40537386  0.25369634  0.94209043  1
  Se  Se159  1  0.41243620  0.58404018  0.44015597  1
  Se  Se160  1  0.40372984  0.59802983  0.94346812  1
  Se  Se161  1  0.44218429  0.88831171  0.43799291  1
  Se  Se162  1  0.41527459  0.92249210  0.94424796  1
  Se  Se163  1  0.75161297  0.24490926  0.44750870  1
  Se  Se164  1  0.74384387  0.25057382  0.93269172  1
  Se  Se165  1  0.74984393  0.58637576  0.43773566  1
  Se  Se166  1  0.74998872  0.58277011  0.95375725  1
  Se  Se167  1  0.75368053  0.91585611  0.45186330  1
  Se  Se168  1  0.75144587  0.92706344  0.93597788  1
  Se  Se169  1  0.24948422  0.07648295  0.44845365  1
  Se  Se170  1  0.24543069  0.08353592  0.95200619  1
  Se  Se171  1  0.26550896  0.40980344  0.44629447  1
  Se  Se172  1  0.24846511  0.40827220  0.93893386  1
  Se  Se173  1  0.24783528  0.75353422  0.44394962  1
  Se  Se174  1  0.24435707  0.75757844  0.95149876  1
  Se  Se175  1  0.58535755  0.08162364  0.45304688  1
  Se  Se176  1  0.59733234  0.08252973  0.93322309  1
  Se  Se177  1  0.58584734  0.40577528  0.44505370  1
  Se  Se178  1  0.58305206  0.40978587  0.93747735  1
  Se  Se179  1  0.58668626  0.74723041  0.44818059  1
  Se  Se180  1  0.58331851  0.75680511  0.94635046  1
  Se  Se181  1  0.91128469  0.08633913  0.45280094  1
  Se  Se182  1  0.92428058  0.07248751  0.93823678  1
  Se  Se183  1  0.92638469  0.40708573  0.44442206  1
  Se  Se184  1  0.91228823  0.41565033  0.94001657  1
  Se  Se185  1  0.91321108  0.75547467  0.44888766  1
  Se  Se186  1  0.92551983  0.74566501  0.93634310  1
  Se  Se187  1  0.25213098  0.25066010  0.30669579  1
  Se  Se188  1  0.25123920  0.24279556  0.80014325  1
  Se  Se189  1  0.25280969  0.58588507  0.30187598  1
  Se  Se190  1  0.24404467  0.57931631  0.81106312  1
  Se  Se191  1  0.25110018  0.92184378  0.30448822  1
  Se  Se192  1  0.24993429  0.91663214  0.80631709  1
  Se  Se193  1  0.58875679  0.24864792  0.30379483  1
  Se  Se194  1  0.57745696  0.24567727  0.79628028  1
  Se  Se195  1  0.57693783  0.57563736  0.31672066  1
  Se  Se196  1  0.57178408  0.57470204  0.80868574  1
  Se  Se197  1  0.56996171  0.92403517  0.31028511  1
  Se  Se198  1  0.59000159  0.92214866  0.79718994  1
  Se  Se199  1  0.91604466  0.24041436  0.31913479  1
  Se  Se200  1  0.91202747  0.24302772  0.79797352  1
  Se  Se201  1  0.91649255  0.58600316  0.30026301  1
  Se  Se202  1  0.91508063  0.58432711  0.80239422  1
  Se  Se203  1  0.91967908  0.91841529  0.30534868  1
  Se  Se204  1  0.92438234  0.91823609  0.79680432  1
  Se  Se205  1  0.08064198  0.08208579  0.30652656  1
  Se  Se206  1  0.08753946  0.07690187  0.80387396  1
  Se  Se207  1  0.09446537  0.42271496  0.31749911  1
  Se  Se208  1  0.08903219  0.41863897  0.79849613  1
  Se  Se209  1  0.08288987  0.75246397  0.30542961  1
  Se  Se210  1  0.08915847  0.75369993  0.79958794  1
  Se  Se211  1  0.41328829  0.08132430  0.30835050  1
  Se  Se212  1  0.42150313  0.08682276  0.80770117  1
  Se  Se213  1  0.42028126  0.41263913  0.30356085  1
  Se  Se214  1  0.40802705  0.41008773  0.80104449  1
  Se  Se215  1  0.40762315  0.74833092  0.30130906  1
  Se  Se216  1  0.42038395  0.76035432  0.80503750  1
  Se  Se217  1  0.75551866  0.08469915  0.31445622  1
  Se  Se218  1  0.77047447  0.09502038  0.78693349  1
  Se  Se219  1  0.75109045  0.41239338  0.29920101  1
  Se  Se220  1  0.74468226  0.41902277  0.80344693  1
  Se  Se221  1  0.74777019  0.76699070  0.31482352  1
  Se  Se222  1  0.76121252  0.75669911  0.81135565  1
  Se  Se223  1  0.24852878  0.08379185  0.19822305  1
  Se  Se224  1  0.24660603  0.09280489  0.67852978  1
  Se  Se225  1  0.24991846  0.41371278  0.20016258  1
  Se  Se226  1  0.23553855  0.42268347  0.70236933  1
  Se  Se227  1  0.24874390  0.75239598  0.19875001  1
  Se  Se228  1  0.25331299  0.76691748  0.68180162  1
  Se  Se229  1  0.57238358  0.09407374  0.18706984  1
  Se  Se230  1  0.58145606  0.07992985  0.69184716  1
  Se  Se231  1  0.58688116  0.41596216  0.19538076  1
  Se  Se232  1  0.57778820  0.41258108  0.69823737  1
  Se  Se233  1  0.57941864  0.75781039  0.20009678  1
  Se  Se234  1  0.58001890  0.75487662  0.69487584  1
  Se  Se235  1  0.91795605  0.08016507  0.20362317  1
  Se  Se236  1  0.89790207  0.09569801  0.70275342  1
  Se  Se237  1  0.91556571  0.41857611  0.18940515  1
  Se  Se238  1  0.92114995  0.41869702  0.69987890  1
  Se  Se239  1  0.91779803  0.74913938  0.20001569  1
  Se  Se240  1  0.92830881  0.74826800  0.69684812  1
  Se  Se241  1  0.08759039  0.24501494  0.19460690  1
  Se  Se242  1  0.07643222  0.24369304  0.69789553  1
  Se  Se243  1  0.08025804  0.58309314  0.20024747  1
  Se  Se244  1  0.09213634  0.59471597  0.69872437  1
  Se  Se245  1  0.08244369  0.92107150  0.19863406  1
  Se  Se246  1  0.08628920  0.92553536  0.69341169  1
  Se  Se247  1  0.41543348  0.25068187  0.20023614  1
  Se  Se248  1  0.40378058  0.24265144  0.68807080  1
  Se  Se249  1  0.42086902  0.58387126  0.20091814  1
  Se  Se250  1  0.41861096  0.57625410  0.68560994  1
  Se  Se251  1  0.41241975  0.92229723  0.19622547  1
  Se  Se252  1  0.42371022  0.90605494  0.68452240  1
  Se  Se253  1  0.75268462  0.24979225  0.20088502  1
  Se  Se254  1  0.72383747  0.27454119  0.69136771  1
  Se  Se255  1  0.75561124  0.57835982  0.18774104  1
  Se  Se256  1  0.76011613  0.57977188  0.68515909  1
  Se  Se257  1  0.75376217  0.90831177  0.18918081  1
  Se  Se258  1  0.75148406  0.91311278  0.69796874  1
