# generated using pymatgen
data_In86Cu29Se144
_symmetry_space_group_name_H-M   'P 1'
_cell_length_a   17.58304568
_cell_length_b   17.57920389
_cell_length_c   23.44348894
_cell_angle_alpha   89.97023066
_cell_angle_beta   89.97341444
_cell_angle_gamma   90.01060103
_symmetry_Int_Tables_number   1
_chemical_formula_structural   In86Cu29Se144
_chemical_formula_sum   'In86 Cu29 Se144'
_cell_volume   7246.28548542
_cell_formula_units_Z   1
loop_
 _symmetry_equiv_pos_site_id
 _symmetry_equiv_pos_as_xyz
  1  'x, y, z'
loop_
 _atom_site_type_symbol
 _atom_site_label
 _atom_site_symmetry_multiplicity
 _atom_site_fract_x
 _atom_site_fract_y
 _atom_site_fract_z
 _atom_site_occupancy
  In  In0  1  -0.00137304  0.17978908  0.12551334  1
  In  In1  1  0.01745466  0.18634131  0.60920107  1
  In  In2  1  0.00910620  0.50992474  0.11698517  1
  In  In3  1  -0.00769551  0.48464920  0.62146686  1
  In  In4  1  -0.00308365  0.81478773  0.13019218  1
  In  In5  1  0.01232870  0.83067639  0.61703282  1
  In  In6  1  0.35103510  0.17102925  0.12381154  1
  In  In7  1  0.33562552  0.17205187  0.62425024  1
  In  In8  1  0.33525167  0.50333366  0.12380863  1
  In  In9  1  0.33386942  0.50869402  0.63545829  1
  In  In10  1  0.31872275  0.83571932  0.12313246  1
  In  In11  1  0.33332565  0.82946973  0.61917020  1
  In  In12  1  0.66205150  0.16509185  0.12227224  1
  In  In13  1  0.66627698  0.17480647  0.62070279  1
  In  In14  1  0.65854860  0.50214660  0.10407000  1
  In  In15  1  0.66569746  0.48992793  0.64087463  1
  In  In16  1  0.67687140  0.83347048  0.12931799  1
  In  In17  1  0.65108127  0.83982825  0.61880050  1
  In  In18  1  0.16458077  -0.00296366  0.39020612  1
  In  In19  1  0.16079219  0.00144638  0.87912828  1
  In  In20  1  0.17401906  0.32717653  0.38307951  1
  In  In21  1  0.18260937  0.34764184  0.85127356  1
  In  In22  1  0.17001819  0.66349915  0.37461513  1
  In  In23  1  0.17831735  0.64961609  0.88335093  1
  In  In24  1  0.51274167  -0.01049508  0.38888775  1
  In  In25  1  0.50868750  0.01167349  0.87344839  1
  In  In26  1  0.48506931  0.33116462  0.37545215  1
  In  In27  1  0.49855727  0.33642399  0.87202833  1
  In  In28  1  0.48676194  0.68363127  0.37426387  1
  In  In29  1  0.49114505  0.65017053  0.86167738  1
  In  In30  1  0.83606465  0.01190255  0.37912227  1
  In  In31  1  0.84534915  0.00766131  0.87474654  1
  In  In32  1  0.83224461  0.32919566  0.38474664  1
  In  In33  1  0.83139887  0.33466726  0.87484330  1
  In  In34  1  0.83322829  0.64816097  0.37592840  1
  In  In35  1  0.81384159  0.65886229  0.87121531  1
  In  In36  1  -0.00177305  0.15831419  0.39371140  1
  In  In37  1  -0.01001805  0.16689260  0.87535969  1
  In  In38  1  -0.00152918  0.50380025  0.37796171  1
  In  In39  1  0.01275416  0.48620329  0.88094695  1
  In  In40  1  0.01632068  0.83044722  0.37906213  1
  In  In41  1  0.00696082  0.84193818  0.87694431  1
  In  In42  1  0.33204083  0.17062181  0.38342146  1
  In  In43  1  0.32707326  0.21569385  0.87722941  1
  In  In44  1  0.32414931  0.48957290  0.36761920  1
  In  In45  1  0.32998372  0.49315657  0.87138072  1
  In  In46  1  0.34041776  0.82030312  0.37604280  1
  In  In47  1  0.33422320  0.81618281  0.87586678  1
  In  In48  1  0.67738338  0.15339922  0.39003617  1
  In  In49  1  0.65148153  0.18201382  0.88292947  1
  In  In50  1  0.67455799  0.50561767  0.37832082  1
  In  In51  1  0.66917065  0.50292037  0.87565840  1
  In  In52  1  0.64371696  0.83666532  0.37527325  1
  In  In53  1  0.67223941  0.82360216  0.87204857  1
  In  In54  1  0.18214003  -0.00385118  0.12596513  1
  In  In55  1  0.16909639  0.00575221  0.61147277  1
  In  In56  1  0.17416339  0.34935419  0.12044798  1
  In  In57  1  0.16512826  0.33250698  0.62792228  1
  In  In58  1  0.16563778  0.66553664  0.12467628  1
  In  In59  1  0.18040812  0.67245840  0.61885080  1
  In  In60  1  0.50322623  0.01373822  0.12646698  1
  In  In61  1  0.51276595  0.00218197  0.60615830  1
  In  In62  1  0.49445986  0.33743468  0.11763453  1
  In  In63  1  0.50327609  0.33570538  0.64410897  1
  In  In64  1  0.50360671  0.65199345  0.12175060  1
  In  In65  1  0.49213031  0.66791267  0.63296365  1
  In  In66  1  0.82042662  -0.00253583  0.13092737  1
  In  In67  1  0.82571353  0.02238643  0.61331034  1
  In  In68  1  0.82788480  0.33226408  0.11371304  1
  In  In69  1  0.82933431  0.33286742  0.62931128  1
  In  In70  1  0.83391550  0.66808382  0.12324857  1
  In  In71  1  0.83734227  0.64633864  0.62362665  1
  In  In72  1  0.66770865  0.00214444  0.74292255  1
  In  In73  1  0.83466889  0.82969036  0.00480622  1
  In  In74  1  0.83451594  0.83370552  0.49637753  1
  In  In75  1  0.00508213  -0.00061286  0.26419647  1
  In  In76  1  0.00463505  0.66215149  0.75203228  1
  In  In77  1  0.66035573  0.33082849  0.24396674  1
  In  In78  1  0.66127964  0.66706662  0.24843539  1
  In  In79  1  0.34266332  -0.00701125  0.25750217  1
  In  In80  1  -0.00033602  0.00517154  0.73994677  1
  In  In81  1  0.33563806  0.00189619  0.74192487  1
  In  In82  1  0.16888239  0.17309631  -0.00109852  1
  In  In83  1  0.50308865  0.49687068  0.50528297  1
  In  In84  1  0.00409707  0.33696971  0.25059105  1
  In  In85  1  0.49856382  0.82965176  -0.00179803  1
  Cu  Cu86  1  0.32383655  0.66012138  -0.00253945  1
  Cu  Cu87  1  0.33513865  0.66261222  0.50068798  1
  Cu  Cu88  1  0.16524243  0.82598954  0.25104825  1
  Cu  Cu89  1  0.50414666  0.16764730  0.24960446  1
  Cu  Cu90  1  0.01082763  0.65834540  0.50198433  1
  Cu  Cu91  1  0.33160817  -0.00117892  0.49946659  1
  Cu  Cu92  1  -0.00245084  0.33953150  0.50314379  1
  Cu  Cu93  1  0.83226394  0.49389816  0.75173344  1
  Cu  Cu94  1  0.16626005  0.50182320  0.74797522  1
  Cu  Cu95  1  0.49052641  0.50573907  0.24863061  1
  Cu  Cu96  1  0.83550230  0.49917973  0.24747168  1
  Cu  Cu97  1  0.17861376  0.82529598  0.74831841  1
  Cu  Cu98  1  0.66857962  0.33427771  -0.00673640  1
  Cu  Cu99  1  0.83497197  0.16077782  0.25802818  1
  Cu  Cu100  1  -0.00337294  0.33062672  -0.00369068  1
  Cu  Cu101  1  0.00291270  0.00033224  0.00014708  1
  Cu  Cu102  1  0.66970119  0.66361306  0.49911661  1
  Cu  Cu103  1  0.83092774  0.82801957  0.74273960  1
  Cu  Cu104  1  0.82983739  0.82788302  0.25096992  1
  Cu  Cu105  1  0.33405880  0.00304916  0.00029240  1
  Cu  Cu106  1  0.32931881  0.33340236  0.50338190  1
  Cu  Cu107  1  -0.00045432  0.66762892  0.00033521  1
  Cu  Cu108  1  0.66420794  0.33336828  0.51060939  1
  Cu  Cu109  1  0.50035566  0.82540068  0.74547545  1
  Cu  Cu110  1  0.18185482  0.17358829  0.25724372  1
  Cu  Cu111  1  0.17080554  0.50829039  0.24459800  1
  Cu  Cu112  1  0.67174292  0.00569648  0.00127095  1
  Cu  Cu113  1  0.82387390  0.17677934  0.75209692  1
  Cu  Cu114  1  0.49225625  0.17265836  0.75392291  1
  Se  Se115  1  0.08194283  0.07943435  0.06377413  1
  Se  Se116  1  0.07022467  0.07515650  0.55011996  1
  Se  Se117  1  0.07941294  0.41319962  0.05146546  1
  Se  Se118  1  0.08851044  0.41734428  0.55432177  1
  Se  Se119  1  0.08184060  0.75085798  0.05480799  1
  Se  Se120  1  0.09247774  0.74832721  0.54881825  1
  Se  Se121  1  0.42073024  0.08371654  0.05130683  1
  Se  Se122  1  0.41125673  0.08343980  0.55439954  1
  Se  Se123  1  0.43011507  0.43741876  0.05443623  1
  Se  Se124  1  0.41126176  0.41063534  0.56493026  1
  Se  Se125  1  0.40458711  0.74257734  0.05765305  1
  Se  Se126  1  0.42053644  0.74452993  0.55424447  1
  Se  Se127  1  0.75495626  0.08514301  0.05754583  1
  Se  Se128  1  0.71597203  0.07054395  0.55203928  1
  Se  Se129  1  0.75258768  0.41941358  0.04536942  1
  Se  Se130  1  0.74483309  0.42003480  0.56268296  1
  Se  Se131  1  0.73472127  0.73872200  0.05349789  1
  Se  Se132  1  0.75027136  0.74240611  0.56107180  1
  Se  Se133  1  0.26336062  0.25904978  0.05778163  1
  Se  Se134  1  0.24587030  0.24864014  0.55622721  1
  Se  Se135  1  0.24290690  0.57882451  0.05512748  1
  Se  Se136  1  0.25632425  0.57694069  0.55533865  1
  Se  Se137  1  0.24795506  0.91776410  0.04698428  1
  Se  Se138  1  0.24953204  0.91171414  0.55130246  1
  Se  Se139  1  0.58849198  0.25669871  0.05605426  1
  Se  Se140  1  0.57189909  0.26034096  0.56315269  1
  Se  Se141  1  0.57289902  0.58454415  0.04065295  1
  Se  Se142  1  0.59163144  0.58721419  0.56451692  1
  Se  Se143  1  0.59198616  0.92077368  0.05850242  1
  Se  Se144  1  0.57979909  0.90755296  0.53900824  1
  Se  Se145  1  0.91527141  0.24626437  0.05047998  1
  Se  Se146  1  0.90963694  0.25575269  0.55411367  1
  Se  Se147  1  0.91370326  0.58605953  0.05315603  1
  Se  Se148  1  0.92151788  0.57654680  0.55051905  1
  Se  Se149  1  0.92449103  0.92245496  0.06546983  1
  Se  Se150  1  0.91826108  0.92231021  0.56177097  1
  Se  Se151  1  0.08102070  0.25438358  0.45007562  1
  Se  Se152  1  0.08139675  0.25781498  0.93478777  1
  Se  Se153  1  0.09179501  0.57644804  0.44483309  1
  Se  Se154  1  0.08239774  0.58030687  0.94922473  1
  Se  Se155  1  0.07162438  0.92122469  0.45321974  1
  Se  Se156  1  0.08727430  0.91574272  0.95135145  1
  Se  Se157  1  0.41702368  0.25165718  0.45301667  1
  Se  Se158  1  0.43549954  0.24084527  0.94496749  1
  Se  Se159  1  0.41351955  0.58069219  0.43948944  1
  Se  Se160  1  0.40857505  0.58418487  0.93962397  1
  Se  Se161  1  0.41082309  0.91302650  0.44513241  1
  Se  Se162  1  0.41235371  0.92365123  0.93603244  1
  Se  Se163  1  0.74841698  0.25129566  0.45421375  1
  Se  Se164  1  0.75437248  0.24651022  0.94595826  1
  Se  Se165  1  0.75534143  0.57615841  0.45369285  1
  Se  Se166  1  0.75164660  0.58050645  0.94919608  1
  Se  Se167  1  0.74190904  0.91921268  0.43756199  1
  Se  Se168  1  0.74783480  0.92335378  0.93987557  1
  Se  Se169  1  0.24808053  0.08725511  0.45091830  1
  Se  Se170  1  0.26076970  0.08639775  0.93603390  1
  Se  Se171  1  0.25114199  0.41990564  0.44855907  1
  Se  Se172  1  0.24560552  0.40792348  0.93742064  1
  Se  Se173  1  0.25172962  0.74628509  0.44561859  1
  Se  Se174  1  0.24370007  0.75189685  0.94850987  1
  Se  Se175  1  0.56323800  0.10284318  0.44681744  1
  Se  Se176  1  0.58252564  0.08535313  0.95065794  1
  Se  Se177  1  0.59138327  0.40723304  0.43974353  1
  Se  Se178  1  0.58371360  0.41699252  0.94162427  1
  Se  Se179  1  0.58191487  0.74219876  0.44701801  1
  Se  Se180  1  0.58168999  0.74098003  0.93485571  1
  Se  Se181  1  0.90470629  0.08586443  0.45761464  1
  Se  Se182  1  0.91765276  0.08446827  0.95129533  1
  Se  Se183  1  0.91510367  0.41956987  0.44562705  1
  Se  Se184  1  0.91398326  0.41741387  0.94534474  1
  Se  Se185  1  0.92519867  0.73596367  0.44151164  1
  Se  Se186  1  0.92058256  0.74517651  0.93601955  1
  Se  Se187  1  0.26170689  0.25844147  0.30933003  1
  Se  Se188  1  0.23723622  0.23481715  0.79348147  1
  Se  Se189  1  0.25490841  0.58725513  0.30228070  1
  Se  Se190  1  0.25029336  0.58397675  0.80179182  1
  Se  Se191  1  0.23858546  0.91210366  0.31240199  1
  Se  Se192  1  0.24873915  0.91360996  0.80985736  1
  Se  Se193  1  0.58266003  0.24519269  0.31436196  1
  Se  Se194  1  0.58437699  0.25269753  0.80131709  1
  Se  Se195  1  0.57393022  0.57692416  0.31286858  1
  Se  Se196  1  0.59890783  0.59110003  0.80285495  1
  Se  Se197  1  0.57329810  0.92008512  0.30301722  1
  Se  Se198  1  0.57796120  0.90911536  0.80572341  1
  Se  Se199  1  0.91777649  0.24337623  0.31305438  1
  Se  Se200  1  0.91505802  0.25175771  0.80457445  1
  Se  Se201  1  0.91873175  0.57972488  0.30171729  1
  Se  Se202  1  0.91436675  0.57409559  0.81216034  1
  Se  Se203  1  0.90900313  0.90497259  0.31477838  1
  Se  Se204  1  0.91050128  0.90861106  0.80230089  1
  Se  Se205  1  0.09662119  0.09734416  0.31576328  1
  Se  Se206  1  0.08637403  0.08857451  0.80692936  1
  Se  Se207  1  0.09617095  0.42453476  0.30905817  1
  Se  Se208  1  0.07609456  0.41870609  0.79487461  1
  Se  Se209  1  0.08186723  0.74379874  0.30481182  1
  Se  Se210  1  0.09415582  0.75355422  0.81136434  1
  Se  Se211  1  0.42484369  0.09108082  0.31354651  1
  Se  Se212  1  0.41199465  0.09163595  0.81234839  1
  Se  Se213  1  0.41576670  0.41390955  0.30023701  1
  Se  Se214  1  0.41219075  0.41155360  0.80225831  1
  Se  Se215  1  0.41536800  0.75430635  0.29538721  1
  Se  Se216  1  0.41356255  0.74767722  0.79927306  1
  Se  Se217  1  0.74611587  0.08107540  0.30737687  1
  Se  Se218  1  0.74988996  0.08932823  0.81158826  1
  Se  Se219  1  0.75608286  0.41756433  0.30644740  1
  Se  Se220  1  0.74640880  0.41325924  0.80535560  1
  Se  Se221  1  0.75064273  0.75054683  0.31548568  1
  Se  Se222  1  0.74823072  0.74732056  0.79657642  1
  Se  Se223  1  0.25485607  0.09044595  0.19549347  1
  Se  Se224  1  0.23721100  0.08882790  0.68953191  1
  Se  Se225  1  0.25368024  0.42001579  0.19599561  1
  Se  Se226  1  0.24952165  0.41661676  0.69595806  1
  Se  Se227  1  0.24899180  0.74826634  0.19488495  1
  Se  Se228  1  0.26185867  0.74483764  0.69463974  1
  Se  Se229  1  0.58999204  0.08444053  0.19882890  1
  Se  Se230  1  0.56830941  0.08981547  0.69110056  1
  Se  Se231  1  0.57959339  0.43285808  0.18930555  1
  Se  Se232  1  0.56013583  0.44061768  0.70901632  1
  Se  Se233  1  0.57342932  0.75676215  0.18781238  1
  Se  Se234  1  0.59004535  0.74962042  0.69255988  1
  Se  Se235  1  0.91937442  0.08638974  0.19589920  1
  Se  Se236  1  0.90303605  0.09764520  0.69045914  1
  Se  Se237  1  0.91223476  0.41865395  0.18569811  1
  Se  Se238  1  0.91656507  0.41168239  0.69872275  1
  Se  Se239  1  0.91141751  0.74116384  0.20100534  1
  Se  Se240  1  0.91822487  0.75211797  0.68640263  1
  Se  Se241  1  0.09972694  0.24635055  0.19305258  1
  Se  Se242  1  0.07768303  0.25052206  0.69465995  1
  Se  Se243  1  0.07901112  0.58643328  0.19556333  1
  Se  Se244  1  0.08859922  0.57974672  0.68359272  1
  Se  Se245  1  0.08829740  0.91358587  0.19331096  1
  Se  Se246  1  0.09806320  0.90866294  0.69108033  1
  Se  Se247  1  0.42542260  0.25442223  0.19586345  1
  Se  Se248  1  0.40584116  0.25266862  0.70108796  1
  Se  Se249  1  0.41183936  0.59136784  0.19523033  1
  Se  Se250  1  0.43086154  0.57278015  0.70344373  1
  Se  Se251  1  0.42248416  0.91161116  0.18480439  1
  Se  Se252  1  0.43080727  0.91444566  0.68442337  1
  Se  Se253  1  0.76267334  0.24243417  0.19360911  1
  Se  Se254  1  0.73807477  0.25472348  0.69693229  1
  Se  Se255  1  0.74770243  0.57220162  0.18769056  1
  Se  Se256  1  0.75336353  0.58240681  0.69991910  1
  Se  Se257  1  0.74659809  0.91654877  0.20473405  1
  Se  Se258  1  0.75912899  0.91360264  0.68218687  1
