# generated using pymatgen
data_In86Cu29Se144
_symmetry_space_group_name_H-M   'P 1'
_cell_length_a   17.59199557
_cell_length_b   17.59706922
_cell_length_c   23.45941268
_cell_angle_alpha   90.00096609
_cell_angle_beta   89.98647028
_cell_angle_gamma   89.98435347
_symmetry_Int_Tables_number   1
_chemical_formula_structural   In86Cu29Se144
_chemical_formula_sum   'In86 Cu29 Se144'
_cell_volume   7262.27275467
_cell_formula_units_Z   1
loop_
 _symmetry_equiv_pos_site_id
 _symmetry_equiv_pos_as_xyz
  1  'x, y, z'
loop_
 _atom_site_type_symbol
 _atom_site_label
 _atom_site_symmetry_multiplicity
 _atom_site_fract_x
 _atom_site_fract_y
 _atom_site_fract_z
 _atom_site_occupancy
  In  In0  1  -0.02759134  0.18025202  0.15442142  1
  In  In1  1  -0.00575118  0.17730301  0.62641257  1
  In  In2  1  -0.02352743  0.49987850  0.11732619  1
  In  In3  1  -0.00615776  0.50618469  0.63049763  1
  In  In4  1  0.00287872  0.83886669  0.12904323  1
  In  In5  1  -0.02538643  0.83439716  0.62634461  1
  In  In6  1  0.32790521  0.16132490  0.12383688  1
  In  In7  1  0.33271838  0.16541457  0.63093037  1
  In  In8  1  0.35339152  0.49804486  0.12036213  1
  In  In9  1  0.33875291  0.49946112  0.63202668  1
  In  In10  1  0.36204618  0.81192949  0.15132417  1
  In  In11  1  0.34846363  0.82242551  0.62928297  1
  In  In12  1  0.67355849  0.17824235  0.13546147  1
  In  In13  1  0.67378173  0.15922038  0.62615016  1
  In  In14  1  0.67031255  0.50061891  0.12587092  1
  In  In15  1  0.66789979  0.50084964  0.62473229  1
  In  In16  1  0.66876230  0.82029141  0.14579624  1
  In  In17  1  0.67030709  0.83484830  0.62250991  1
  In  In18  1  0.16796883  0.00212986  0.37754482  1
  In  In19  1  0.16682301  -0.01369384  0.87510836  1
  In  In20  1  0.15212530  0.33894207  0.37800420  1
  In  In21  1  0.16031030  0.32784593  0.87126984  1
  In  In22  1  0.17461029  0.66009183  0.37793193  1
  In  In23  1  0.17005790  0.66857816  0.86570806  1
  In  In24  1  0.50466058  -0.01148859  0.36366685  1
  In  In25  1  0.50249383  0.00041216  0.86749502  1
  In  In26  1  0.51682051  0.32433621  0.37781158  1
  In  In27  1  0.52332175  0.35635317  0.85897000  1
  In  In28  1  0.50306864  0.66707321  0.37514812  1
  In  In29  1  0.50293411  0.66397113  0.87312577  1
  In  In30  1  0.82259584  -0.00380228  0.36689478  1
  In  In31  1  0.82915619  0.00251894  0.87042011  1
  In  In32  1  0.83355983  0.33417803  0.37706012  1
  In  In33  1  0.83537458  0.34354529  0.87160221  1
  In  In34  1  0.80992259  0.68156759  0.38978346  1
  In  In35  1  0.80396888  0.63886608  0.84774883  1
  In  In36  1  -0.03900665  0.14206027  0.34646159  1
  In  In37  1  -0.01555836  0.17678669  0.87707479  1
  In  In38  1  -0.00912863  0.48586174  0.36903795  1
  In  In39  1  -0.01903465  0.48278508  0.86801731  1
  In  In40  1  -0.02209352  0.82607635  0.37027106  1
  In  In41  1  0.00370614  0.83448592  0.87523270  1
  In  In42  1  0.34529646  0.16190376  0.37503338  1
  In  In43  1  0.33498936  0.16563328  0.86965177  1
  In  In44  1  0.34089352  0.51671238  0.37169563  1
  In  In45  1  0.34907583  0.51300433  0.86717902  1
  In  In46  1  0.35385996  0.84673335  0.36455221  1
  In  In47  1  0.33696583  0.83268681  0.86417841  1
  In  In48  1  0.68437483  0.18105794  0.36261812  1
  In  In49  1  0.66831317  0.16719262  0.86792910  1
  In  In50  1  0.66448400  0.50162621  0.37793819  1
  In  In51  1  0.66785286  0.50000771  0.87990731  1
  In  In52  1  0.66821348  0.82639892  0.36888799  1
  In  In53  1  0.66515137  0.82274222  0.86188877  1
  In  In54  1  0.17176959  0.00147329  0.13415550  1
  In  In55  1  0.16847267  0.01088083  0.62272243  1
  In  In56  1  0.16452971  0.32099435  0.12085494  1
  In  In57  1  0.16021470  0.34097058  0.63482935  1
  In  In58  1  0.16380874  0.67998955  0.12397544  1
  In  In59  1  0.17057024  0.66417642  0.63084430  1
  In  In60  1  0.50860732  -0.01576081  0.14225799  1
  In  In61  1  0.51678724  -0.01352046  0.62927055  1
  In  In62  1  0.51098360  0.34907000  0.11785919  1
  In  In63  1  0.49196309  0.34219051  0.63174451  1
  In  In64  1  0.52497582  0.64388954  0.15073008  1
  In  In65  1  0.50668190  0.66929051  0.62309248  1
  In  In66  1  0.81638880  0.01010602  0.15697163  1
  In  In67  1  0.81155968  -0.01124123  0.60702494  1
  In  In68  1  0.82863740  0.34357535  0.13806290  1
  In  In69  1  0.83031293  0.33265067  0.62435944  1
  In  In70  1  0.82958328  0.65755736  0.12456860  1
  In  In71  1  0.83235870  0.66629533  0.62709629  1
  In  In72  1  0.16373074  0.49950344  -0.00527932  1
  In  In73  1  0.16030743  0.16238545  -0.00450329  1
  In  In74  1  0.00295735  0.00594402  0.74892370  1
  In  In75  1  0.16409595  0.83170260  0.50215017  1
  In  In76  1  0.15824655  0.17185619  0.50363292  1
  In  In77  1  0.82876335  0.17900626  0.01074309  1
  In  In78  1  0.83319093  0.83056889  0.00467458  1
  In  In79  1  0.33440848  0.33268111  0.24320540  1
  In  In80  1  0.51073018  0.16086306  0.49814004  1
  In  In81  1  -0.00593923  0.66558611  0.24624306  1
  In  In82  1  0.16565885  0.83443368  0.00089207  1
  In  In83  1  0.16369334  0.50192282  0.50535230  1
  In  In84  1  0.50522990  0.82409192  0.00223160  1
  In  In85  1  0.50033799  0.17040973  0.00686888  1
  Cu  Cu86  1  0.33796725  0.66202376  -0.00083153  1
  Cu  Cu87  1  0.33444232  -0.01078621  0.00642047  1
  Cu  Cu88  1  0.66768451  -0.00207531  0.00301212  1
  Cu  Cu89  1  0.34950030  0.67194494  0.49726973  1
  Cu  Cu90  1  -0.00906562  0.66217364  0.50362165  1
  Cu  Cu91  1  0.66740618  0.33947455  0.50074490  1
  Cu  Cu92  1  -0.00870366  0.01161638  0.01807972  1
  Cu  Cu93  1  0.16994261  0.16826574  0.74943766  1
  Cu  Cu94  1  0.66518459  0.66524716  0.50196124  1
  Cu  Cu95  1  0.66836038  -0.00438816  0.49014838  1
  Cu  Cu96  1  0.17076690  0.83600991  0.74683487  1
  Cu  Cu97  1  0.34340674  0.33709672  -0.01150622  1
  Cu  Cu98  1  0.17222273  0.49753550  0.75490754  1
  Cu  Cu99  1  0.33262242  0.34379192  0.50555941  1
  Cu  Cu100  1  0.50239535  0.16685892  0.25084115  1
  Cu  Cu101  1  -0.01272858  0.65976833  -0.01181031  1
  Cu  Cu102  1  0.17139080  0.83109391  0.25268809  1
  Cu  Cu103  1  0.16978268  0.17239166  0.25118711  1
  Cu  Cu104  1  -0.01551272  0.32752990  0.49695371  1
  Cu  Cu105  1  0.83096368  0.16548160  0.74794770  1
  Cu  Cu106  1  -0.01641675  0.00155224  0.48874702  1
  Cu  Cu107  1  0.82305854  0.50476735  0.25360224  1
  Cu  Cu108  1  0.16639396  0.50274369  0.24677518  1
  Cu  Cu109  1  0.34460196  -0.00609340  0.49938872  1
  Cu  Cu110  1  0.50598316  0.49387935  0.25147821  1
  Cu  Cu111  1  0.49574102  0.16763547  0.74803246  1
  Cu  Cu112  1  0.50451778  0.50581102  0.74730057  1
  Cu  Cu113  1  0.50312084  0.83459414  0.74718633  1
  Cu  Cu114  1  0.83030757  0.49548532  0.74589924  1
  Se  Se115  1  0.07907770  0.08846047  0.07131720  1
  Se  Se116  1  0.06483492  0.07303303  0.55421640  1
  Se  Se117  1  0.07814439  0.41301524  0.05922096  1
  Se  Se118  1  0.07061318  0.40506171  0.55620172  1
  Se  Se119  1  0.06389615  0.74136834  0.05063133  1
  Se  Se120  1  0.07525745  0.74100649  0.56149294  1
  Se  Se121  1  0.41754504  0.06877849  0.06304810  1
  Se  Se122  1  0.41754015  0.07817617  0.56169748  1
  Se  Se123  1  0.42394930  0.41849330  0.04466642  1
  Se  Se124  1  0.41845422  0.42414379  0.55676330  1
  Se  Se125  1  0.41510429  0.73718103  0.06282514  1
  Se  Se126  1  0.42869370  0.75681550  0.55123800  1
  Se  Se127  1  0.74582847  0.07442518  0.06610006  1
  Se  Se128  1  0.74305848  0.08839990  0.54330011  1
  Se  Se129  1  0.75824979  0.41801237  0.06117523  1
  Se  Se130  1  0.75218907  0.41890423  0.55509527  1
  Se  Se131  1  0.73578584  0.74475610  0.06173435  1
  Se  Se132  1  0.75094985  0.74708449  0.55516288  1
  Se  Se133  1  0.26318738  0.25600610  0.04776647  1
  Se  Se134  1  0.25293081  0.26140028  0.56118806  1
  Se  Se135  1  0.25183164  0.58826126  0.05950713  1
  Se  Se136  1  0.26246906  0.59380844  0.55529102  1
  Se  Se137  1  0.25641181  0.91122984  0.06714821  1
  Se  Se138  1  0.25883162  0.92114332  0.55989042  1
  Se  Se139  1  0.60153864  0.25822265  0.05576225  1
  Se  Se140  1  0.58601756  0.25840978  0.56136329  1
  Se  Se141  1  0.57661854  0.57996976  0.06215978  1
  Se  Se142  1  0.58294144  0.58059537  0.55419733  1
  Se  Se143  1  0.59366962  0.91500404  0.06381214  1
  Se  Se144  1  0.58793669  0.91588934  0.54892979  1
  Se  Se145  1  0.92728153  0.26060295  0.06703925  1
  Se  Se146  1  0.90669969  0.24335551  0.55312786  1
  Se  Se147  1  0.90337502  0.58362275  0.04557684  1
  Se  Se148  1  0.91089148  0.57731084  0.55640737  1
  Se  Se149  1  0.90791434  0.92851703  0.07104339  1
  Se  Se150  1  0.91036181  0.91315866  0.54645313  1
  Se  Se151  1  0.06654577  0.24787222  0.43824002  1
  Se  Se152  1  0.06822781  0.26111674  0.94755012  1
  Se  Se153  1  0.07220320  0.58626926  0.44051215  1
  Se  Se154  1  0.07642288  0.58713507  0.93154138  1
  Se  Se155  1  0.07268078  0.91854540  0.43919926  1
  Se  Se156  1  0.06730935  0.93205165  0.95252122  1
  Se  Se157  1  0.41098425  0.25807702  0.44729368  1
  Se  Se158  1  0.42349858  0.25302034  0.93339055  1
  Se  Se159  1  0.42532685  0.57953826  0.44761329  1
  Se  Se160  1  0.42406009  0.58297056  0.94645020  1
  Se  Se161  1  0.42884247  0.91707117  0.44360647  1
  Se  Se162  1  0.41481355  0.91771207  0.94146962  1
  Se  Se163  1  0.74740075  0.25344883  0.44649694  1
  Se  Se164  1  0.74331924  0.25578876  0.93961810  1
  Se  Se165  1  0.74825019  0.57691743  0.45182427  1
  Se  Se166  1  0.75417243  0.58861997  0.94202633  1
  Se  Se167  1  0.75113969  0.90934598  0.43951640  1
  Se  Se168  1  0.74290239  0.91890010  0.93962101  1
  Se  Se169  1  0.26076742  0.08102987  0.44954614  1
  Se  Se170  1  0.25815905  0.06852649  0.94400217  1
  Se  Se171  1  0.25468499  0.41717102  0.43943808  1
  Se  Se172  1  0.25742869  0.41503233  0.93267887  1
  Se  Se173  1  0.25970333  0.74934150  0.44185395  1
  Se  Se174  1  0.25976016  0.74526660  0.94119369  1
  Se  Se175  1  0.59489487  0.08037861  0.42787052  1
  Se  Se176  1  0.58882075  0.07757977  0.94337374  1
  Se  Se177  1  0.57978759  0.41787255  0.44777982  1
  Se  Se178  1  0.58177570  0.41665464  0.94654134  1
  Se  Se179  1  0.58704609  0.74888549  0.44333288  1
  Se  Se180  1  0.59912774  0.74003659  0.94237927  1
  Se  Se181  1  0.90205233  0.08589555  0.43739177  1
  Se  Se182  1  0.91403264  0.08012140  0.94828959  1
  Se  Se183  1  0.91074234  0.42298621  0.44836725  1
  Se  Se184  1  0.91410794  0.41222835  0.94930278  1
  Se  Se185  1  0.91224517  0.75129402  0.45139245  1
  Se  Se186  1  0.91122037  0.74677079  0.93278926  1
  Se  Se187  1  0.24947749  0.25077464  0.31489053  1
  Se  Se188  1  0.25074407  0.25123604  0.80525883  1
  Se  Se189  1  0.24826392  0.58332998  0.30118726  1
  Se  Se190  1  0.25631960  0.58740171  0.80026292  1
  Se  Se191  1  0.24731955  0.91809467  0.30868668  1
  Se  Se192  1  0.25211609  0.92050939  0.80068142  1
  Se  Se193  1  0.58722728  0.25491765  0.29739934  1
  Se  Se194  1  0.58440827  0.24780168  0.79948861  1
  Se  Se195  1  0.58449952  0.58258635  0.30457309  1
  Se  Se196  1  0.58820773  0.58264246  0.80587200  1
  Se  Se197  1  0.60188549  0.92245928  0.29755071  1
  Se  Se198  1  0.58615572  0.91814149  0.80116492  1
  Se  Se199  1  0.93430982  0.27494392  0.30810234  1
  Se  Se200  1  0.91165965  0.25211406  0.80127656  1
  Se  Se201  1  0.90564612  0.58519655  0.31324125  1
  Se  Se202  1  0.92033787  0.57813700  0.79682260  1
  Se  Se203  1  0.92277754  0.92428112  0.30248209  1
  Se  Se204  1  0.91360716  0.91246674  0.80564366  1
  Se  Se205  1  0.09185715  0.09145706  0.31032584  1
  Se  Se206  1  0.09004259  0.09359188  0.81668656  1
  Se  Se207  1  0.08541325  0.41900797  0.29988092  1
  Se  Se208  1  0.08315367  0.41538224  0.80396807  1
  Se  Se209  1  0.08804741  0.74997649  0.31134199  1
  Se  Se210  1  0.08659502  0.75797353  0.80365851  1
  Se  Se211  1  0.42001965  0.08290266  0.30282527  1
  Se  Se212  1  0.41503218  0.08103800  0.80203983  1
  Se  Se213  1  0.42206517  0.41436089  0.31060704  1
  Se  Se214  1  0.41764090  0.41924858  0.79794484  1
  Se  Se215  1  0.39950861  0.72949046  0.31035226  1
  Se  Se216  1  0.42365183  0.74833863  0.80258184  1
  Se  Se217  1  0.76206507  0.09444465  0.29554913  1
  Se  Se218  1  0.74788802  0.08049964  0.80037107  1
  Se  Se219  1  0.74663326  0.41640330  0.30865479  1
  Se  Se220  1  0.74575564  0.41832833  0.80416099  1
  Se  Se221  1  0.74874997  0.73862147  0.30129585  1
  Se  Se222  1  0.76445704  0.76151710  0.79662144  1
  Se  Se223  1  0.25416821  0.08802356  0.20131066  1
  Se  Se224  1  0.24951199  0.08087114  0.69803324  1
  Se  Se225  1  0.24402761  0.42441406  0.18254691  1
  Se  Se226  1  0.25372601  0.41565085  0.69844460  1
  Se  Se227  1  0.24822601  0.74196586  0.20032311  1
  Se  Se228  1  0.25387764  0.75017536  0.69545192  1
  Se  Se229  1  0.58650406  0.08804423  0.19460521  1
  Se  Se230  1  0.58123064  0.08700742  0.69438267  1
  Se  Se231  1  0.59004771  0.41276841  0.19708444  1
  Se  Se232  1  0.58565891  0.41834697  0.69573640  1
  Se  Se233  1  0.53880730  0.77993067  0.18932780  1
  Se  Se234  1  0.58721767  0.75278620  0.69301941  1
  Se  Se235  1  0.94175663  0.05415042  0.20324269  1
  Se  Se236  1  0.90722365  0.08308788  0.68599671  1
  Se  Se237  1  0.91656009  0.42822568  0.20259672  1
  Se  Se238  1  0.91676039  0.41250025  0.69445204  1
  Se  Se239  1  0.90459747  0.75934384  0.19012862  1
  Se  Se240  1  0.92864704  0.73425321  0.69602085  1
  Se  Se241  1  0.08645145  0.25500172  0.19958061  1
  Se  Se242  1  0.08140485  0.24792193  0.69785692  1
  Se  Se243  1  0.08427627  0.57667549  0.18287227  1
  Se  Se244  1  0.09049724  0.57680931  0.69604361  1
  Se  Se245  1  0.08902656  0.91296508  0.19853517  1
  Se  Se246  1  0.08837380  0.91211309  0.68501128  1
  Se  Se247  1  0.42819786  0.24552432  0.18306804  1
  Se  Se248  1  0.41165313  0.25236986  0.69704005  1
  Se  Se249  1  0.41373870  0.57435370  0.20266188  1
  Se  Se250  1  0.42109208  0.58978213  0.69442175  1
  Se  Se251  1  0.39343578  0.93790395  0.20005665  1
  Se  Se252  1  0.41793157  0.91940979  0.69559780  1
  Se  Se253  1  0.78457780  0.22730542  0.19778633  1
  Se  Se254  1  0.74766295  0.24957573  0.69473255  1
  Se  Se255  1  0.74344351  0.58976941  0.19910670  1
  Se  Se256  1  0.74779305  0.58343660  0.69581766  1
  Se  Se257  1  0.73242144  0.91663639  0.21356153  1
  Se  Se258  1  0.74861566  0.92314568  0.69077659  1
