# generated using pymatgen
data_In86Cu29Se144
_symmetry_space_group_name_H-M   'P 1'
_cell_length_a   17.58934672
_cell_length_b   17.58695672
_cell_length_c   23.44448710
_cell_angle_alpha   89.98328116
_cell_angle_beta   90.01676326
_cell_angle_gamma   90.02493339
_symmetry_Int_Tables_number   1
_chemical_formula_structural   In86Cu29Se144
_chemical_formula_sum   'In86 Cu29 Se144'
_cell_volume   7252.38853257
_cell_formula_units_Z   1
loop_
 _symmetry_equiv_pos_site_id
 _symmetry_equiv_pos_as_xyz
  1  'x, y, z'
loop_
 _atom_site_type_symbol
 _atom_site_label
 _atom_site_symmetry_multiplicity
 _atom_site_fract_x
 _atom_site_fract_y
 _atom_site_fract_z
 _atom_site_occupancy
  In  In0  1  -0.01427406  0.16224102  0.12227200  1
  In  In1  1  -0.00005619  0.18028508  0.63074950  1
  In  In2  1  0.00525532  0.48446884  0.12303806  1
  In  In3  1  -0.01589862  0.50389372  0.62325444  1
  In  In4  1  0.01239248  0.83873633  0.11560083  1
  In  In5  1  -0.00055712  0.82500927  0.62568442  1
  In  In6  1  0.33871010  0.15329281  0.13943898  1
  In  In7  1  0.34140785  0.16263900  0.63224891  1
  In  In8  1  0.32628487  0.50232430  0.12395098  1
  In  In9  1  0.34682962  0.49186050  0.62971635  1
  In  In10  1  0.33909106  0.83353172  0.11661479  1
  In  In11  1  0.33466330  0.83489576  0.62768949  1
  In  In12  1  0.65264195  0.14004406  0.09810407  1
  In  In13  1  0.65948747  0.15982796  0.62413113  1
  In  In14  1  0.67488902  0.50466990  0.12614481  1
  In  In15  1  0.66939562  0.50797059  0.62273152  1
  In  In16  1  0.64606016  0.82586063  0.10055887  1
  In  In17  1  0.65879001  0.85179083  0.64250457  1
  In  In18  1  0.16338262  0.00088061  0.36664305  1
  In  In19  1  0.16763046  -0.01579745  0.87650707  1
  In  In20  1  0.18320057  0.31970191  0.37525194  1
  In  In21  1  0.17359111  0.34328330  0.86602800  1
  In  In22  1  0.18350815  0.67342503  0.37497706  1
  In  In23  1  0.16666625  0.65774341  0.88411821  1
  In  In24  1  0.48973538  0.01021580  0.38511584  1
  In  In25  1  0.50067037  -0.00084069  0.87685938  1
  In  In26  1  0.48995139  0.33409618  0.38768577  1
  In  In27  1  0.48962197  0.32877701  0.86893776  1
  In  In28  1  0.50643450  0.66512294  0.38182295  1
  In  In29  1  0.51875545  0.69027240  0.86038534  1
  In  In30  1  0.84464389  0.00785882  0.37515106  1
  In  In31  1  0.82222728  -0.00843046  0.88236216  1
  In  In32  1  0.83305403  0.33457544  0.38627364  1
  In  In33  1  0.83209350  0.31507297  0.86458925  1
  In  In34  1  0.81526384  0.67283293  0.37559752  1
  In  In35  1  0.81789150  0.69721504  0.88745869  1
  In  In36  1  0.00455273  0.15581453  0.37703414  1
  In  In37  1  -0.01679145  0.16763744  0.87129059  1
  In  In38  1  -0.00540233  0.49008629  0.37787627  1
  In  In39  1  0.01257126  0.50878147  0.87279729  1
  In  In40  1  0.00152818  0.85356667  0.37053760  1
  In  In41  1  -0.00436163  0.82746191  0.89149274  1
  In  In42  1  0.33938252  0.17157346  0.36295833  1
  In  In43  1  0.34406966  0.17184753  0.86938618  1
  In  In44  1  0.34918375  0.49476117  0.38167689  1
  In  In45  1  0.32780426  0.49839093  0.86685373  1
  In  In46  1  0.33093981  0.84232501  0.38301673  1
  In  In47  1  0.33644520  0.83531112  0.87256574  1
  In  In48  1  0.66257692  0.16989493  0.38764679  1
  In  In49  1  0.68381879  0.13823470  0.89255395  1
  In  In50  1  0.65533505  0.50779736  0.38532652  1
  In  In51  1  0.66343005  0.51415453  0.87109414  1
  In  In52  1  0.66486608  0.82341999  0.37418276  1
  In  In53  1  0.66171977  0.82985718  0.87795471  1
  In  In54  1  0.18026106  -0.01004900  0.13342419  1
  In  In55  1  0.18209892  0.00263579  0.62875001  1
  In  In56  1  0.17007871  0.33973099  0.12360179  1
  In  In57  1  0.17304846  0.33161261  0.63303864  1
  In  In58  1  0.16896335  0.66606762  0.10620263  1
  In  In59  1  0.16615991  0.68464500  0.62117233  1
  In  In60  1  0.48857618  -0.00715393  0.11790853  1
  In  In61  1  0.49982661  -0.00195276  0.62724618  1
  In  In62  1  0.50017739  0.31756399  0.12477718  1
  In  In63  1  0.48813114  0.32692492  0.61499733  1
  In  In64  1  0.49951340  0.67721124  0.12224462  1
  In  In65  1  0.49817389  0.66926799  0.62680770  1
  In  In66  1  0.83456740  -0.00044530  0.11651548  1
  In  In67  1  0.81741519  0.00193176  0.63348730  1
  In  In68  1  0.84101304  0.32396356  0.11967825  1
  In  In69  1  0.83395195  0.33666302  0.62638402  1
  In  In70  1  0.81559863  0.67399217  0.12059302  1
  In  In71  1  0.83302539  0.66210961  0.62816915  1
  In  In72  1  0.33871691  0.67009855  0.24698490  1
  In  In73  1  0.16732345  0.50533970  0.49417773  1
  In  In74  1  0.67026150  0.33009367  0.24723084  1
  In  In75  1  0.00031714  0.66519498  0.23890993  1
  In  In76  1  0.84167032  0.50177705  -0.00749857  1
  In  In77  1  0.16837005  0.16534487  0.00304667  1
  In  In78  1  -0.00231708  -0.00125633  0.76197810  1
  In  In79  1  0.00180214  0.32605731  0.24934085  1
  In  In80  1  0.65761876  0.32612086  0.74360944  1
  In  In81  1  0.49705944  0.50535023  -0.00624646  1
  In  In82  1  -0.00538900  0.66490935  0.75600427  1
  In  In83  1  0.66558927  -0.00318459  0.24346596  1
  In  In84  1  0.82899876  0.83753749  0.50215751  1
  In  In85  1  0.17051181  0.16465428  0.50069160  1
  Cu  Cu86  1  0.83283890  0.49891691  0.74845990  1
  Cu  Cu87  1  0.49614335  0.83564377  0.75094368  1
  Cu  Cu88  1  0.49478203  0.50494966  0.74958202  1
  Cu  Cu89  1  0.33623565  -0.00339730  0.50521578  1
  Cu  Cu90  1  -0.00309326  0.67314517  0.50205680  1
  Cu  Cu91  1  0.33411101  -0.00271589  0.00130952  1
  Cu  Cu92  1  0.82440166  0.50778076  0.25290454  1
  Cu  Cu93  1  0.00054491  0.00249713  0.49751777  1
  Cu  Cu94  1  0.82967698  0.16389845  0.24422647  1
  Cu  Cu95  1  0.66893192  0.33459590  0.50748826  1
  Cu  Cu96  1  0.82913850  0.83839615  0.24943181  1
  Cu  Cu97  1  0.33779384  0.67106741  -0.00788501  1
  Cu  Cu98  1  0.50083219  0.83846491  0.24420976  1
  Cu  Cu99  1  0.66333646  0.66959910  0.50392505  1
  Cu  Cu100  1  0.16667122  0.83529470  0.24819868  1
  Cu  Cu101  1  0.50528672  0.15933285  0.75082141  1
  Cu  Cu102  1  -0.00542209  0.33781062  0.50599095  1
  Cu  Cu103  1  0.17337490  0.17063453  0.75120810  1
  Cu  Cu104  1  0.00030200  -0.00147651  -0.00320696  1
  Cu  Cu105  1  0.33495164  0.67333290  0.50290094  1
  Cu  Cu106  1  0.50621982  0.49900753  0.26068979  1
  Cu  Cu107  1  0.17559209  0.49073516  0.24725812  1
  Cu  Cu108  1  0.66736929  0.32830152  -0.00569058  1
  Cu  Cu109  1  0.16595416  0.50448096  0.74871358  1
  Cu  Cu110  1  0.49412899  0.16649300  0.25401589  1
  Cu  Cu111  1  0.17003977  0.83237060  0.75170436  1
  Cu  Cu112  1  0.33084068  0.33507949  -0.00776384  1
  Cu  Cu113  1  0.00576224  0.33166983  -0.00275417  1
  Cu  Cu114  1  0.66385512  -0.00063500  0.50726201  1
  Se  Se115  1  0.08006833  0.07312226  0.06167425  1
  Se  Se116  1  0.07837279  0.07900198  0.56412871  1
  Se  Se117  1  0.08933134  0.41445420  0.04899536  1
  Se  Se118  1  0.08222007  0.41604564  0.56124149  1
  Se  Se119  1  0.07478057  0.74189174  0.04696918  1
  Se  Se120  1  0.08192621  0.75907150  0.54854321  1
  Se  Se121  1  0.40932094  0.08775115  0.05557688  1
  Se  Se122  1  0.41736075  0.08255222  0.55812307  1
  Se  Se123  1  0.41396043  0.41127681  0.05688686  1
  Se  Se124  1  0.41719378  0.42230177  0.54951724  1
  Se  Se125  1  0.42162779  0.75213547  0.04729356  1
  Se  Se126  1  0.41841884  0.75520160  0.55713811  1
  Se  Se127  1  0.76996365  0.09372703  0.04563499  1
  Se  Se128  1  0.75095533  0.08260176  0.55576449  1
  Se  Se129  1  0.74642862  0.40981265  0.05503500  1
  Se  Se130  1  0.75234334  0.42032670  0.55783288  1
  Se  Se131  1  0.75680138  0.76280814  0.04462554  1
  Se  Se132  1  0.74147986  0.75145788  0.56510283  1
  Se  Se133  1  0.26227401  0.25343120  0.06000206  1
  Se  Se134  1  0.25888745  0.25392108  0.56104165  1
  Se  Se135  1  0.25974857  0.58170075  0.04584086  1
  Se  Se136  1  0.25358527  0.58964434  0.56056641  1
  Se  Se137  1  0.24766220  0.91419238  0.05279969  1
  Se  Se138  1  0.24848493  0.91502222  0.55603967  1
  Se  Se139  1  0.57999301  0.25000494  0.04765871  1
  Se  Se140  1  0.58388039  0.24758541  0.55494861  1
  Se  Se141  1  0.58941793  0.58855859  0.05731439  1
  Se  Se142  1  0.57925094  0.58500847  0.55598566  1
  Se  Se143  1  0.60302431  0.95227727  0.05615604  1
  Se  Se144  1  0.58394456  0.91276428  0.55879521  1
  Se  Se145  1  0.91962029  0.24751465  0.04609610  1
  Se  Se146  1  0.91473386  0.24981158  0.55700582  1
  Se  Se147  1  0.91813503  0.58193665  0.06830268  1
  Se  Se148  1  0.91169325  0.58948517  0.55099935  1
  Se  Se149  1  0.91811408  0.91330405  0.05046139  1
  Se  Se150  1  0.92114113  0.92644152  0.56214672  1
  Se  Se151  1  0.07601884  0.26038297  0.44393510  1
  Se  Se152  1  0.08426721  0.25127153  0.93521059  1
  Se  Se153  1  0.07450081  0.59744904  0.43518064  1
  Se  Se154  1  0.08228959  0.57814141  0.95303054  1
  Se  Se155  1  0.08603585  0.92285011  0.44405353  1
  Se  Se156  1  0.08754342  0.91217817  0.95127287  1
  Se  Se157  1  0.41527860  0.23321430  0.44420670  1
  Se  Se158  1  0.41777254  0.25033184  0.94619085  1
  Se  Se159  1  0.41665336  0.58849623  0.44922853  1
  Se  Se160  1  0.41588953  0.59366107  0.92827005  1
  Se  Se161  1  0.42182412  0.91354088  0.45254612  1
  Se  Se162  1  0.41640948  0.91499070  0.94579016  1
  Se  Se163  1  0.75112298  0.25003074  0.45257344  1
  Se  Se164  1  0.75610030  0.24845922  0.94453165  1
  Se  Se165  1  0.74829919  0.58734448  0.44964553  1
  Se  Se166  1  0.73856336  0.59202491  0.94875268  1
  Se  Se167  1  0.74211044  0.92784532  0.43788262  1
  Se  Se168  1  0.76512866  0.88710389  0.94788126  1
  Se  Se169  1  0.25737851  0.07449676  0.44026557  1
  Se  Se170  1  0.25624398  0.07823441  0.93934278  1
  Se  Se171  1  0.25989334  0.40580480  0.44695389  1
  Se  Se172  1  0.24903361  0.42078393  0.94239979  1
  Se  Se173  1  0.24893245  0.75551669  0.45086149  1
  Se  Se174  1  0.25035195  0.75347284  0.94202301  1
  Se  Se175  1  0.58091185  0.08377522  0.45279719  1
  Se  Se176  1  0.56896250  0.09011579  0.94868859  1
  Se  Se177  1  0.58360213  0.41316601  0.45015907  1
  Se  Se178  1  0.58922365  0.41153448  0.93586020  1
  Se  Se179  1  0.58269542  0.75522163  0.45008404  1
  Se  Se180  1  0.57482232  0.75225533  0.94887432  1
  Se  Se181  1  0.91520543  0.08985727  0.45079532  1
  Se  Se182  1  0.91610557  0.07790155  0.94222336  1
  Se  Se183  1  0.91205255  0.42353255  0.45353626  1
  Se  Se184  1  0.92395586  0.40548119  0.93286840  1
  Se  Se185  1  0.92002080  0.75288866  0.43605979  1
  Se  Se186  1  0.93978331  0.71211368  0.94595471  1
  Se  Se187  1  0.23905874  0.23664968  0.29789593  1
  Se  Se188  1  0.25796201  0.25505619  0.80312798  1
  Se  Se189  1  0.25224292  0.57309238  0.30791071  1
  Se  Se190  1  0.24431146  0.58970515  0.80406919  1
  Se  Se191  1  0.25146546  0.91171077  0.30543010  1
  Se  Se192  1  0.25332361  0.91919191  0.80164592  1
  Se  Se193  1  0.57882303  0.24607294  0.31083743  1
  Se  Se194  1  0.58432640  0.23706899  0.81440897  1
  Se  Se195  1  0.58724427  0.58885397  0.30725131  1
  Se  Se196  1  0.58450330  0.58701266  0.79648646  1
  Se  Se197  1  0.57629621  0.91568894  0.31080696  1
  Se  Se198  1  0.58120022  0.91448060  0.80780762  1
  Se  Se199  1  0.90426729  0.24428686  0.30929979  1
  Se  Se200  1  0.92388169  0.25236470  0.79418137  1
  Se  Se201  1  0.91315919  0.58224143  0.30946802  1
  Se  Se202  1  0.90145974  0.57973673  0.81626518  1
  Se  Se203  1  0.91239194  0.92290031  0.29971889  1
  Se  Se204  1  0.91253370  0.90069325  0.81539342  1
  Se  Se205  1  0.07526731  0.08141886  0.30130963  1
  Se  Se206  1  0.09532248  0.09186487  0.81453066  1
  Se  Se207  1  0.09298644  0.41903738  0.31034377  1
  Se  Se208  1  0.08124497  0.42106987  0.80021796  1
  Se  Se209  1  0.08782256  0.75148488  0.30688856  1
  Se  Se210  1  0.08720460  0.75635378  0.81261598  1
  Se  Se211  1  0.41613365  0.07295276  0.30170798  1
  Se  Se212  1  0.41776323  0.07877649  0.80364867  1
  Se  Se213  1  0.42096661  0.41261255  0.30744617  1
  Se  Se214  1  0.41485358  0.41636936  0.80022282  1
  Se  Se215  1  0.42439102  0.75864124  0.30988150  1
  Se  Se216  1  0.41029940  0.74918354  0.79959183  1
  Se  Se217  1  0.74770704  0.09100076  0.30913535  1
  Se  Se218  1  0.75221383  0.07585455  0.80820170  1
  Se  Se219  1  0.75166051  0.42165327  0.31317609  1
  Se  Se220  1  0.74789219  0.41933370  0.80692802  1
  Se  Se221  1  0.74586274  0.75183193  0.29853943  1
  Se  Se222  1  0.73291165  0.73786957  0.80610822  1
  Se  Se223  1  0.24364090  0.08333076  0.20294691  1
  Se  Se224  1  0.25556268  0.08340282  0.70184572  1
  Se  Se225  1  0.26033477  0.40988936  0.19524763  1
  Se  Se226  1  0.25233973  0.42116909  0.69750913  1
  Se  Se227  1  0.24107215  0.75081999  0.18644383  1
  Se  Se228  1  0.25080969  0.74935587  0.69673035  1
  Se  Se229  1  0.57478184  0.09187851  0.18916219  1
  Se  Se230  1  0.58781110  0.07565494  0.69778990  1
  Se  Se231  1  0.57714450  0.42261254  0.19007489  1
  Se  Se232  1  0.57267526  0.42309821  0.68696692  1
  Se  Se233  1  0.58479407  0.75897358  0.18922993  1
  Se  Se234  1  0.58013762  0.75102209  0.69814005  1
  Se  Se235  1  0.91143653  0.07751989  0.19398590  1
  Se  Se236  1  0.91608786  0.08631766  0.69467461  1
  Se  Se237  1  0.90393393  0.42176088  0.19570065  1
  Se  Se238  1  0.91791826  0.41710373  0.69732720  1
  Se  Se239  1  0.90920838  0.75978638  0.18656042  1
  Se  Se240  1  0.90584246  0.75941595  0.69746270  1
  Se  Se241  1  0.08728234  0.24082285  0.18475781  1
  Se  Se242  1  0.08680260  0.25302908  0.70107414  1
  Se  Se243  1  0.09842746  0.57234128  0.18751574  1
  Se  Se244  1  0.08534745  0.58355829  0.68637778  1
  Se  Se245  1  0.08011681  0.91503272  0.19524364  1
  Se  Se246  1  0.08658671  0.91313912  0.69350500  1
  Se  Se247  1  0.41489679  0.25344394  0.20023869  1
  Se  Se248  1  0.42613734  0.24899221  0.69776553  1
  Se  Se249  1  0.42993375  0.57464220  0.19170099  1
  Se  Se250  1  0.41163576  0.58974391  0.69692185  1
  Se  Se251  1  0.41093607  0.91519135  0.19261972  1
  Se  Se252  1  0.41364211  0.92011087  0.69742336  1
  Se  Se253  1  0.74819897  0.23748906  0.18130995  1
  Se  Se254  1  0.75583562  0.23918805  0.69141689  1
  Se  Se255  1  0.74524727  0.59153282  0.19791914  1
  Se  Se256  1  0.74892158  0.58386431  0.69806565  1
  Se  Se257  1  0.74858757  0.90624269  0.18133189  1
  Se  Se258  1  0.75702989  0.91583013  0.70830917  1
