# generated using pymatgen
data_In86Cu29Se144
_symmetry_space_group_name_H-M   'P 1'
_cell_length_a   17.58429241
_cell_length_b   17.58233093
_cell_length_c   23.44246802
_cell_angle_alpha   90.00831110
_cell_angle_beta   90.00352834
_cell_angle_gamma   90.00182698
_symmetry_Int_Tables_number   1
_chemical_formula_structural   In86Cu29Se144
_chemical_formula_sum   'In86 Cu29 Se144'
_cell_volume   7247.77451298
_cell_formula_units_Z   1
loop_
 _symmetry_equiv_pos_site_id
 _symmetry_equiv_pos_as_xyz
  1  'x, y, z'
loop_
 _atom_site_type_symbol
 _atom_site_label
 _atom_site_symmetry_multiplicity
 _atom_site_fract_x
 _atom_site_fract_y
 _atom_site_fract_z
 _atom_site_occupancy
  In  In0  1  -0.00994957  0.16314959  0.11667302  1
  In  In1  1  0.01308588  0.17686453  0.63601511  1
  In  In2  1  0.00374657  0.51038637  0.12191835  1
  In  In3  1  0.00042303  0.48955817  0.62729621  1
  In  In4  1  -0.01488963  0.82391422  0.12416924  1
  In  In5  1  -0.00643658  0.83993095  0.62525457  1
  In  In6  1  0.33634785  0.16918106  0.12320927  1
  In  In7  1  0.34278874  0.15644650  0.62462021  1
  In  In8  1  0.32715147  0.50579415  0.13035722  1
  In  In9  1  0.34519170  0.51396751  0.60877512  1
  In  In10  1  0.34274918  0.82378080  0.13072864  1
  In  In11  1  0.33283676  0.81397429  0.62623423  1
  In  In12  1  0.67199682  0.17532441  0.11767014  1
  In  In13  1  0.66174958  0.17548904  0.63344717  1
  In  In14  1  0.66620756  0.50089238  0.12257911  1
  In  In15  1  0.66202250  0.50367119  0.63291360  1
  In  In16  1  0.66706311  0.82925432  0.11882697  1
  In  In17  1  0.67780172  0.82396218  0.63507179  1
  In  In18  1  0.16968438  -0.01103426  0.36828546  1
  In  In19  1  0.18155684  0.00475685  0.88214223  1
  In  In20  1  0.18235136  0.33334216  0.37318657  1
  In  In21  1  0.15967397  0.33783729  0.88376371  1
  In  In22  1  0.16466677  0.65875292  0.37214166  1
  In  In23  1  0.16051508  0.65408895  0.87315372  1
  In  In24  1  0.50062750  0.01494099  0.37357251  1
  In  In25  1  0.51295813  -0.01987951  0.89022171  1
  In  In26  1  0.50089229  0.33750044  0.37361334  1
  In  In27  1  0.50085692  0.31977122  0.87623514  1
  In  In28  1  0.48678282  0.64999374  0.36345113  1
  In  In29  1  0.51261331  0.67613870  0.86911455  1
  In  In30  1  0.81896014  -0.01052812  0.37012550  1
  In  In31  1  0.82703743  0.00285640  0.87797361  1
  In  In32  1  0.83166218  0.34658694  0.36669420  1
  In  In33  1  0.83255207  0.33274456  0.87641413  1
  In  In34  1  0.83914977  0.67814668  0.35988206  1
  In  In35  1  0.79484464  0.69211560  0.90700414  1
  In  In36  1  0.00096382  0.18116575  0.37211583  1
  In  In37  1  -0.01283050  0.17726149  0.88631190  1
  In  In38  1  -0.00580468  0.51368677  0.37613826  1
  In  In39  1  0.00107551  0.49578676  0.88071001  1
  In  In40  1  0.00087256  0.82079732  0.37223056  1
  In  In41  1  -0.01370862  0.82013812  0.87454188  1
  In  In42  1  0.34291103  0.18102515  0.36330146  1
  In  In43  1  0.34571310  0.14442964  0.90154061  1
  In  In44  1  0.33878586  0.50090865  0.37632309  1
  In  In45  1  0.32148627  0.50249312  0.87799118  1
  In  In46  1  0.32839743  0.82744228  0.36213612  1
  In  In47  1  0.34848600  0.83543070  0.87352901  1
  In  In48  1  0.65198637  0.16263635  0.37076914  1
  In  In49  1  0.66678313  0.16467848  0.87553475  1
  In  In50  1  0.65608047  0.49546727  0.36637063  1
  In  In51  1  0.67883073  0.51185404  0.86869629  1
  In  In52  1  0.67873956  0.82676331  0.37494963  1
  In  In53  1  0.66412189  0.83517180  0.87263958  1
  In  In54  1  0.17179762  0.01315912  0.11815321  1
  In  In55  1  0.17078321  -0.00173607  0.62889855  1
  In  In56  1  0.17146485  0.34572094  0.12217233  1
  In  In57  1  0.16062238  0.33835073  0.63121668  1
  In  In58  1  0.17356031  0.65580866  0.13011316  1
  In  In59  1  0.19068554  0.66612243  0.62734215  1
  In  In60  1  0.48736175  -0.00457072  0.11283622  1
  In  In61  1  0.50036424  0.01492901  0.62160848  1
  In  In62  1  0.50973337  0.32501707  0.12804053  1
  In  In63  1  0.50477342  0.34027122  0.62104754  1
  In  In64  1  0.50158893  0.66793705  0.12544104  1
  In  In65  1  0.50560177  0.66147390  0.62511941  1
  In  In66  1  0.82779752  -0.00240448  0.11749227  1
  In  In67  1  0.82755922  -0.01701733  0.62641439  1
  In  In68  1  0.81260197  0.32219367  0.11958356  1
  In  In69  1  0.83480841  0.33966962  0.63852445  1
  In  In70  1  0.83485931  0.67105833  0.12497581  1
  In  In71  1  0.82020821  0.66824665  0.62750767  1
  In  In72  1  0.50420998  0.50287578  0.00486576  1
  In  In73  1  -0.00448598  0.00263399  0.75342787  1
  In  In74  1  0.17795099  0.16271417  0.50979601  1
  In  In75  1  0.32943591  0.33197823  0.75941861  1
  In  In76  1  0.50420243  0.83112864  0.50113976  1
  In  In77  1  0.66286790  -0.00025863  0.24039974  1
  In  In78  1  0.00197585  -0.00353152  0.23723412  1
  In  In79  1  0.82673518  0.50572462  0.50053745  1
  In  In80  1  0.16718486  0.83315172  -0.00251330  1
  In  In81  1  0.16962024  0.82683474  0.49697478  1
  In  In82  1  0.83256314  0.16718451  0.49668077  1
  In  In83  1  -0.00688534  0.66177785  0.75615987  1
  In  In84  1  -0.00496193  0.33634527  0.24372049  1
  In  In85  1  0.34027026  -0.00516636  0.75234967  1
  Cu  Cu86  1  0.49909094  0.49935896  0.24654863  1
  Cu  Cu87  1  0.32890700  0.33330386  0.00179014  1
  Cu  Cu88  1  0.50555219  0.82895179  0.75041135  1
  Cu  Cu89  1  -0.00232313  0.33628240  0.00540993  1
  Cu  Cu90  1  0.82653797  0.50472229  0.24488547  1
  Cu  Cu91  1  0.66802797  -0.00098130  0.49660578  1
  Cu  Cu92  1  0.17009762  0.49771018  0.25146368  1
  Cu  Cu93  1  0.16687295  0.17510926  0.76333560  1
  Cu  Cu94  1  0.66056896  0.32992486  0.49965806  1
  Cu  Cu95  1  -0.00326002  -0.00058861  -0.00052782  1
  Cu  Cu96  1  0.33745971  0.00159274  0.49447094  1
  Cu  Cu97  1  0.00542205  0.33464351  0.50649838  1
  Cu  Cu98  1  0.16998044  0.16438487  0.24413640  1
  Cu  Cu99  1  0.83707103  0.49866734  0.75875429  1
  Cu  Cu100  1  0.33983843  0.33609008  0.49343310  1
  Cu  Cu101  1  -0.01203491  -0.00114679  0.50135751  1
  Cu  Cu102  1  0.49571336  0.17068501  0.24742130  1
  Cu  Cu103  1  0.66634128  0.33367899  -0.00270960  1
  Cu  Cu104  1  0.83282250  0.16875403  0.75765996  1
  Cu  Cu105  1  0.17176599  0.82895328  0.24621474  1
  Cu  Cu106  1  0.33616762  0.66740414  0.00520273  1
  Cu  Cu107  1  0.66478754  0.00225105  -0.00055252  1
  Cu  Cu108  1  0.66468538  0.66201758  0.50035053  1
  Cu  Cu109  1  0.50090588  0.50013766  0.74521068  1
  Cu  Cu110  1  -0.00393245  0.66125151  -0.00110501  1
  Cu  Cu111  1  0.00032666  0.67009191  0.49642655  1
  Cu  Cu112  1  0.17127177  0.50093418  0.75269689  1
  Cu  Cu113  1  0.50502321  0.16306183  0.75339177  1
  Cu  Cu114  1  0.50469311  0.83454665  0.24531105  1
  Se  Se115  1  0.07925407  0.08429899  0.05090550  1
  Se  Se116  1  0.07197642  0.07444503  0.56104282  1
  Se  Se117  1  0.08276916  0.42184249  0.05468461  1
  Se  Se118  1  0.08953926  0.41994831  0.55531932  1
  Se  Se119  1  0.08166874  0.74034468  0.05891039  1
  Se  Se120  1  0.07883894  0.74452144  0.56268798  1
  Se  Se121  1  0.41820825  0.09389516  0.04991305  1
  Se  Se122  1  0.41956041  0.08769518  0.54583315  1
  Se  Se123  1  0.41162872  0.41251628  0.06245036  1
  Se  Se124  1  0.42362676  0.41761347  0.54926270  1
  Se  Se125  1  0.42150422  0.75102289  0.05386054  1
  Se  Se126  1  0.41054447  0.73556534  0.55149971  1
  Se  Se127  1  0.75019697  0.08590913  0.05068970  1
  Se  Se128  1  0.74604459  0.07968664  0.55993104  1
  Se  Se129  1  0.74661823  0.41863328  0.05118219  1
  Se  Se130  1  0.74551995  0.40715746  0.56000784  1
  Se  Se131  1  0.76325254  0.75969466  0.05332010  1
  Se  Se132  1  0.74571004  0.74857822  0.55307469  1
  Se  Se133  1  0.24603586  0.25163018  0.05723490  1
  Se  Se134  1  0.26509230  0.26206809  0.56402721  1
  Se  Se135  1  0.25098708  0.58144704  0.05304151  1
  Se  Se136  1  0.23837467  0.57674930  0.54970742  1
  Se  Se137  1  0.25727519  0.91500414  0.06112464  1
  Se  Se138  1  0.26122538  0.92181316  0.55715034  1
  Se  Se139  1  0.58100814  0.25013319  0.04878524  1
  Se  Se140  1  0.58199754  0.24600783  0.55609662  1
  Se  Se141  1  0.59724392  0.60005687  0.05207555  1
  Se  Se142  1  0.58615054  0.57733662  0.55517585  1
  Se  Se143  1  0.58389308  0.91636504  0.05316707  1
  Se  Se144  1  0.59127060  0.92142602  0.56192709  1
  Se  Se145  1  0.90924709  0.25179978  0.05266844  1
  Se  Se146  1  0.92218101  0.25473667  0.56293163  1
  Se  Se147  1  0.91152894  0.58151851  0.05399981  1
  Se  Se148  1  0.92258065  0.59075040  0.56142782  1
  Se  Se149  1  0.91687448  0.91493247  0.05372753  1
  Se  Se150  1  0.90909722  0.91035936  0.55127220  1
  Se  Se151  1  0.08600257  0.25335610  0.44803550  1
  Se  Se152  1  0.08114908  0.25098339  0.95210276  1
  Se  Se153  1  0.08285259  0.58325031  0.44716330  1
  Se  Se154  1  0.08504449  0.58030133  0.94934057  1
  Se  Se155  1  0.07518852  0.92296092  0.44261959  1
  Se  Se156  1  0.07309268  0.91991379  0.93604754  1
  Se  Se157  1  0.42035572  0.24836524  0.44247488  1
  Se  Se158  1  0.41890747  0.25300775  0.95295246  1
  Se  Se159  1  0.42423551  0.57905870  0.44586763  1
  Se  Se160  1  0.41498029  0.58916772  0.94045282  1
  Se  Se161  1  0.41258738  0.91625574  0.43555275  1
  Se  Se162  1  0.39679440  0.93191474  0.94660219  1
  Se  Se163  1  0.74496982  0.25921625  0.43654747  1
  Se  Se164  1  0.74979311  0.24811591  0.94456448  1
  Se  Se165  1  0.74448553  0.58994437  0.43279938  1
  Se  Se166  1  0.75385033  0.56701069  0.95377938  1
  Se  Se167  1  0.75139167  0.91223123  0.44858668  1
  Se  Se168  1  0.74622515  0.91730203  0.94515911  1
  Se  Se169  1  0.25473538  0.08049295  0.43507652  1
  Se  Se170  1  0.23859282  0.08567941  0.96165310  1
  Se  Se171  1  0.25121685  0.41819755  0.44563033  1
  Se  Se172  1  0.24770597  0.41950272  0.95016507  1
  Se  Se173  1  0.26166301  0.73954149  0.43946873  1
  Se  Se174  1  0.25675591  0.74097022  0.93828116  1
  Se  Se175  1  0.58305953  0.08518764  0.44934759  1
  Se  Se176  1  0.58130952  0.08719511  0.94701602  1
  Se  Se177  1  0.58490919  0.41826753  0.44459323  1
  Se  Se178  1  0.58688074  0.41502522  0.93731051  1
  Se  Se179  1  0.58566421  0.74000524  0.43667575  1
  Se  Se180  1  0.57136279  0.76542894  0.94305935  1
  Se  Se181  1  0.92148324  0.07836833  0.43349397  1
  Se  Se182  1  0.91025329  0.08278572  0.94840418  1
  Se  Se183  1  0.92245163  0.41036293  0.44524142  1
  Se  Se184  1  0.91460876  0.41456313  0.94741281  1
  Se  Se185  1  0.91331021  0.74729077  0.44269024  1
  Se  Se186  1  0.91352652  0.75401638  0.95557892  1
  Se  Se187  1  0.24918052  0.25288088  0.29622462  1
  Se  Se188  1  0.25485394  0.23905326  0.82671930  1
  Se  Se189  1  0.25348384  0.58099932  0.30531119  1
  Se  Se190  1  0.25411172  0.58749130  0.80221272  1
  Se  Se191  1  0.25302732  0.91906014  0.29493635  1
  Se  Se192  1  0.24318839  0.90925136  0.80859717  1
  Se  Se193  1  0.58057061  0.25174909  0.30194828  1
  Se  Se194  1  0.58709044  0.25007445  0.80370162  1
  Se  Se195  1  0.58536278  0.58585334  0.29600666  1
  Se  Se196  1  0.58412779  0.58254984  0.80152924  1
  Se  Se197  1  0.57920836  0.91350424  0.31131107  1
  Se  Se198  1  0.58005353  0.92023488  0.80338205  1
  Se  Se199  1  0.90368199  0.24300552  0.30198909  1
  Se  Se200  1  0.91990997  0.25253137  0.80572156  1
  Se  Se201  1  0.91670079  0.58121705  0.29815230  1
  Se  Se202  1  0.90485096  0.58364389  0.82267171  1
  Se  Se203  1  0.91637339  0.91200116  0.30561769  1
  Se  Se204  1  0.90464123  0.90825874  0.80651228  1
  Se  Se205  1  0.08691216  0.08989765  0.30621452  1
  Se  Se206  1  0.08621705  0.08838358  0.81702225  1
  Se  Se207  1  0.08402514  0.41973195  0.31113194  1
  Se  Se208  1  0.08804347  0.42049367  0.80826298  1
  Se  Se209  1  0.08920739  0.74903178  0.30323377  1
  Se  Se210  1  0.08890031  0.75679008  0.80817608  1
  Se  Se211  1  0.41502655  0.08250189  0.29942101  1
  Se  Se212  1  0.42425156  0.08580670  0.81434164  1
  Se  Se213  1  0.41690753  0.41765562  0.30387956  1
  Se  Se214  1  0.42467616  0.42564202  0.81321873  1
  Se  Se215  1  0.41989518  0.75001004  0.29802012  1
  Se  Se216  1  0.41756772  0.74813668  0.80075362  1
  Se  Se217  1  0.75241765  0.08993732  0.30455744  1
  Se  Se218  1  0.74851881  0.08195750  0.80462112  1
  Se  Se219  1  0.74533490  0.41829376  0.29704004  1
  Se  Se220  1  0.74910003  0.41257809  0.80507200  1
  Se  Se221  1  0.74451224  0.75086337  0.29620483  1
  Se  Se222  1  0.74680188  0.74196964  0.81158106  1
  Se  Se223  1  0.25519733  0.08186796  0.19335187  1
  Se  Se224  1  0.24370425  0.09518526  0.69950221  1
  Se  Se225  1  0.25297592  0.41406168  0.19925148  1
  Se  Se226  1  0.25512544  0.42494368  0.69135063  1
  Se  Se227  1  0.25561378  0.74217269  0.19664011  1
  Se  Se228  1  0.24237779  0.76040014  0.70081325  1
  Se  Se229  1  0.57248507  0.09063619  0.18354423  1
  Se  Se230  1  0.58529610  0.07978213  0.69742223  1
  Se  Se231  1  0.58483138  0.41870624  0.19291131  1
  Se  Se232  1  0.58414095  0.41111916  0.69804632  1
  Se  Se233  1  0.58687920  0.75182992  0.19255522  1
  Se  Se234  1  0.58569733  0.74238645  0.69620524  1
  Se  Se235  1  0.90298280  0.08958546  0.19139846  1
  Se  Se236  1  0.90875893  0.09273869  0.68869215  1
  Se  Se237  1  0.90442526  0.42224950  0.18306931  1
  Se  Se238  1  0.92367823  0.41816973  0.70483780  1
  Se  Se239  1  0.92447803  0.73866126  0.19924209  1
  Se  Se240  1  0.90817607  0.75597063  0.69385864  1
  Se  Se241  1  0.08503253  0.24243201  0.18643042  1
  Se  Se242  1  0.08746967  0.25946808  0.70814945  1
  Se  Se243  1  0.08439819  0.58018082  0.19933905  1
  Se  Se244  1  0.08865361  0.58034620  0.69193757  1
  Se  Se245  1  0.09507810  0.90587034  0.18088291  1
  Se  Se246  1  0.09020157  0.91051740  0.69580114  1
  Se  Se247  1  0.41313432  0.25590211  0.19482981  1
  Se  Se248  1  0.42114434  0.24377077  0.69551699  1
  Se  Se249  1  0.41777350  0.58605723  0.19417608  1
  Se  Se250  1  0.41560260  0.58146916  0.69209558  1
  Se  Se251  1  0.42040153  0.91918008  0.19429058  1
  Se  Se252  1  0.42711545  0.90728497  0.68508183  1
  Se  Se253  1  0.73849293  0.25146728  0.19779348  1
  Se  Se254  1  0.75101782  0.25188522  0.70071745  1
  Se  Se255  1  0.74499916  0.58816195  0.19101086  1
  Se  Se256  1  0.75496759  0.57784866  0.69925619  1
  Se  Se257  1  0.75987461  0.90721281  0.19212106  1
  Se  Se258  1  0.74376519  0.92113662  0.70172057  1
