# generated using pymatgen
data_In86Cu29Se144
_symmetry_space_group_name_H-M   'P 1'
_cell_length_a   17.58057331
_cell_length_b   17.57870084
_cell_length_c   23.43202971
_cell_angle_alpha   89.98075104
_cell_angle_beta   90.00207276
_cell_angle_gamma   89.99088496
_symmetry_Int_Tables_number   1
_chemical_formula_structural   In86Cu29Se144
_chemical_formula_sum   'In86 Cu29 Se144'
_cell_volume   7241.51922221
_cell_formula_units_Z   1
loop_
 _symmetry_equiv_pos_site_id
 _symmetry_equiv_pos_as_xyz
  1  'x, y, z'
loop_
 _atom_site_type_symbol
 _atom_site_label
 _atom_site_symmetry_multiplicity
 _atom_site_fract_x
 _atom_site_fract_y
 _atom_site_fract_z
 _atom_site_occupancy
  In  In0  1  -0.02088660  0.15593834  0.12109966  1
  In  In1  1  -0.01474402  0.15430853  0.62017696  1
  In  In2  1  0.00587907  0.49491076  0.11580996  1
  In  In3  1  0.00304886  0.51611484  0.62710226  1
  In  In4  1  0.01468931  0.85238702  0.10356867  1
  In  In5  1  0.00635240  0.82692914  0.63266225  1
  In  In6  1  0.36125390  0.16839275  0.13163264  1
  In  In7  1  0.33008120  0.17268964  0.61584685  1
  In  In8  1  0.33749814  0.50213832  0.12945216  1
  In  In9  1  0.34364169  0.50564714  0.62874107  1
  In  In10  1  0.33028709  0.82948462  0.12012892  1
  In  In11  1  0.32198664  0.82999789  0.61957691  1
  In  In12  1  0.66202554  0.16659110  0.13209863  1
  In  In13  1  0.67389894  0.15859980  0.63072570  1
  In  In14  1  0.65440055  0.50166276  0.11876259  1
  In  In15  1  0.66318090  0.48042203  0.63011837  1
  In  In16  1  0.67209910  0.84178328  0.11807246  1
  In  In17  1  0.67214843  0.84922659  0.62504997  1
  In  In18  1  0.16507336  0.00877333  0.38361029  1
  In  In19  1  0.14806743  -0.00609456  0.87556890  1
  In  In20  1  0.15749609  0.31845944  0.37103368  1
  In  In21  1  0.18070211  0.33831771  0.88029884  1
  In  In22  1  0.18387072  0.67239404  0.37448331  1
  In  In23  1  0.16440046  0.66777801  0.88007970  1
  In  In24  1  0.50297151  -0.01377993  0.36601916  1
  In  In25  1  0.50937974  -0.00851254  0.88261473  1
  In  In26  1  0.50213209  0.32228724  0.35144751  1
  In  In27  1  0.52687484  0.31703359  0.90003410  1
  In  In28  1  0.49498980  0.68934565  0.37067280  1
  In  In29  1  0.48895653  0.67331373  0.88033690  1
  In  In30  1  0.84495036  0.01459560  0.35435925  1
  In  In31  1  0.83631708  0.00425546  0.88330664  1
  In  In32  1  0.82856043  0.33073508  0.37837583  1
  In  In33  1  0.81014675  0.32748114  0.87819086  1
  In  In34  1  0.82252148  0.65480901  0.37820958  1
  In  In35  1  0.85585791  0.67535742  0.87600669  1
  In  In36  1  0.00270386  0.15838446  0.37887338  1
  In  In37  1  -0.00874106  0.14258027  0.87569379  1
  In  In38  1  -0.00696946  0.48761812  0.37817582  1
  In  In39  1  0.00059621  0.51872336  0.87842876  1
  In  In40  1  0.00025405  0.84945233  0.37374250  1
  In  In41  1  0.00338747  0.83731980  0.88622862  1
  In  In42  1  0.32078867  0.15789908  0.36708507  1
  In  In43  1  0.34116318  0.17906597  0.87880091  1
  In  In44  1  0.34123059  0.50706740  0.36658491  1
  In  In45  1  0.32717661  0.50435193  0.88171355  1
  In  In46  1  0.34161756  0.83585309  0.38051759  1
  In  In47  1  0.34019898  0.82275702  0.88160885  1
  In  In48  1  0.67951226  0.17422195  0.35501977  1
  In  In49  1  0.67373079  0.16498285  0.88188147  1
  In  In50  1  0.67308727  0.49356009  0.37705000  1
  In  In51  1  0.66742620  0.48444286  0.87786835  1
  In  In52  1  0.65338529  0.83952731  0.37464760  1
  In  In53  1  0.65987554  0.84840344  0.88115039  1
  In  In54  1  0.16958830  -0.00964561  0.12339411  1
  In  In55  1  0.15278705  -0.01535315  0.61537978  1
  In  In56  1  0.16879496  0.34389743  0.12336218  1
  In  In57  1  0.17604714  0.32942311  0.62099585  1
  In  In58  1  0.17624028  0.68390404  0.11138167  1
  In  In59  1  0.15936263  0.67999673  0.63399326  1
  In  In60  1  0.51233258  0.01090002  0.11989086  1
  In  In61  1  0.51650616  0.00338839  0.62392144  1
  In  In62  1  0.50542544  0.32779336  0.13191981  1
  In  In63  1  0.50241672  0.33899964  0.62765249  1
  In  In64  1  0.49405117  0.66160130  0.11828571  1
  In  In65  1  0.48413636  0.66593272  0.63304163  1
  In  In66  1  0.83417518  0.00070064  0.12986853  1
  In  In67  1  0.82586493  0.00518735  0.63142882  1
  In  In68  1  0.82060651  0.31094165  0.12240575  1
  In  In69  1  0.82496378  0.32128943  0.62025640  1
  In  In70  1  0.82266488  0.67122072  0.11762284  1
  In  In71  1  0.84737674  0.67129015  0.62615776  1
  In  In72  1  0.49442628  0.15693295  0.49101827  1
  In  In73  1  0.33901323  -0.00143507  0.25073384  1
  In  In74  1  0.50460176  0.49936355  0.50131651  1
  In  In75  1  0.33755884  0.33864680  0.74998444  1
  In  In76  1  0.66367015  0.66768874  0.24879297  1
  In  In77  1  0.00029522  0.32683748  0.24624875  1
  In  In78  1  0.83425237  0.50357717  -0.00667908  1
  In  In79  1  -0.00299664  0.33535348  0.75017207  1
  In  In80  1  0.33361526  0.00062273  0.74580696  1
  In  In81  1  0.67069574  0.66849851  0.75579053  1
  In  In82  1  0.17027333  0.16630756  -0.00296689  1
  In  In83  1  0.00250429  0.67026232  0.23835634  1
  In  In84  1  0.83279353  0.83287992  0.49796871  1
  In  In85  1  0.16285860  0.50080117  0.50156751  1
  Cu  Cu86  1  0.83035741  0.83893162  0.24517818  1
  Cu  Cu87  1  0.84150774  0.84313066  0.75590176  1
  Cu  Cu88  1  0.83397812  0.50104785  0.75632310  1
  Cu  Cu89  1  0.50004481  0.50464520  0.24404311  1
  Cu  Cu90  1  0.50145681  0.83544056  0.75595146  1
  Cu  Cu91  1  0.51124771  0.16645446  0.75629825  1
  Cu  Cu92  1  0.00287702  0.66934055  0.50490118  1
  Cu  Cu93  1  0.16825147  0.83087335  0.75340525  1
  Cu  Cu94  1  0.15944373  0.15952691  0.74740478  1
  Cu  Cu95  1  0.33243623  0.67769543  0.50333906  1
  Cu  Cu96  1  -0.00340865  0.00127148  0.49848027  1
  Cu  Cu97  1  0.32382027  0.32884885  0.49037548  1
  Cu  Cu98  1  0.33432879  -0.00282223  0.00311356  1
  Cu  Cu99  1  0.66251304  0.67413735  -0.00491586  1
  Cu  Cu100  1  0.33127752  0.66280490  0.00137619  1
  Cu  Cu101  1  0.34580037  0.33626198  0.00822619  1
  Cu  Cu102  1  0.16569542  0.83612866  0.24335892  1
  Cu  Cu103  1  -0.00927648  0.32725577  0.49825168  1
  Cu  Cu104  1  0.66596692  0.32221732  0.49803988  1
  Cu  Cu105  1  0.66208890  0.66246669  0.49661322  1
  Cu  Cu106  1  0.83595207  0.49086986  0.25039861  1
  Cu  Cu107  1  0.49609146  0.49277950  0.75836795  1
  Cu  Cu108  1  0.16308119  0.16227582  0.25044326  1
  Cu  Cu109  1  0.82751810  0.16499916  0.75229365  1
  Cu  Cu110  1  0.16587943  0.51442141  0.75701262  1
  Cu  Cu111  1  0.17736407  0.50361603  0.24636241  1
  Cu  Cu112  1  0.67072857  0.00312605  0.49809999  1
  Cu  Cu113  1  0.66947435  0.00596273  0.00403869  1
  Cu  Cu114  1  -0.00029695  0.33043892  -0.00091648  1
  Se  Se115  1  0.08085376  0.07932249  0.05790361  1
  Se  Se116  1  0.08004919  0.08435133  0.55297230  1
  Se  Se117  1  0.08719135  0.41309536  0.04623384  1
  Se  Se118  1  0.07079377  0.40752063  0.56040942  1
  Se  Se119  1  0.07055650  0.73918887  0.04847263  1
  Se  Se120  1  0.08555901  0.75415277  0.55529551  1
  Se  Se121  1  0.41779924  0.08406504  0.05155988  1
  Se  Se122  1  0.41090078  0.07152752  0.55901764  1
  Se  Se123  1  0.42526278  0.41925248  0.06412411  1
  Se  Se124  1  0.40398900  0.40553763  0.55400278  1
  Se  Se125  1  0.41556325  0.75004333  0.05050869  1
  Se  Se126  1  0.42163662  0.75287629  0.55787181  1
  Se  Se127  1  0.74890212  0.08594523  0.06252348  1
  Se  Se128  1  0.75237301  0.08394915  0.55471451  1
  Se  Se129  1  0.74986718  0.41644230  0.05818831  1
  Se  Se130  1  0.74285679  0.41028129  0.55370859  1
  Se  Se131  1  0.74816204  0.75505338  0.04671085  1
  Se  Se132  1  0.74244653  0.74208511  0.55967596  1
  Se  Se133  1  0.25995095  0.25060734  0.06250525  1
  Se  Se134  1  0.24279364  0.24635377  0.54484879  1
  Se  Se135  1  0.25124038  0.57841231  0.05716887  1
  Se  Se136  1  0.25477085  0.59028244  0.56169376  1
  Se  Se137  1  0.24792538  0.91281303  0.05019578  1
  Se  Se138  1  0.25315883  0.92141509  0.55230068  1
  Se  Se139  1  0.58593753  0.25044873  0.05958947  1
  Se  Se140  1  0.58096625  0.24747436  0.55890713  1
  Se  Se141  1  0.58258526  0.58753563  0.04740209  1
  Se  Se142  1  0.58862434  0.58853063  0.56731482  1
  Se  Se143  1  0.58188061  0.91814606  0.05009168  1
  Se  Se144  1  0.58794097  0.91782981  0.54983984  1
  Se  Se145  1  0.91425589  0.24903139  0.04980444  1
  Se  Se146  1  0.90883242  0.24209916  0.55131594  1
  Se  Se147  1  0.92309264  0.59120275  0.05525950  1
  Se  Se148  1  0.91654858  0.58414018  0.55235297  1
  Se  Se149  1  0.89623617  0.90775192  0.05617883  1
  Se  Se150  1  0.91976530  0.91920927  0.56254252  1
  Se  Se151  1  0.07992572  0.24783040  0.44753049  1
  Se  Se152  1  0.07761000  0.25221456  0.93363978  1
  Se  Se153  1  0.07703300  0.59105050  0.43662254  1
  Se  Se154  1  0.09742899  0.57125821  0.94862540  1
  Se  Se155  1  0.08283034  0.91732895  0.44877554  1
  Se  Se156  1  0.08655488  0.91927581  0.95615986  1
  Se  Se157  1  0.41264497  0.25766605  0.43179761  1
  Se  Se158  1  0.42131304  0.24480867  0.95632423  1
  Se  Se159  1  0.41248469  0.59259771  0.44516421  1
  Se  Se160  1  0.41783793  0.58120522  0.94883185  1
  Se  Se161  1  0.41577693  0.93077288  0.44296216  1
  Se  Se162  1  0.41737166  0.91438428  0.94709757  1
  Se  Se163  1  0.74614258  0.23977741  0.44183211  1
  Se  Se164  1  0.74058593  0.25443895  0.95573100  1
  Se  Se165  1  0.74783466  0.57463233  0.45210311  1
  Se  Se166  1  0.74450452  0.59629497  0.93281909  1
  Se  Se167  1  0.75050912  0.92371346  0.43526595  1
  Se  Se168  1  0.74998829  0.91984112  0.94998192  1
  Se  Se169  1  0.25644550  0.08586184  0.44797582  1
  Se  Se170  1  0.25894172  0.07458270  0.93523361  1
  Se  Se171  1  0.24986798  0.41739660  0.43364661  1
  Se  Se172  1  0.25698356  0.41423305  0.95452807  1
  Se  Se173  1  0.24908420  0.75847777  0.44865729  1
  Se  Se174  1  0.24899412  0.75014439  0.94961325  1
  Se  Se175  1  0.59290129  0.07833666  0.43239445  1
  Se  Se176  1  0.58264203  0.08429748  0.94843872  1
  Se  Se177  1  0.58150595  0.40037619  0.43864209  1
  Se  Se178  1  0.58330507  0.42876216  0.95664487  1
  Se  Se179  1  0.58250282  0.75104840  0.44705766  1
  Se  Se180  1  0.57718088  0.75740785  0.94354896  1
  Se  Se181  1  0.90972056  0.07785724  0.44243800  1
  Se  Se182  1  0.91053996  0.08939886  0.95608768  1
  Se  Se183  1  0.90857335  0.41553730  0.44934562  1
  Se  Se184  1  0.92206531  0.40807946  0.93310823  1
  Se  Se185  1  0.92347069  0.74174072  0.43647982  1
  Se  Se186  1  0.92089291  0.75162521  0.95436910  1
  Se  Se187  1  0.24621407  0.25008131  0.29937664  1
  Se  Se188  1  0.24222144  0.24140353  0.80354117  1
  Se  Se189  1  0.25497129  0.58989531  0.30074862  1
  Se  Se190  1  0.25471665  0.59045884  0.80950402  1
  Se  Se191  1  0.24099051  0.91506041  0.30904606  1
  Se  Se192  1  0.24890123  0.91330257  0.81200515  1
  Se  Se193  1  0.60337096  0.26206016  0.28735096  1
  Se  Se194  1  0.58803557  0.25079880  0.81276574  1
  Se  Se195  1  0.57546118  0.57903411  0.31442165  1
  Se  Se196  1  0.57859979  0.57804870  0.81328499  1
  Se  Se197  1  0.57598659  0.90066531  0.29499811  1
  Se  Se198  1  0.58542777  0.92233381  0.80238928  1
  Se  Se199  1  0.91263816  0.24181685  0.30921088  1
  Se  Se200  1  0.90961317  0.24528277  0.81201492  1
  Se  Se201  1  0.91436148  0.57757854  0.30518856  1
  Se  Se202  1  0.92067851  0.58752955  0.80054102  1
  Se  Se203  1  0.92248964  0.91621753  0.29510990  1
  Se  Se204  1  0.92196407  0.92120328  0.81485260  1
  Se  Se205  1  0.08376643  0.07941263  0.30642546  1
  Se  Se206  1  0.07784688  0.07686811  0.80019961  1
  Se  Se207  1  0.09042529  0.42582703  0.30393702  1
  Se  Se208  1  0.09162329  0.42178076  0.81080198  1
  Se  Se209  1  0.08787556  0.75529079  0.30740662  1
  Se  Se210  1  0.08360764  0.75512884  0.81241757  1
  Se  Se211  1  0.42959850  0.09426974  0.30552726  1
  Se  Se212  1  0.42228426  0.08886064  0.81073442  1
  Se  Se213  1  0.41707294  0.41998091  0.29791304  1
  Se  Se214  1  0.42325212  0.41081103  0.82262365  1
  Se  Se215  1  0.40306935  0.75307211  0.30159877  1
  Se  Se216  1  0.41552862  0.75012396  0.80249680  1
  Se  Se217  1  0.72361274  0.05402701  0.30097966  1
  Se  Se218  1  0.75041529  0.08057787  0.81016549  1
  Se  Se219  1  0.75106696  0.41306677  0.30520969  1
  Se  Se220  1  0.74799344  0.41396841  0.80086950  1
  Se  Se221  1  0.75868640  0.75566335  0.30947108  1
  Se  Se222  1  0.75810045  0.76170214  0.81418938  1
  Se  Se223  1  0.24840790  0.08949242  0.18743260  1
  Se  Se224  1  0.24298094  0.08816106  0.68439119  1
  Se  Se225  1  0.25482500  0.41277155  0.19644504  1
  Se  Se226  1  0.23943865  0.43000063  0.69336681  1
  Se  Se227  1  0.24903670  0.75075233  0.19362670  1
  Se  Se228  1  0.25543200  0.75129751  0.69953041  1
  Se  Se229  1  0.57608877  0.08547900  0.20037511  1
  Se  Se230  1  0.58892297  0.08001498  0.70095016  1
  Se  Se231  1  0.58818608  0.42228782  0.19652258  1
  Se  Se232  1  0.57987339  0.41006742  0.70499786  1
  Se  Se233  1  0.58021683  0.75356533  0.18415840  1
  Se  Se234  1  0.58231938  0.75640936  0.69181615  1
  Se  Se235  1  0.91403538  0.08324752  0.20143786  1
  Se  Se236  1  0.91458661  0.08258182  0.70058421  1
  Se  Se237  1  0.91199805  0.41689818  0.18417706  1
  Se  Se238  1  0.90919260  0.42405886  0.68765680  1
  Se  Se239  1  0.90744140  0.75812268  0.18440565  1
  Se  Se240  1  0.91634011  0.75253755  0.70185175  1
  Se  Se241  1  0.08834471  0.23896959  0.18281673  1
  Se  Se242  1  0.08537195  0.24602906  0.68731611  1
  Se  Se243  1  0.09457017  0.57683404  0.18457166  1
  Se  Se244  1  0.07980506  0.59221395  0.70150492  1
  Se  Se245  1  0.07894120  0.91623152  0.19156963  1
  Se  Se246  1  0.08560616  0.91617373  0.69945159  1
  Se  Se247  1  0.41423323  0.26133030  0.20511678  1
  Se  Se248  1  0.42509749  0.23810163  0.69304825  1
  Se  Se249  1  0.41602973  0.59233683  0.19732533  1
  Se  Se250  1  0.41472398  0.57996763  0.70717948  1
  Se  Se251  1  0.42200535  0.91508076  0.18311491  1
  Se  Se252  1  0.42600366  0.91143255  0.68801216  1
  Se  Se253  1  0.74770542  0.24765125  0.20340005  1
  Se  Se254  1  0.74701816  0.25170113  0.69869323  1
  Se  Se255  1  0.75680799  0.57484276  0.19133316  1
  Se  Se256  1  0.75463403  0.57813226  0.69009374  1
  Se  Se257  1  0.74160817  0.91978397  0.19634102  1
  Se  Se258  1  0.75080244  0.91807063  0.70220478  1
