# generated using pymatgen
data_In86Cu29Se144
_symmetry_space_group_name_H-M   'P 1'
_cell_length_a   17.57317091
_cell_length_b   17.57469906
_cell_length_c   23.42987679
_cell_angle_alpha   90.02067588
_cell_angle_beta   89.98085788
_cell_angle_gamma   90.00409361
_symmetry_Int_Tables_number   1
_chemical_formula_structural   In86Cu29Se144
_chemical_formula_sum   'In86 Cu29 Se144'
_cell_volume   7236.15700185
_cell_formula_units_Z   1
loop_
 _symmetry_equiv_pos_site_id
 _symmetry_equiv_pos_as_xyz
  1  'x, y, z'
loop_
 _atom_site_type_symbol
 _atom_site_label
 _atom_site_symmetry_multiplicity
 _atom_site_fract_x
 _atom_site_fract_y
 _atom_site_fract_z
 _atom_site_occupancy
  In  In0  1  0.00062863  0.16497685  0.12232713  1
  In  In1  1  -0.00822688  0.17020468  0.63656635  1
  In  In2  1  -0.00628544  0.50577537  0.13046212  1
  In  In3  1  -0.01421222  0.51191673  0.64955389  1
  In  In4  1  -0.00641385  0.83436246  0.12681934  1
  In  In5  1  0.00174406  0.83485109  0.62161329  1
  In  In6  1  0.32688936  0.16498700  0.11304472  1
  In  In7  1  0.34644266  0.16680346  0.62463721  1
  In  In8  1  0.34478805  0.48589432  0.11885440  1
  In  In9  1  0.33015007  0.48357488  0.62838306  1
  In  In10  1  0.33299557  0.85009496  0.12762384  1
  In  In11  1  0.32017996  0.84734161  0.62034192  1
  In  In12  1  0.66513985  0.17171106  0.12305275  1
  In  In13  1  0.66285323  0.17712834  0.62899698  1
  In  In14  1  0.64888151  0.48953169  0.11922978  1
  In  In15  1  0.66187149  0.50689303  0.62972604  1
  In  In16  1  0.68938225  0.83771095  0.12560667  1
  In  In17  1  0.66573601  0.81712659  0.62362091  1
  In  In18  1  0.15331109  -0.00858928  0.36375131  1
  In  In19  1  0.16057019  0.00839740  0.88402747  1
  In  In20  1  0.15502449  0.33506765  0.37263719  1
  In  In21  1  0.15949635  0.32452737  0.87294007  1
  In  In22  1  0.17006725  0.68290875  0.37674151  1
  In  In23  1  0.16469882  0.68063742  0.87717779  1
  In  In24  1  0.50600329  0.00922865  0.36524804  1
  In  In25  1  0.50617165  0.01149522  0.87591541  1
  In  In26  1  0.50012712  0.32808451  0.37907829  1
  In  In27  1  0.50046787  0.33531159  0.87415516  1
  In  In28  1  0.49746193  0.65891444  0.37753221  1
  In  In29  1  0.50248893  0.63689840  0.87945956  1
  In  In30  1  0.82751965  -0.00925245  0.36496221  1
  In  In31  1  0.83791157  -0.00417057  0.88339871  1
  In  In32  1  0.82803214  0.33048456  0.36422529  1
  In  In33  1  0.82621528  0.32408584  0.87137018  1
  In  In34  1  0.84669030  0.67111170  0.37132381  1
  In  In35  1  0.84397294  0.66969947  0.86403893  1
  In  In36  1  -0.00353678  0.16481494  0.36448242  1
  In  In37  1  0.00259986  0.16057425  0.88061223  1
  In  In38  1  -0.00952140  0.49559513  0.36570160  1
  In  In39  1  -0.01070712  0.49953892  0.85976754  1
  In  In40  1  -0.00133262  0.83684136  0.37520685  1
  In  In41  1  -0.00207220  0.83781226  0.87423622  1
  In  In42  1  0.34777490  0.16770626  0.37269876  1
  In  In43  1  0.32395625  0.18437508  0.89523075  1
  In  In44  1  0.33791513  0.50731294  0.38077656  1
  In  In45  1  0.36474618  0.49270751  0.89029223  1
  In  In46  1  0.32073034  0.83381889  0.37315268  1
  In  In47  1  0.31966060  0.81704928  0.88403339  1
  In  In48  1  0.65806861  0.15944133  0.36739616  1
  In  In49  1  0.64833598  0.19409316  0.89858986  1
  In  In50  1  0.66273736  0.48687922  0.37188062  1
  In  In51  1  0.66301846  0.48637690  0.86333656  1
  In  In52  1  0.67123723  0.84723175  0.37186128  1
  In  In53  1  0.68494019  0.83407489  0.87553762  1
  In  In54  1  0.16628203  -0.00005767  0.12391997  1
  In  In55  1  0.16755955  -0.01096824  0.62033822  1
  In  In56  1  0.17221520  0.31786837  0.11739864  1
  In  In57  1  0.15904342  0.34195070  0.63809056  1
  In  In58  1  0.14468352  0.66490429  0.12231573  1
  In  In59  1  0.15687567  0.67277302  0.62750996  1
  In  In60  1  0.49475914  0.01174180  0.13388389  1
  In  In61  1  0.48882393  0.01153383  0.61804862  1
  In  In62  1  0.51193615  0.34591111  0.10234249  1
  In  In63  1  0.50112221  0.33316338  0.62582477  1
  In  In64  1  0.50279149  0.65556210  0.12166189  1
  In  In65  1  0.51838366  0.66356248  0.62583203  1
  In  In66  1  0.83293800  0.00047326  0.12981150  1
  In  In67  1  0.84838070  0.00194979  0.62408278  1
  In  In68  1  0.83604536  0.32832254  0.12238821  1
  In  In69  1  0.82026651  0.34958738  0.65176535  1
  In  In70  1  0.83722303  0.68158081  0.12179888  1
  In  In71  1  0.82726072  0.67320705  0.62929490  1
  In  In72  1  0.33274116  0.00084877  0.74667827  1
  In  In73  1  0.16922907  0.50574116  -0.00346628  1
  In  In74  1  0.17245540  0.16234818  0.49806976  1
  In  In75  1  0.82352658  0.49315261  -0.00824883  1
  In  In76  1  0.83153786  0.50258824  0.51003830  1
  In  In77  1  0.33461142  0.66079513  0.75882010  1
  In  In78  1  0.50157994  0.83389994  0.49622372  1
  In  In79  1  0.33485373  0.32743501  0.24583885  1
  In  In80  1  0.67839026  0.00390122  0.75646020  1
  In  In81  1  0.67057156  0.66603215  0.24835880  1
  In  In82  1  0.83233632  0.16656475  0.50191698  1
  In  In83  1  0.16693976  0.50128612  0.50301368  1
  In  In84  1  0.33021145  0.66858927  0.24714345  1
  In  In85  1  0.49890386  0.83420812  0.00307993  1
  Cu  Cu86  1  0.33918970  0.32928343  0.50437582  1
  Cu  Cu87  1  0.32990226  -0.00482670  0.00290178  1
  Cu  Cu88  1  0.67551294  0.66169211  0.50252581  1
  Cu  Cu89  1  0.84035734  0.83403796  0.74987187  1
  Cu  Cu90  1  -0.00664680  0.67488308  -0.00510311  1
  Cu  Cu91  1  0.17417068  0.49895883  0.75648789  1
  Cu  Cu92  1  0.34106152  0.66725528  0.50041719  1
  Cu  Cu93  1  0.83272264  0.16396424  0.76127690  1
  Cu  Cu94  1  0.15695863  0.83534774  0.25018980  1
  Cu  Cu95  1  0.16571965  0.16423608  0.75955026  1
  Cu  Cu96  1  0.50399350  0.49215647  0.75023553  1
  Cu  Cu97  1  0.66750132  0.66572356  -0.00074237  1
  Cu  Cu98  1  0.66712071  0.00084094  0.49173894  1
  Cu  Cu99  1  0.65438705  0.32911641  0.50067906  1
  Cu  Cu100  1  -0.00583001  0.33527284  0.50838871  1
  Cu  Cu101  1  0.82575748  0.49616624  0.24456663  1
  Cu  Cu102  1  0.00573227  0.32857492  0.00069882  1
  Cu  Cu103  1  0.50648108  0.83863369  0.24811872  1
  Cu  Cu104  1  0.50343461  0.17189524  0.24478558  1
  Cu  Cu105  1  0.00415473  -0.00620298  0.49724596  1
  Cu  Cu106  1  0.83570807  0.17125501  0.24281379  1
  Cu  Cu107  1  0.15818466  0.83863952  0.75176320  1
  Cu  Cu108  1  0.16607040  0.16276621  0.24014633  1
  Cu  Cu109  1  0.50001279  0.17516994  0.75473450  1
  Cu  Cu110  1  0.15816268  0.49837604  0.24810866  1
  Cu  Cu111  1  0.00757330  0.67499256  0.49780810  1
  Cu  Cu112  1  0.50378321  0.82428449  0.75025346  1
  Cu  Cu113  1  0.00130551  -0.00275934  0.00492810  1
  Cu  Cu114  1  0.67552728  0.00013770  0.00624540  1
  Se  Se115  1  0.08651980  0.08422778  0.05360076  1
  Se  Se116  1  0.07163018  0.08429703  0.55952185  1
  Se  Se117  1  0.07751340  0.41773707  0.05981805  1
  Se  Se118  1  0.07091098  0.42147182  0.56534925  1
  Se  Se119  1  0.07534745  0.75390853  0.05203027  1
  Se  Se120  1  0.09145437  0.75656875  0.55175269  1
  Se  Se121  1  0.41786487  0.07642353  0.05316644  1
  Se  Se122  1  0.40137906  0.07869274  0.54741414  1
  Se  Se123  1  0.41698510  0.42025246  0.03812383  1
  Se  Se124  1  0.41886908  0.41804299  0.55555771  1
  Se  Se125  1  0.40924773  0.74702316  0.06494485  1
  Se  Se126  1  0.41590722  0.74753581  0.56542945  1
  Se  Se127  1  0.75495948  0.08669250  0.05919374  1
  Se  Se128  1  0.74066502  0.07619217  0.56198667  1
  Se  Se129  1  0.73793009  0.40339413  0.05308516  1
  Se  Se130  1  0.74183106  0.40322503  0.56102230  1
  Se  Se131  1  0.75130112  0.75128127  0.04819359  1
  Se  Se132  1  0.75563650  0.75117538  0.55091558  1
  Se  Se133  1  0.26142217  0.25976204  0.04365610  1
  Se  Se134  1  0.24775547  0.26079871  0.56345512  1
  Se  Se135  1  0.25267189  0.58699372  0.06729448  1
  Se  Se136  1  0.25886754  0.59102783  0.56387007  1
  Se  Se137  1  0.24439733  0.91203397  0.05277703  1
  Se  Se138  1  0.25555162  0.92971232  0.54520255  1
  Se  Se139  1  0.57083980  0.23237220  0.04965480  1
  Se  Se140  1  0.57600128  0.24261324  0.55488591  1
  Se  Se141  1  0.58140505  0.58089614  0.04674170  1
  Se  Se142  1  0.58690455  0.57958428  0.55055437  1
  Se  Se143  1  0.58859607  0.92177202  0.06493258  1
  Se  Se144  1  0.59069379  0.92350642  0.56021081  1
  Se  Se145  1  0.91824987  0.24815807  0.05218004  1
  Se  Se146  1  0.90897076  0.26104220  0.56805986  1
  Se  Se147  1  0.91582041  0.58587862  0.05155945  1
  Se  Se148  1  0.93147407  0.59226937  0.56035859  1
  Se  Se149  1  0.91293852  0.91773107  0.05695001  1
  Se  Se150  1  0.91646712  0.91525957  0.55112089  1
  Se  Se151  1  0.07022332  0.25465036  0.44631279  1
  Se  Se152  1  0.08892803  0.24358169  0.94932990  1
  Se  Se153  1  0.07637948  0.58472938  0.43726400  1
  Se  Se154  1  0.06796302  0.58645498  0.93689341  1
  Se  Se155  1  0.08972739  0.91279492  0.44503963  1
  Se  Se156  1  0.08192997  0.91468906  0.94664739  1
  Se  Se157  1  0.41897833  0.24546828  0.44966423  1
  Se  Se158  1  0.44447060  0.23276570  0.94425530  1
  Se  Se159  1  0.42350922  0.57957654  0.45302684  1
  Se  Se160  1  0.39570504  0.61082225  0.95087188  1
  Se  Se161  1  0.41635912  0.92092154  0.43313000  1
  Se  Se162  1  0.40977001  0.92157073  0.93703527  1
  Se  Se163  1  0.74172153  0.25515555  0.44067375  1
  Se  Se164  1  0.76160756  0.25115027  0.95337179  1
  Se  Se165  1  0.74995291  0.58386576  0.43595316  1
  Se  Se166  1  0.74375449  0.59070969  0.93172507  1
  Se  Se167  1  0.75598760  0.91731438  0.44619169  1
  Se  Se168  1  0.75365112  0.91326243  0.95252225  1
  Se  Se169  1  0.25058992  0.07793999  0.42862585  1
  Se  Se170  1  0.24809575  0.08406509  0.95303966  1
  Se  Se171  1  0.25526348  0.40522477  0.44245567  1
  Se  Se172  1  0.25390125  0.41114406  0.93854311  1
  Se  Se173  1  0.25516872  0.75072964  0.45093941  1
  Se  Se174  1  0.23930332  0.74633486  0.95768378  1
  Se  Se175  1  0.58066093  0.08467172  0.44406677  1
  Se  Se176  1  0.58866905  0.07722280  0.95143187  1
  Se  Se177  1  0.57856839  0.41864986  0.44702118  1
  Se  Se178  1  0.57472161  0.43026415  0.93981196  1
  Se  Se179  1  0.59688709  0.74242479  0.43853044  1
  Se  Se180  1  0.58676136  0.74699660  0.93736843  1
  Se  Se181  1  0.92286628  0.07911562  0.44071150  1
  Se  Se182  1  0.91837420  0.08169583  0.95128397  1
  Se  Se183  1  0.91421328  0.40992690  0.44312846  1
  Se  Se184  1  0.92769112  0.41000529  0.93946335  1
  Se  Se185  1  0.91751311  0.75257993  0.44635714  1
  Se  Se186  1  0.90884669  0.75486726  0.94057662  1
  Se  Se187  1  0.23996536  0.24152726  0.30841514  1
  Se  Se188  1  0.25452859  0.24572399  0.80865668  1
  Se  Se189  1  0.24005242  0.57537179  0.30972057  1
  Se  Se190  1  0.24891036  0.57423598  0.82285447  1
  Se  Se191  1  0.24911923  0.91516750  0.29850652  1
  Se  Se192  1  0.24667971  0.91131965  0.81134925  1
  Se  Se193  1  0.58113075  0.25427112  0.30417595  1
  Se  Se194  1  0.58980689  0.25283773  0.80676141  1
  Se  Se195  1  0.57553033  0.57589286  0.30385106  1
  Se  Se196  1  0.58559659  0.58270889  0.79859227  1
  Se  Se197  1  0.59002851  0.92276211  0.29973532  1
  Se  Se198  1  0.58024798  0.91031411  0.80970666  1
  Se  Se199  1  0.91912345  0.25482036  0.29856935  1
  Se  Se200  1  0.92243989  0.24514737  0.81043521  1
  Se  Se201  1  0.90938843  0.57981184  0.29802515  1
  Se  Se202  1  0.91853561  0.58804457  0.79101633  1
  Se  Se203  1  0.93577377  0.93288882  0.30579070  1
  Se  Se204  1  0.91472411  0.92247553  0.80522492  1
  Se  Se205  1  0.08072092  0.08411651  0.29670566  1
  Se  Se206  1  0.08138663  0.07715456  0.80651874  1
  Se  Se207  1  0.07618726  0.41153449  0.29989485  1
  Se  Se208  1  0.08616478  0.41474623  0.80451679  1
  Se  Se209  1  0.08030263  0.74853465  0.30573713  1
  Se  Se210  1  0.07909053  0.75097394  0.80417249  1
  Se  Se211  1  0.41771865  0.08753482  0.29628039  1
  Se  Se212  1  0.41557721  0.09251055  0.81028026  1
  Se  Se213  1  0.41649396  0.42089750  0.31008933  1
  Se  Se214  1  0.41487488  0.41619840  0.80387273  1
  Se  Se215  1  0.42632227  0.75681116  0.30804722  1
  Se  Se216  1  0.42550141  0.75303703  0.81667915  1
  Se  Se217  1  0.75630016  0.09075833  0.30333559  1
  Se  Se218  1  0.74806176  0.09536251  0.82616626  1
  Se  Se219  1  0.74282214  0.41315923  0.29763458  1
  Se  Se220  1  0.76574977  0.42106314  0.80220080  1
  Se  Se221  1  0.75882707  0.75898567  0.30538260  1
  Se  Se222  1  0.75185202  0.75155414  0.79907761  1
  Se  Se223  1  0.25519117  0.08414513  0.18958237  1
  Se  Se224  1  0.24055679  0.09175341  0.68847676  1
  Se  Se225  1  0.24160376  0.42164354  0.18870717  1
  Se  Se226  1  0.25500107  0.41127569  0.70542073  1
  Se  Se227  1  0.23766800  0.75574270  0.18802457  1
  Se  Se228  1  0.24896949  0.75864588  0.69708494  1
  Se  Se229  1  0.59086288  0.08528247  0.19728307  1
  Se  Se230  1  0.57445013  0.08428994  0.69671006  1
  Se  Se231  1  0.57114003  0.41029413  0.19026117  1
  Se  Se232  1  0.58807590  0.41177671  0.69485946  1
  Se  Se233  1  0.57938977  0.75585773  0.18597071  1
  Se  Se234  1  0.59176298  0.74252666  0.70154257  1
  Se  Se235  1  0.92074655  0.08527749  0.19495014  1
  Se  Se236  1  0.91238821  0.08182919  0.70350222  1
  Se  Se237  1  0.91369409  0.41452723  0.19309047  1
  Se  Se238  1  0.94080173  0.39325322  0.70266685  1
  Se  Se239  1  0.92211170  0.74293183  0.19673962  1
  Se  Se240  1  0.92093052  0.75215022  0.69203615  1
  Se  Se241  1  0.08482541  0.25160409  0.19090329  1
  Se  Se242  1  0.08459263  0.24610781  0.70127570  1
  Se  Se243  1  0.07568191  0.58723265  0.20065858  1
  Se  Se244  1  0.09397476  0.58510821  0.70207101  1
  Se  Se245  1  0.08036415  0.92015930  0.19268037  1
  Se  Se246  1  0.08080154  0.92080100  0.69326920  1
  Se  Se247  1  0.42308351  0.24621163  0.18080129  1
  Se  Se248  1  0.41619928  0.25299360  0.69710854  1
  Se  Se249  1  0.42110315  0.57240135  0.19510064  1
  Se  Se250  1  0.42335871  0.57712438  0.69078464  1
  Se  Se251  1  0.41640166  0.92106584  0.20090392  1
  Se  Se252  1  0.42750181  0.90638296  0.69016999  1
  Se  Se253  1  0.74824491  0.25420046  0.19329131  1
  Se  Se254  1  0.74681546  0.24273228  0.70477786  1
  Se  Se255  1  0.75108267  0.57585177  0.17979189  1
  Se  Se256  1  0.77413628  0.56089387  0.68737870  1
  Se  Se257  1  0.75563336  0.91632720  0.20195733  1
  Se  Se258  1  0.75514322  0.91081620  0.68818593  1
