# generated using pymatgen
data_In86Cu29Se144
_symmetry_space_group_name_H-M   'P 1'
_cell_length_a   17.58842638
_cell_length_b   17.59201017
_cell_length_c   23.45189877
_cell_angle_alpha   90.01172719
_cell_angle_beta   90.00160561
_cell_angle_gamma   90.01632058
_symmetry_Int_Tables_number   1
_chemical_formula_structural   In86Cu29Se144
_chemical_formula_sum   'In86 Cu29 Se144'
_cell_volume   7256.38700006
_cell_formula_units_Z   1
loop_
 _symmetry_equiv_pos_site_id
 _symmetry_equiv_pos_as_xyz
  1  'x, y, z'
loop_
 _atom_site_type_symbol
 _atom_site_label
 _atom_site_symmetry_multiplicity
 _atom_site_fract_x
 _atom_site_fract_y
 _atom_site_fract_z
 _atom_site_occupancy
  In  In0  1  0.00665400  0.15872133  0.12284807  1
  In  In1  1  0.00880226  0.16171256  0.62527559  1
  In  In2  1  0.00890115  0.50708540  0.11545201  1
  In  In3  1  0.00940743  0.50384597  0.62069724  1
  In  In4  1  0.00507584  0.83993588  0.10755371  1
  In  In5  1  0.00580502  0.82388928  0.64245741  1
  In  In6  1  0.32336222  0.17421776  0.13002975  1
  In  In7  1  0.33037500  0.16740746  0.62580014  1
  In  In8  1  0.32642160  0.48627508  0.11721018  1
  In  In9  1  0.33211190  0.50298803  0.62590313  1
  In  In10  1  0.33603729  0.83735584  0.11766026  1
  In  In11  1  0.33890244  0.82793301  0.63429975  1
  In  In12  1  0.67251396  0.18141673  0.13098161  1
  In  In13  1  0.66466193  0.17721509  0.62074466  1
  In  In14  1  0.65972191  0.49476760  0.12238141  1
  In  In15  1  0.66434222  0.50879104  0.62402130  1
  In  In16  1  0.66316257  0.82680313  0.11506064  1
  In  In17  1  0.65090676  0.83077157  0.62850580  1
  In  In18  1  0.19116769  0.00201253  0.37047576  1
  In  In19  1  0.16438096  -0.00227826  0.87187177  1
  In  In20  1  0.17333322  0.32534552  0.38272188  1
  In  In21  1  0.17839293  0.32724978  0.87972809  1
  In  In22  1  0.15759387  0.66014824  0.37576754  1
  In  In23  1  0.16870024  0.66611736  0.87565915  1
  In  In24  1  0.48682097  0.01474922  0.38572450  1
  In  In25  1  0.48095673  -0.00442268  0.87053294  1
  In  In26  1  0.49717127  0.33310240  0.37478534  1
  In  In27  1  0.48582802  0.35351449  0.87750254  1
  In  In28  1  0.49918374  0.66450605  0.38804072  1
  In  In29  1  0.50236862  0.66164542  0.87135207  1
  In  In30  1  0.83180031  0.00576789  0.37441839  1
  In  In31  1  0.84183474  -0.02289986  0.87489014  1
  In  In32  1  0.83973641  0.34551363  0.37240131  1
  In  In33  1  0.84801573  0.34055794  0.87519990  1
  In  In34  1  0.82528510  0.65884312  0.37517006  1
  In  In35  1  0.83155490  0.67077638  0.86742372  1
  In  In36  1  0.01093823  0.18204857  0.38097468  1
  In  In37  1  0.02833007  0.16348769  0.87180299  1
  In  In38  1  0.01672027  0.47021094  0.40702740  1
  In  In39  1  -0.00831624  0.51141935  0.88185915  1
  In  In40  1  0.00421108  0.82165340  0.37392946  1
  In  In41  1  0.00149018  0.83430675  0.86935613  1
  In  In42  1  0.33191219  0.16987394  0.37624952  1
  In  In43  1  0.30571680  0.14969336  0.85055928  1
  In  In44  1  0.34248551  0.49396329  0.38055434  1
  In  In45  1  0.33471455  0.49990541  0.87085983  1
  In  In46  1  0.33148841  0.84879239  0.37536595  1
  In  In47  1  0.33348939  0.82985064  0.87774255  1
  In  In48  1  0.65015937  0.16247977  0.37386296  1
  In  In49  1  0.66689525  0.16953937  0.87281758  1
  In  In50  1  0.67322492  0.49169921  0.38181853  1
  In  In51  1  0.64777540  0.52206396  0.88273358  1
  In  In52  1  0.66087071  0.81881675  0.37507971  1
  In  In53  1  0.67991730  0.81144696  0.88128617  1
  In  In54  1  0.17103943  0.00432697  0.11716235  1
  In  In55  1  0.16649195  0.00969351  0.63561850  1
  In  In56  1  0.18426704  0.34488761  0.11807310  1
  In  In57  1  0.17304720  0.34493058  0.61625861  1
  In  In58  1  0.16653091  0.66435933  0.11422465  1
  In  In59  1  0.17756926  0.65669262  0.63693629  1
  In  In60  1  0.49442432  -0.01380018  0.12157595  1
  In  In61  1  0.48875052  -0.00568450  0.62151626  1
  In  In62  1  0.49093460  0.34018283  0.13162390  1
  In  In63  1  0.49316555  0.33258273  0.61892362  1
  In  In64  1  0.49621773  0.66569294  0.11582010  1
  In  In65  1  0.49172787  0.66384634  0.62814418  1
  In  In66  1  0.84234754  0.00017082  0.11812102  1
  In  In67  1  0.84487252  -0.00428783  0.63120440  1
  In  In68  1  0.82026677  0.33764272  0.12959467  1
  In  In69  1  0.82416752  0.33960346  0.62227174  1
  In  In70  1  0.83721739  0.66742045  0.11359772  1
  In  In71  1  0.84552958  0.65809716  0.64399618  1
  In  In72  1  0.00268585  0.66022746  0.24867541  1
  In  In73  1  0.83809045  0.16812044  0.00634791  1
  In  In74  1  0.17037552  0.83137999  0.50118548  1
  In  In75  1  0.00210130  0.00425667  0.23694571  1
  In  In76  1  0.01178340  0.33488942  0.74575712  1
  In  In77  1  0.65535647  0.00344903  0.24844852  1
  In  In78  1  0.33207610  0.66145250  0.24731426  1
  In  In79  1  0.49338124  0.17050271  -0.00252502  1
  In  In80  1  0.66301424  0.33892197  0.74472884  1
  In  In81  1  0.66366568  -0.00585604  0.74816502  1
  In  In82  1  0.82949411  0.17013957  0.49892335  1
  In  In83  1  0.00382272  0.33278778  0.25809345  1
  In  In84  1  0.82687344  0.83045896  0.51075335  1
  In  In85  1  0.66327682  0.66249962  0.24469929  1
  Cu  Cu86  1  0.33590720  0.66467796  -0.00668353  1
  Cu  Cu87  1  0.49035682  0.16876023  0.25440542  1
  Cu  Cu88  1  0.83981282  0.49951095  0.25434935  1
  Cu  Cu89  1  0.84456228  0.15658981  0.75165202  1
  Cu  Cu90  1  0.16903324  0.16750182  0.25060746  1
  Cu  Cu91  1  0.66148740  -0.00357431  0.50282448  1
  Cu  Cu92  1  0.50194832  0.49136357  0.25181005  1
  Cu  Cu93  1  -0.00391724  0.66021778  0.50921023  1
  Cu  Cu94  1  0.83980568  0.83997706  0.24164234  1
  Cu  Cu95  1  0.48840064  0.84110606  0.25102713  1
  Cu  Cu96  1  0.66970559  0.34385183  0.00035129  1
  Cu  Cu97  1  0.33566780  0.33255327  0.49980273  1
  Cu  Cu98  1  0.16505779  0.50253537  0.75098575  1
  Cu  Cu99  1  0.49420632  0.17513926  0.74575834  1
  Cu  Cu100  1  0.49996574  0.82685464  0.75369286  1
  Cu  Cu101  1  0.00060387  0.66829780  -0.00996608  1
  Cu  Cu102  1  0.83007043  0.50082469  0.75564930  1
  Cu  Cu103  1  0.00721724  0.33899215  -0.00306746  1
  Cu  Cu104  1  0.33143575  0.66419588  0.50960778  1
  Cu  Cu105  1  0.33409510  0.00575222  0.50202673  1
  Cu  Cu106  1  0.17110761  0.83394437  0.75766387  1
  Cu  Cu107  1  0.66064630  -0.00606491  -0.00303612  1
  Cu  Cu108  1  0.33695541  0.33185535  -0.00359115  1
  Cu  Cu109  1  0.67135672  0.66712106  -0.00470974  1
  Cu  Cu110  1  0.65757557  0.33708869  0.49939736  1
  Cu  Cu111  1  0.32586677  -0.00025943  -0.00681588  1
  Cu  Cu112  1  0.00202355  -0.00012619  -0.00646437  1
  Cu  Cu113  1  0.65899098  0.66351694  0.50393840  1
  Cu  Cu114  1  0.01304439  -0.00026969  0.50433023  1
  Se  Se115  1  0.08386831  0.08435081  0.04818330  1
  Se  Se116  1  0.09436120  0.08436530  0.55520106  1
  Se  Se117  1  0.09204725  0.41993101  0.05149981  1
  Se  Se118  1  0.07278606  0.41048654  0.55145113  1
  Se  Se119  1  0.08556509  0.74886838  0.04583836  1
  Se  Se120  1  0.08086463  0.74320875  0.56339473  1
  Se  Se121  1  0.40618957  0.07783036  0.05756275  1
  Se  Se122  1  0.41843887  0.08900105  0.55495193  1
  Se  Se123  1  0.42223156  0.41378066  0.05059176  1
  Se  Se124  1  0.41293470  0.42123670  0.55353913  1
  Se  Se125  1  0.41579209  0.75067921  0.04966674  1
  Se  Se126  1  0.41449264  0.75285923  0.55708440  1
  Se  Se127  1  0.73547010  0.07808444  0.05853581  1
  Se  Se128  1  0.74680816  0.07206061  0.56226006  1
  Se  Se129  1  0.75495085  0.42332144  0.05453334  1
  Se  Se130  1  0.74075987  0.41852925  0.55449313  1
  Se  Se131  1  0.75418822  0.75291523  0.04862573  1
  Se  Se132  1  0.74171731  0.73644227  0.56792250  1
  Se  Se133  1  0.25242020  0.24831974  0.05035532  1
  Se  Se134  1  0.25162356  0.25040077  0.55360554  1
  Se  Se135  1  0.25551491  0.58176113  0.05110098  1
  Se  Se136  1  0.24200486  0.58080993  0.55535253  1
  Se  Se137  1  0.24672288  0.91457704  0.04939664  1
  Se  Se138  1  0.25634491  0.92154920  0.56276922  1
  Se  Se139  1  0.58841278  0.25861719  0.05677632  1
  Se  Se140  1  0.57838813  0.24901892  0.55077679  1
  Se  Se141  1  0.58908842  0.58649187  0.05376973  1
  Se  Se142  1  0.57295493  0.58195112  0.55570894  1
  Se  Se143  1  0.57767570  0.91110672  0.05020904  1
  Se  Se144  1  0.57842903  0.91377816  0.55558891  1
  Se  Se145  1  0.92724382  0.26340555  0.06310572  1
  Se  Se146  1  0.91902446  0.25350177  0.56235746  1
  Se  Se147  1  0.92076872  0.58415120  0.04797555  1
  Se  Se148  1  0.90845683  0.58189196  0.56163264  1
  Se  Se149  1  0.91233178  0.91836083  0.04369124  1
  Se  Se150  1  0.93329654  0.91531188  0.55959422  1
  Se  Se151  1  0.07738149  0.26377761  0.45422959  1
  Se  Se152  1  0.08840917  0.25046688  0.94827881  1
  Se  Se153  1  0.08520141  0.58540245  0.45367946  1
  Se  Se154  1  0.08943504  0.58066691  0.94687128  1
  Se  Se155  1  0.08268020  0.92091742  0.43636148  1
  Se  Se156  1  0.08434333  0.91420610  0.94204854  1
  Se  Se157  1  0.41812740  0.24858073  0.44517751  1
  Se  Se158  1  0.40380527  0.24697549  0.93031654  1
  Se  Se159  1  0.41419174  0.58190409  0.45276543  1
  Se  Se160  1  0.41948455  0.57981032  0.94219437  1
  Se  Se161  1  0.41530660  0.91678879  0.45038392  1
  Se  Se162  1  0.41554572  0.91557202  0.94842383  1
  Se  Se163  1  0.73873708  0.25676017  0.43746969  1
  Se  Se164  1  0.74723992  0.25799947  0.94286512  1
  Se  Se165  1  0.74668768  0.58524149  0.44925520  1
  Se  Se166  1  0.75554627  0.58512586  0.94139137  1
  Se  Se167  1  0.74281125  0.92010530  0.44105008  1
  Se  Se168  1  0.74775752  0.91381598  0.94508046  1
  Se  Se169  1  0.24928092  0.08697948  0.44805301  1
  Se  Se170  1  0.24693820  0.08662231  0.94010620  1
  Se  Se171  1  0.25189189  0.41733612  0.44769606  1
  Se  Se172  1  0.25444175  0.41949291  0.94523773  1
  Se  Se173  1  0.25869096  0.74070798  0.43953812  1
  Se  Se174  1  0.24842757  0.74995671  0.94698245  1
  Se  Se175  1  0.58188014  0.08578420  0.45256395  1
  Se  Se176  1  0.58526362  0.07710696  0.93764403  1
  Se  Se177  1  0.57526104  0.42074991  0.44510862  1
  Se  Se178  1  0.58156411  0.41912523  0.94582323  1
  Se  Se179  1  0.58093448  0.75382236  0.45278870  1
  Se  Se180  1  0.57944362  0.74623311  0.94554002  1
  Se  Se181  1  0.92693040  0.07604985  0.44454206  1
  Se  Se182  1  0.92077782  0.08471769  0.93597584  1
  Se  Se183  1  0.89833320  0.41778384  0.45574055  1
  Se  Se184  1  0.91619590  0.42037870  0.95128974  1
  Se  Se185  1  0.91874033  0.74166894  0.44665606  1
  Se  Se186  1  0.91615048  0.75133129  0.93807345  1
  Se  Se187  1  0.24926860  0.25158550  0.30560067  1
  Se  Se188  1  0.25413916  0.26664900  0.79773710  1
  Se  Se189  1  0.24587829  0.57468981  0.31158793  1
  Se  Se190  1  0.24972403  0.58519674  0.80408585  1
  Se  Se191  1  0.24709340  0.90846742  0.29867938  1
  Se  Se192  1  0.25716455  0.91723443  0.80749977  1
  Se  Se193  1  0.57927350  0.25003957  0.30315945  1
  Se  Se194  1  0.57450183  0.24956099  0.80891688  1
  Se  Se195  1  0.57673135  0.57851160  0.31105275  1
  Se  Se196  1  0.58189675  0.58253406  0.79797607  1
  Se  Se197  1  0.57320453  0.91302753  0.31396138  1
  Se  Se198  1  0.57991611  0.90815495  0.81456804  1
  Se  Se199  1  0.90874325  0.23820643  0.31020568  1
  Se  Se200  1  0.91996643  0.24298220  0.80864880  1
  Se  Se201  1  0.92069270  0.57346481  0.31667913  1
  Se  Se202  1  0.91932042  0.58396610  0.80288470  1
  Se  Se203  1  0.91561042  0.91309267  0.30792100  1
  Se  Se204  1  0.92514854  0.91977133  0.79785942  1
  Se  Se205  1  0.08546441  0.08829011  0.30935005  1
  Se  Se206  1  0.09589857  0.08470662  0.79688042  1
  Se  Se207  1  0.09161301  0.42512071  0.31583624  1
  Se  Se208  1  0.08693242  0.42478866  0.81528543  1
  Se  Se209  1  0.09674927  0.75793508  0.30097046  1
  Se  Se210  1  0.08574364  0.74639505  0.80491098  1
  Se  Se211  1  0.41038582  0.08101830  0.30582049  1
  Se  Se212  1  0.41718834  0.08369763  0.79675481  1
  Se  Se213  1  0.41324188  0.41348440  0.30387720  1
  Se  Se214  1  0.41202455  0.41764659  0.79798688  1
  Se  Se215  1  0.42147585  0.75001045  0.31169707  1
  Se  Se216  1  0.41401171  0.74685358  0.80736284  1
  Se  Se217  1  0.75187211  0.09051876  0.30536400  1
  Se  Se218  1  0.75728263  0.08370367  0.81021391  1
  Se  Se219  1  0.74971698  0.41934528  0.30346437  1
  Se  Se220  1  0.75062800  0.41949718  0.81381762  1
  Se  Se221  1  0.76018259  0.75741999  0.30086411  1
  Se  Se222  1  0.74454857  0.74651589  0.79747377  1
  Se  Se223  1  0.24583432  0.08093193  0.19447016  1
  Se  Se224  1  0.26804517  0.07391958  0.69813220  1
  Se  Se225  1  0.25719782  0.41418814  0.19728435  1
  Se  Se226  1  0.24551862  0.42018539  0.69441049  1
  Se  Se227  1  0.24646016  0.75155451  0.18581316  1
  Se  Se228  1  0.25134051  0.75001086  0.70178901  1
  Se  Se229  1  0.56743961  0.09431184  0.18573517  1
  Se  Se230  1  0.57921759  0.09273345  0.68974229  1
  Se  Se231  1  0.58828535  0.41242569  0.19716810  1
  Se  Se232  1  0.56976473  0.42651308  0.68948117  1
  Se  Se233  1  0.57036898  0.76001478  0.19250018  1
  Se  Se234  1  0.57965534  0.74301485  0.69870338  1
  Se  Se235  1  0.90148719  0.09831527  0.19178885  1
  Se  Se236  1  0.92878114  0.07933541  0.69619887  1
  Se  Se237  1  0.92163571  0.42487902  0.19062159  1
  Se  Se238  1  0.90941746  0.42138504  0.69342763  1
  Se  Se239  1  0.91865098  0.75651749  0.18517996  1
  Se  Se240  1  0.91000646  0.75764327  0.70750557  1
  Se  Se241  1  0.09022974  0.24814122  0.18942065  1
  Se  Se242  1  0.10120843  0.24506001  0.68906563  1
  Se  Se243  1  0.09837366  0.57355261  0.19219219  1
  Se  Se244  1  0.07717767  0.58378107  0.69891771  1
  Se  Se245  1  0.09031490  0.90717387  0.18566456  1
  Se  Se246  1  0.09040187  0.91588221  0.70029744  1
  Se  Se247  1  0.41088825  0.25252853  0.19724924  1
  Se  Se248  1  0.41230949  0.25720898  0.69246242  1
  Se  Se249  1  0.42628912  0.57353114  0.18895521  1
  Se  Se250  1  0.39448376  0.59938143  0.69591632  1
  Se  Se251  1  0.40669826  0.92066526  0.19548016  1
  Se  Se252  1  0.42160713  0.91561439  0.70059786  1
  Se  Se253  1  0.75268075  0.25419664  0.20325320  1
  Se  Se254  1  0.76132950  0.23920857  0.69583855  1
  Se  Se255  1  0.76315211  0.57839599  0.18996051  1
  Se  Se256  1  0.74459837  0.57999575  0.70063753  1
  Se  Se257  1  0.75070383  0.91503836  0.18671436  1
  Se  Se258  1  0.75633528  0.90493824  0.69116174  1
