# generated using pymatgen
data_In86Cu29Se144
_symmetry_space_group_name_H-M   'P 1'
_cell_length_a   17.57111963
_cell_length_b   17.57561220
_cell_length_c   23.43514167
_cell_angle_alpha   90.01447941
_cell_angle_beta   89.99900699
_cell_angle_gamma   89.97941485
_symmetry_Int_Tables_number   1
_chemical_formula_structural   In86Cu29Se144
_chemical_formula_sum   'In86 Cu29 Se144'
_cell_volume   7237.31437915
_cell_formula_units_Z   1
loop_
 _symmetry_equiv_pos_site_id
 _symmetry_equiv_pos_as_xyz
  1  'x, y, z'
loop_
 _atom_site_type_symbol
 _atom_site_label
 _atom_site_symmetry_multiplicity
 _atom_site_fract_x
 _atom_site_fract_y
 _atom_site_fract_z
 _atom_site_occupancy
  In  In0  1  -0.01632043  0.16877007  0.12934108  1
  In  In1  1  -0.00864071  0.17136390  0.62205959  1
  In  In2  1  -0.00591588  0.50287038  0.13772981  1
  In  In3  1  0.00192846  0.48664524  0.62171657  1
  In  In4  1  -0.01385773  0.83962100  0.13343960  1
  In  In5  1  0.00388847  0.84190479  0.61521420  1
  In  In6  1  0.33809912  0.17021149  0.12644338  1
  In  In7  1  0.35141037  0.16864234  0.62302540  1
  In  In8  1  0.34890637  0.50161128  0.12451957  1
  In  In9  1  0.33255597  0.50205627  0.62327889  1
  In  In10  1  0.32055133  0.82768836  0.13073934  1
  In  In11  1  0.31984112  0.82793453  0.62113961  1
  In  In12  1  0.68629836  0.15274220  0.13697877  1
  In  In13  1  0.65802659  0.16137532  0.61823079  1
  In  In14  1  0.65840261  0.50575859  0.13327117  1
  In  In15  1  0.67187155  0.51176431  0.62320319  1
  In  In16  1  0.67834711  0.82831773  0.12855519  1
  In  In17  1  0.67736843  0.82904112  0.62617030  1
  In  In18  1  0.14518383  -0.00346177  0.38025828  1
  In  In19  1  0.15549629  0.00521336  0.87029743  1
  In  In20  1  0.16882855  0.34687595  0.37720865  1
  In  In21  1  0.16013750  0.32722726  0.86184652  1
  In  In22  1  0.16677123  0.66795599  0.38334461  1
  In  In23  1  0.16644913  0.66168341  0.86968299  1
  In  In24  1  0.51886776  -0.00228840  0.37512046  1
  In  In25  1  0.51415637  -0.00740069  0.87385475  1
  In  In26  1  0.51783330  0.33179046  0.39004402  1
  In  In27  1  0.50698814  0.34890558  0.87273518  1
  In  In28  1  0.49396189  0.65770307  0.37124927  1
  In  In29  1  0.49661498  0.66119967  0.86724184  1
  In  In30  1  0.83898479  0.00160339  0.38175541  1
  In  In31  1  0.83342645  0.00146812  0.87318838  1
  In  In32  1  0.81762188  0.32006343  0.36962431  1
  In  In33  1  0.83095109  0.31232162  0.87875312  1
  In  In34  1  0.84500298  0.67828558  0.36647717  1
  In  In35  1  0.83109193  0.69491375  0.88145371  1
  In  In36  1  -0.02171853  0.14769550  0.36587229  1
  In  In37  1  -0.01570623  0.15287120  0.85953411  1
  In  In38  1  0.00560559  0.50836982  0.36726360  1
  In  In39  1  0.00905760  0.50158381  0.87353832  1
  In  In40  1  0.00106134  0.83399012  0.38239854  1
  In  In41  1  -0.03597948  0.84322940  0.88849412  1
  In  In42  1  0.33886198  0.17994829  0.37790521  1
  In  In43  1  0.31901844  0.16779914  0.86374748  1
  In  In44  1  0.33101029  0.51780490  0.39179132  1
  In  In45  1  0.34119049  0.51013180  0.86448449  1
  In  In46  1  0.32929634  0.81253057  0.37954327  1
  In  In47  1  0.34807627  0.83149661  0.86830018  1
  In  In48  1  0.67524007  0.16764404  0.38134993  1
  In  In49  1  0.69349989  0.16322442  0.88223401  1
  In  In50  1  0.65727477  0.49476986  0.37054773  1
  In  In51  1  0.64927631  0.49108999  0.87886477  1
  In  In52  1  0.68263588  0.84686232  0.36614990  1
  In  In53  1  0.67586111  0.84175014  0.86446757  1
  In  In54  1  0.15071579  -0.01335123  0.12677256  1
  In  In55  1  0.15979894  -0.01469316  0.61868629  1
  In  In56  1  0.15699173  0.32552062  0.12895636  1
  In  In57  1  0.16073550  0.34535740  0.62372559  1
  In  In58  1  0.16620460  0.67235046  0.13818986  1
  In  In59  1  0.17763074  0.66956929  0.61457512  1
  In  In60  1  0.51692994  0.00796276  0.12548974  1
  In  In61  1  0.50499287  0.01408073  0.62309487  1
  In  In62  1  0.49824298  0.34872833  0.12349558  1
  In  In63  1  0.49656597  0.32335319  0.62078414  1
  In  In64  1  0.50788815  0.65789015  0.13457422  1
  In  In65  1  0.50714189  0.65764605  0.62494578  1
  In  In66  1  0.83374194  -0.00210029  0.12150464  1
  In  In67  1  0.83573893  -0.00241481  0.62380535  1
  In  In68  1  0.83488131  0.32656288  0.13288839  1
  In  In69  1  0.84533118  0.33684849  0.62305125  1
  In  In70  1  0.83039152  0.67030639  0.12967596  1
  In  In71  1  0.81976459  0.66782945  0.62536112  1
  In  In72  1  0.33160799  -0.00207745  0.24641735  1
  In  In73  1  0.00008719  0.66880048  0.75471354  1
  In  In74  1  0.15691392  0.16886764  0.00758120  1
  In  In75  1  0.33163170  -0.00135118  0.73935791  1
  In  In76  1  0.33440781  0.34293158  0.25573871  1
  In  In77  1  0.51640129  0.17962003  -0.00860202  1
  In  In78  1  0.82749503  0.50176770  0.00776609  1
  In  In79  1  0.66789380  0.33049895  0.75471317  1
  In  In80  1  0.49972232  0.82925541  0.49567392  1
  In  In81  1  0.51207179  0.82783721  0.00930116  1
  In  In82  1  0.83036800  0.49675394  0.49506245  1
  In  In83  1  0.15923641  0.83173247  -0.00463141  1
  In  In84  1  0.16700628  0.50223126  -0.00379572  1
  In  In85  1  0.16239991  0.16777794  0.50018023  1
  Cu  Cu86  1  -0.00293142  0.32944316  0.49451927  1
  Cu  Cu87  1  0.82973094  0.49745962  0.25220205  1
  Cu  Cu88  1  0.67295870  0.00307282  0.49835052  1
  Cu  Cu89  1  0.66812643  0.67003062  0.49641465  1
  Cu  Cu90  1  0.83596305  0.16378012  0.74747918  1
  Cu  Cu91  1  0.49834345  0.49921888  0.74658294  1
  Cu  Cu92  1  0.16908645  0.50009861  0.74643440  1
  Cu  Cu93  1  0.34040209  0.65999996  -0.00377469  1
  Cu  Cu94  1  -0.00034947  0.66521090  0.49622429  1
  Cu  Cu95  1  0.66068440  0.66178728  0.00301367  1
  Cu  Cu96  1  0.33725737  0.00533681  -0.00006415  1
  Cu  Cu97  1  0.83272120  0.84038791  0.74836135  1
  Cu  Cu98  1  0.50605364  0.82555825  0.74459717  1
  Cu  Cu99  1  0.15159760  0.16403549  0.24989734  1
  Cu  Cu100  1  0.83378693  0.50191791  0.74883042  1
  Cu  Cu101  1  0.50464883  0.16646509  0.74758576  1
  Cu  Cu102  1  0.83140023  0.16076385  0.25332035  1
  Cu  Cu103  1  0.83644651  0.83486613  0.25119267  1
  Cu  Cu104  1  0.16923571  0.50382170  0.25730178  1
  Cu  Cu105  1  0.49598544  0.50276894  0.25583442  1
  Cu  Cu106  1  0.51207990  0.16795539  0.25639633  1
  Cu  Cu107  1  0.16084078  0.17343819  0.74036185  1
  Cu  Cu108  1  -0.00583032  0.33222308  0.00119552  1
  Cu  Cu109  1  0.34095815  0.33845009  0.50080413  1
  Cu  Cu110  1  0.50420956  0.83104503  0.25425421  1
  Cu  Cu111  1  0.15980512  0.82849776  0.74404559  1
  Cu  Cu112  1  0.33740338  0.34179341  -0.00735596  1
  Cu  Cu113  1  0.33403720  0.00066886  0.50200851  1
  Cu  Cu114  1  0.16285966  0.82797564  0.25816413  1
  Se  Se115  1  0.06713085  0.07378180  0.05980861  1
  Se  Se116  1  0.07215343  0.07500208  0.55516847  1
  Se  Se117  1  0.07583524  0.41326013  0.05870517  1
  Se  Se118  1  0.08119264  0.41454151  0.54514370  1
  Se  Se119  1  0.08078419  0.74811931  0.06581681  1
  Se  Se120  1  0.08230789  0.74727168  0.55311427  1
  Se  Se121  1  0.41989758  0.08567106  0.05560061  1
  Se  Se122  1  0.42137571  0.08481898  0.54826460  1
  Se  Se123  1  0.41935976  0.42251062  0.04741450  1
  Se  Se124  1  0.42215776  0.41958907  0.55729189  1
  Se  Se125  1  0.40956486  0.74297442  0.06209892  1
  Se  Se126  1  0.41310849  0.74218419  0.55884985  1
  Se  Se127  1  0.75934182  0.09198622  0.05496055  1
  Se  Se128  1  0.75333077  0.08454907  0.55576484  1
  Se  Se129  1  0.74138045  0.41162859  0.06767796  1
  Se  Se130  1  0.74321249  0.40975209  0.55886298  1
  Se  Se131  1  0.74792900  0.74275564  0.05415528  1
  Se  Se132  1  0.75232910  0.75161716  0.54928760  1
  Se  Se133  1  0.25994771  0.26356210  0.05607829  1
  Se  Se134  1  0.25775928  0.25562889  0.55893131  1
  Se  Se135  1  0.25467589  0.59047616  0.06033812  1
  Se  Se136  1  0.23899305  0.56657718  0.55219593  1
  Se  Se137  1  0.25556608  0.92404156  0.05641272  1
  Se  Se138  1  0.24930124  0.91424397  0.54849989  1
  Se  Se139  1  0.58661373  0.24655122  0.07452220  1
  Se  Se140  1  0.58323979  0.25004939  0.55151417  1
  Se  Se141  1  0.57764769  0.57989287  0.05616249  1
  Se  Se142  1  0.58845326  0.58434190  0.54918312  1
  Se  Se143  1  0.60310379  0.92695412  0.05626566  1
  Se  Se144  1  0.58886020  0.92095966  0.55674267  1
  Se  Se145  1  0.91070901  0.25119231  0.05486623  1
  Se  Se146  1  0.91235686  0.25040536  0.54819392  1
  Se  Se147  1  0.92589192  0.58868240  0.06133885  1
  Se  Se148  1  0.91941557  0.58712357  0.55997030  1
  Se  Se149  1  0.91392418  0.90900872  0.05509051  1
  Se  Se150  1  0.89936389  0.90173039  0.55368997  1
  Se  Se151  1  0.07737952  0.25086578  0.43213601  1
  Se  Se152  1  0.07515023  0.25493178  0.93900799  1
  Se  Se153  1  0.08133962  0.57725236  0.44694371  1
  Se  Se154  1  0.07378850  0.59916497  0.94602056  1
  Se  Se155  1  0.08666867  0.90884928  0.45449601  1
  Se  Se156  1  0.07056837  0.93057561  0.94361689  1
  Se  Se157  1  0.42209620  0.25021500  0.45072559  1
  Se  Se158  1  0.40670064  0.25229736  0.93314294  1
  Se  Se159  1  0.42942822  0.58809692  0.45417770  1
  Se  Se160  1  0.42256454  0.57846824  0.94218878  1
  Se  Se161  1  0.41074257  0.92327381  0.43540607  1
  Se  Se162  1  0.41709661  0.92006832  0.94547275  1
  Se  Se163  1  0.75073823  0.25322697  0.45231930  1
  Se  Se164  1  0.72818563  0.27228112  0.95032763  1
  Se  Se165  1  0.74927508  0.59205855  0.43357064  1
  Se  Se166  1  0.74294052  0.58772060  0.93835233  1
  Se  Se167  1  0.75359165  0.91455196  0.44823669  1
  Se  Se168  1  0.76631108  0.89994698  0.93779440  1
  Se  Se169  1  0.25521773  0.07931588  0.43737749  1
  Se  Se170  1  0.25146529  0.07994869  0.94243962  1
  Se  Se171  1  0.25215761  0.41794666  0.44999867  1
  Se  Se172  1  0.25103415  0.41243527  0.93172043  1
  Se  Se173  1  0.25195408  0.74339266  0.45510988  1
  Se  Se174  1  0.26171721  0.74477573  0.93902267  1
  Se  Se175  1  0.58472907  0.08451642  0.44822054  1
  Se  Se176  1  0.59969321  0.07154797  0.94436003  1
  Se  Se177  1  0.58140991  0.43464091  0.45269969  1
  Se  Se178  1  0.58595873  0.40521898  0.95439591  1
  Se  Se179  1  0.59395446  0.75072835  0.43161132  1
  Se  Se180  1  0.58934300  0.74442514  0.93628507  1
  Se  Se181  1  0.91670049  0.08663967  0.45230263  1
  Se  Se182  1  0.90678769  0.09628548  0.94019301  1
  Se  Se183  1  0.91978422  0.41095116  0.43179560  1
  Se  Se184  1  0.91882165  0.41618110  0.94051126  1
  Se  Se185  1  0.91285302  0.74944042  0.44864427  1
  Se  Se186  1  0.92457354  0.73915665  0.95867816  1
  Se  Se187  1  0.23975840  0.24243518  0.30532464  1
  Se  Se188  1  0.24930952  0.25324893  0.79159991  1
  Se  Se189  1  0.25139765  0.58452113  0.31261999  1
  Se  Se190  1  0.24982471  0.58742505  0.79848306  1
  Se  Se191  1  0.24658441  0.91351292  0.31392864  1
  Se  Se192  1  0.24368716  0.91065140  0.80645340  1
  Se  Se193  1  0.58846807  0.25230069  0.31296403  1
  Se  Se194  1  0.58154362  0.23788182  0.81616728  1
  Se  Se195  1  0.58625428  0.58790048  0.30127323  1
  Se  Se196  1  0.58470479  0.57723765  0.80269599  1
  Se  Se197  1  0.58892567  0.92021724  0.29813044  1
  Se  Se198  1  0.58387770  0.91607464  0.79623206  1
  Se  Se199  1  0.91449802  0.25069171  0.30261743  1
  Se  Se200  1  0.91509150  0.25581522  0.79841086  1
  Se  Se201  1  0.91663405  0.58390240  0.29933485  1
  Se  Se202  1  0.90571704  0.58307043  0.81577289  1
  Se  Se203  1  0.91718628  0.91425489  0.31109880  1
  Se  Se204  1  0.91938580  0.92044672  0.80169067  1
  Se  Se205  1  0.07600765  0.07417322  0.30186854  1
  Se  Se206  1  0.08436272  0.08480481  0.79500955  1
  Se  Se207  1  0.08453287  0.41447622  0.30204909  1
  Se  Se208  1  0.08025218  0.42012745  0.79893834  1
  Se  Se209  1  0.08024517  0.74580424  0.31308802  1
  Se  Se210  1  0.08189524  0.76483732  0.81673759  1
  Se  Se211  1  0.42094559  0.08837156  0.30913300  1
  Se  Se212  1  0.42259658  0.08231850  0.80747184  1
  Se  Se213  1  0.42151098  0.42362075  0.32183658  1
  Se  Se214  1  0.41660744  0.41443308  0.80039827  1
  Se  Se215  1  0.41723711  0.75012628  0.30405943  1
  Se  Se216  1  0.41749809  0.74622732  0.79619577  1
  Se  Se217  1  0.75099986  0.07930790  0.31145703  1
  Se  Se218  1  0.75042450  0.08273962  0.80085204  1
  Se  Se219  1  0.74470394  0.41503157  0.30351513  1
  Se  Se220  1  0.75804100  0.42181171  0.81450880  1
  Se  Se221  1  0.74929743  0.74877131  0.29930643  1
  Se  Se222  1  0.75206333  0.74904278  0.79772022  1
  Se  Se223  1  0.23690217  0.09056544  0.18753558  1
  Se  Se224  1  0.24131760  0.09078033  0.68031638  1
  Se  Se225  1  0.24275432  0.42583891  0.18846711  1
  Se  Se226  1  0.25216803  0.41544943  0.69369167  1
  Se  Se227  1  0.25358426  0.74818047  0.20817625  1
  Se  Se228  1  0.24708847  0.74600210  0.69590658  1
  Se  Se229  1  0.59019453  0.07968276  0.20371868  1
  Se  Se230  1  0.58944902  0.08227290  0.69815415  1
  Se  Se231  1  0.57685530  0.41763422  0.20119445  1
  Se  Se232  1  0.58323681  0.41948112  0.68911658  1
  Se  Se233  1  0.58666927  0.75141330  0.19554562  1
  Se  Se234  1  0.59054665  0.74417042  0.69087450  1
  Se  Se235  1  0.91350284  0.07692117  0.19810164  1
  Se  Se236  1  0.91947604  0.08181124  0.69282484  1
  Se  Se237  1  0.91577844  0.41263620  0.20135345  1
  Se  Se238  1  0.91776906  0.41881115  0.69791927  1
  Se  Se239  1  0.91762489  0.74450125  0.20124428  1
  Se  Se240  1  0.91232297  0.75467302  0.68983610  1
  Se  Se241  1  0.07173442  0.25056748  0.19740409  1
  Se  Se242  1  0.07715146  0.25646332  0.68756065  1
  Se  Se243  1  0.08398782  0.58385015  0.20167430  1
  Se  Se244  1  0.08503944  0.58094550  0.68831597  1
  Se  Se245  1  0.07980991  0.91138711  0.20384063  1
  Se  Se246  1  0.07817328  0.91597585  0.69503013  1
  Se  Se247  1  0.42523711  0.24609604  0.19829974  1
  Se  Se248  1  0.41897644  0.25118716  0.69974814  1
  Se  Se249  1  0.41202937  0.58541181  0.20160862  1
  Se  Se250  1  0.41616901  0.58417971  0.69378566  1
  Se  Se251  1  0.42751320  0.90954169  0.18708079  1
  Se  Se252  1  0.42576315  0.90731287  0.68320457  1
  Se  Se253  1  0.74880537  0.25181008  0.20497941  1
  Se  Se254  1  0.75530250  0.24644448  0.68853374  1
  Se  Se255  1  0.74948631  0.58412862  0.19755774  1
  Se  Se256  1  0.74781435  0.58557467  0.70060261  1
  Se  Se257  1  0.75345030  0.91789932  0.19632546  1
  Se  Se258  1  0.74684139  0.92195501  0.69533112  1
