# generated using pymatgen
data_In86Cu29Se144
_symmetry_space_group_name_H-M   'P 1'
_cell_length_a   17.58350013
_cell_length_b   17.58522396
_cell_length_c   23.44348960
_cell_angle_alpha   89.97834060
_cell_angle_beta   90.01611470
_cell_angle_gamma   89.99871832
_symmetry_Int_Tables_number   1
_chemical_formula_structural   In86Cu29Se144
_chemical_formula_sum   'In86 Cu29 Se144'
_cell_volume   7248.95563714
_cell_formula_units_Z   1
loop_
 _symmetry_equiv_pos_site_id
 _symmetry_equiv_pos_as_xyz
  1  'x, y, z'
loop_
 _atom_site_type_symbol
 _atom_site_label
 _atom_site_symmetry_multiplicity
 _atom_site_fract_x
 _atom_site_fract_y
 _atom_site_fract_z
 _atom_site_occupancy
  In  In0  1  -0.01194861  0.14669065  0.10729202  1
  In  In1  1  0.00695948  0.14989385  0.63245370  1
  In  In2  1  0.00212829  0.48821009  0.12389883  1
  In  In3  1  0.01905977  0.52032466  0.60672910  1
  In  In4  1  -0.00151308  0.85353127  0.12274834  1
  In  In5  1  0.00394647  0.83465917  0.62384097  1
  In  In6  1  0.32113295  0.17585719  0.13071988  1
  In  In7  1  0.32787554  0.17552133  0.62231519  1
  In  In8  1  0.32469057  0.49976872  0.13142076  1
  In  In9  1  0.33120529  0.50248788  0.62873882  1
  In  In10  1  0.34504752  0.82403784  0.13386108  1
  In  In11  1  0.29953778  0.83027220  0.61976126  1
  In  In12  1  0.67049361  0.16543572  0.12930129  1
  In  In13  1  0.67603072  0.17418534  0.62658068  1
  In  In14  1  0.67624357  0.50032268  0.13918907  1
  In  In15  1  0.66971186  0.49221713  0.62454278  1
  In  In16  1  0.66789029  0.83392812  0.12537333  1
  In  In17  1  0.67062335  0.81642801  0.61967227  1
  In  In18  1  0.16875741  0.00406124  0.37222791  1
  In  In19  1  0.15940818  0.01721347  0.87668695  1
  In  In20  1  0.17691119  0.33102392  0.38837646  1
  In  In21  1  0.17903500  0.32186638  0.87568975  1
  In  In22  1  0.16983247  0.65719723  0.38778955  1
  In  In23  1  0.16016808  0.65947649  0.86863192  1
  In  In24  1  0.49702598  -0.00040112  0.36428280  1
  In  In25  1  0.48726863  -0.00642969  0.88428545  1
  In  In26  1  0.49799685  0.33335665  0.36559572  1
  In  In27  1  0.50224123  0.33587877  0.86947852  1
  In  In28  1  0.49437692  0.66161528  0.36589085  1
  In  In29  1  0.49570480  0.67907785  0.87825477  1
  In  In30  1  0.83061628  -0.00713184  0.36637519  1
  In  In31  1  0.84826753  -0.00987100  0.88823402  1
  In  In32  1  0.83082780  0.34172144  0.37143354  1
  In  In33  1  0.82440642  0.33206742  0.87377072  1
  In  In34  1  0.83647394  0.67122137  0.37909065  1
  In  In35  1  0.84468657  0.67129067  0.87447783  1
  In  In36  1  0.01796382  0.16475809  0.37519938  1
  In  In37  1  0.01221800  0.15194039  0.88707189  1
  In  In38  1  -0.00148456  0.50503686  0.39114534  1
  In  In39  1  0.00219511  0.51864684  0.87089071  1
  In  In40  1  -0.00667514  0.83466004  0.38318493  1
  In  In41  1  -0.00225787  0.83205904  0.87279385  1
  In  In42  1  0.32190743  0.16656399  0.36864676  1
  In  In43  1  0.32064757  0.16877840  0.87485031  1
  In  In44  1  0.32401529  0.49488061  0.37085053  1
  In  In45  1  0.32310545  0.48903611  0.86600990  1
  In  In46  1  0.32588219  0.83305300  0.37218709  1
  In  In47  1  0.33820956  0.83594772  0.87930328  1
  In  In48  1  0.66628939  0.16408014  0.36061849  1
  In  In49  1  0.67473151  0.18282168  0.88053843  1
  In  In50  1  0.67779278  0.51206889  0.35679039  1
  In  In51  1  0.67773040  0.49044820  0.87382852  1
  In  In52  1  0.67657889  0.84048221  0.36572489  1
  In  In53  1  0.66501329  0.83728645  0.88544653  1
  In  In54  1  0.15574292  0.01400294  0.13304561  1
  In  In55  1  0.16289373  -0.01190085  0.61618482  1
  In  In56  1  0.16801705  0.33340885  0.11998872  1
  In  In57  1  0.17729763  0.33347606  0.61660791  1
  In  In58  1  0.17899790  0.66434174  0.12969788  1
  In  In59  1  0.16464319  0.66882572  0.62830423  1
  In  In60  1  0.51041938  -0.00869440  0.13294127  1
  In  In61  1  0.49137344  -0.00216620  0.62281690  1
  In  In62  1  0.50052005  0.32848519  0.13060904  1
  In  In63  1  0.49556328  0.33863287  0.63191448  1
  In  In64  1  0.49507609  0.66889367  0.13132943  1
  In  In65  1  0.49780727  0.65471631  0.62768704  1
  In  In66  1  0.83392824  -0.00518982  0.12426844  1
  In  In67  1  0.85054641  0.00101293  0.62468973  1
  In  In68  1  0.83668018  0.32610564  0.12629584  1
  In  In69  1  0.82370080  0.33807463  0.62689034  1
  In  In70  1  0.81798629  0.66772961  0.12915092  1
  In  In71  1  0.86167270  0.68569343  0.60078115  1
  In  In72  1  0.49112902  0.16627494  0.49166857  1
  In  In73  1  0.67095358  0.00091851  0.75638195  1
  In  In74  1  0.83778388  0.50173148  0.00200896  1
  In  In75  1  0.16619702  0.83977220  0.00295114  1
  In  In76  1  0.49857062  0.49561798  0.50288656  1
  In  In77  1  0.00305091  0.33219025  0.25181246  1
  In  In78  1  0.50166638  0.50054975  -0.00411595  1
  In  In79  1  0.32520904  -0.00148518  0.75228471  1
  In  In80  1  0.49542339  0.83197881  0.48734231  1
  In  In81  1  0.50451527  0.15887184  0.00870442  1
  In  In82  1  0.00052618  0.66990402  0.26261367  1
  In  In83  1  0.00046700  0.33775999  0.74615146  1
  In  In84  1  0.66991651  0.65564820  0.75445241  1
  In  In85  1  0.83825483  0.16702967  0.50356859  1
  Cu  Cu86  1  0.16807130  0.49984534  0.25554370  1
  Cu  Cu87  1  0.67885420  0.66539046  0.49092806  1
  Cu  Cu88  1  0.00223219  0.67317770  -0.00342088  1
  Cu  Cu89  1  0.17172428  0.83821556  0.24863594  1
  Cu  Cu90  1  0.83621454  0.17049069  0.74976374  1
  Cu  Cu91  1  0.67024102  -0.00035865  0.00848494  1
  Cu  Cu92  1  0.00199443  0.33338879  0.50171449  1
  Cu  Cu93  1  0.66352940  0.67139166  0.00518482  1
  Cu  Cu94  1  0.48855831  0.82792542  0.75289734  1
  Cu  Cu95  1  0.33306341  0.33195448  -0.00218553  1
  Cu  Cu96  1  0.32985771  0.66303765  0.00832353  1
  Cu  Cu97  1  0.83463750  0.50437498  0.74500317  1
  Cu  Cu98  1  0.49535888  0.49526856  0.74961806  1
  Cu  Cu99  1  0.83872381  0.83586577  0.74715033  1
  Cu  Cu100  1  0.66118900  0.33322955  0.49594027  1
  Cu  Cu101  1  0.33057352  0.67050785  0.50484060  1
  Cu  Cu102  1  0.16547074  0.50039373  0.74259293  1
  Cu  Cu103  1  0.67020610  -0.00940018  0.49265240  1
  Cu  Cu104  1  0.49522799  0.16919759  0.24494839  1
  Cu  Cu105  1  0.83629700  0.83233191  0.24977699  1
  Cu  Cu106  1  0.50360253  0.83361295  0.25018173  1
  Cu  Cu107  1  0.83662143  0.16127307  0.24310562  1
  Cu  Cu108  1  0.33233131  -0.00575838  0.00533615  1
  Cu  Cu109  1  0.00296977  -0.00465737  0.49891478  1
  Cu  Cu110  1  0.15645041  0.82936636  0.74893963  1
  Cu  Cu111  1  0.49487620  0.50053570  0.24763118  1
  Cu  Cu112  1  0.00867514  0.33621922  -0.00326113  1
  Cu  Cu113  1  0.50370497  0.17058225  0.75030848  1
  Cu  Cu114  1  0.16254538  0.16877129  0.24967093  1
  Se  Se115  1  0.09521055  0.08438101  0.04852600  1
  Se  Se116  1  0.08173743  0.08230254  0.55268969  1
  Se  Se117  1  0.08852938  0.42105534  0.05089394  1
  Se  Se118  1  0.09051252  0.41622887  0.55014018  1
  Se  Se119  1  0.08025844  0.74530725  0.06457635  1
  Se  Se120  1  0.09224140  0.75638205  0.55799903  1
  Se  Se121  1  0.40925210  0.07567335  0.06782211  1
  Se  Se122  1  0.40575339  0.07550464  0.55398104  1
  Se  Se123  1  0.41255082  0.41166670  0.05847093  1
  Se  Se124  1  0.40529250  0.40517166  0.55701213  1
  Se  Se125  1  0.41739143  0.74628359  0.05580722  1
  Se  Se126  1  0.41611017  0.74888730  0.56268870  1
  Se  Se127  1  0.75142806  0.08584727  0.05867014  1
  Se  Se128  1  0.74239795  0.07206727  0.55844493  1
  Se  Se129  1  0.74589126  0.41497353  0.06070657  1
  Se  Se130  1  0.74652649  0.41304700  0.55014905  1
  Se  Se131  1  0.75228559  0.75295728  0.05408744  1
  Se  Se132  1  0.75526696  0.75553641  0.54299188  1
  Se  Se133  1  0.24947909  0.24820970  0.05061316  1
  Se  Se134  1  0.24667603  0.24191066  0.54631060  1
  Se  Se135  1  0.24582252  0.57662456  0.05574313  1
  Se  Se136  1  0.25143565  0.58566681  0.55988091  1
  Se  Se137  1  0.25485138  0.91891434  0.07080355  1
  Se  Se138  1  0.25541030  0.92343406  0.54453496  1
  Se  Se139  1  0.59256222  0.25883252  0.05774028  1
  Se  Se140  1  0.58389835  0.25298114  0.55719368  1
  Se  Se141  1  0.59019733  0.58371568  0.06296416  1
  Se  Se142  1  0.59555427  0.59253472  0.55427940  1
  Se  Se143  1  0.58229704  0.91515037  0.05514800  1
  Se  Se144  1  0.58732754  0.91737974  0.55638019  1
  Se  Se145  1  0.92336838  0.25885386  0.05293347  1
  Se  Se146  1  0.92582826  0.25473323  0.56686675  1
  Se  Se147  1  0.92497189  0.59438291  0.06272957  1
  Se  Se148  1  0.89292660  0.55606762  0.55719549  1
  Se  Se149  1  0.91647672  0.92178645  0.04942036  1
  Se  Se150  1  0.91681239  0.91468451  0.55188812  1
  Se  Se151  1  0.08466414  0.24834186  0.45029139  1
  Se  Se152  1  0.09068161  0.24933402  0.94609480  1
  Se  Se153  1  0.07184052  0.59624894  0.45621863  1
  Se  Se154  1  0.08490517  0.58611006  0.94777078  1
  Se  Se155  1  0.08748028  0.91816715  0.44214897  1
  Se  Se156  1  0.07527913  0.92584029  0.94293313  1
  Se  Se157  1  0.40545884  0.26271011  0.43739833  1
  Se  Se158  1  0.41834594  0.25011004  0.94268227  1
  Se  Se159  1  0.41184543  0.59071420  0.44459350  1
  Se  Se160  1  0.40486091  0.58687486  0.93989426  1
  Se  Se161  1  0.40662424  0.93163242  0.43905851  1
  Se  Se162  1  0.41662509  0.90822376  0.95672707  1
  Se  Se163  1  0.74166293  0.24699621  0.44055801  1
  Se  Se164  1  0.75697495  0.25581099  0.95235280  1
  Se  Se165  1  0.75344750  0.57438788  0.43926951  1
  Se  Se166  1  0.74336683  0.59332571  0.94194489  1
  Se  Se167  1  0.75793271  0.91140350  0.44237956  1
  Se  Se168  1  0.75139125  0.91615567  0.95149795  1
  Se  Se169  1  0.23501677  0.09955858  0.44176145  1
  Se  Se170  1  0.25606668  0.07834974  0.94776619  1
  Se  Se171  1  0.24124556  0.43565729  0.44932842  1
  Se  Se172  1  0.24989068  0.41592956  0.94487155  1
  Se  Se173  1  0.25227434  0.75280459  0.44746312  1
  Se  Se174  1  0.25115420  0.74296308  0.94388987  1
  Se  Se175  1  0.59128153  0.07626553  0.43823102  1
  Se  Se176  1  0.59290952  0.07418602  0.94019087  1
  Se  Se177  1  0.58737436  0.41643601  0.43480524  1
  Se  Se178  1  0.59501190  0.40564776  0.94428407  1
  Se  Se179  1  0.59140093  0.74144896  0.43347203  1
  Se  Se180  1  0.57953751  0.75209152  0.95019529  1
  Se  Se181  1  0.92186827  0.07791756  0.43899818  1
  Se  Se182  1  0.89721569  0.10498460  0.94522725  1
  Se  Se183  1  0.91350540  0.40876500  0.44768842  1
  Se  Se184  1  0.92683447  0.41611733  0.93638345  1
  Se  Se185  1  0.93146327  0.73347855  0.44874924  1
  Se  Se186  1  0.91567962  0.75552197  0.94751529  1
  Se  Se187  1  0.24003912  0.25765534  0.30376917  1
  Se  Se188  1  0.25423859  0.24884474  0.79901936  1
  Se  Se189  1  0.24687096  0.58969967  0.30691361  1
  Se  Se190  1  0.24831857  0.58231164  0.80033454  1
  Se  Se191  1  0.25397394  0.92315704  0.30201525  1
  Se  Se192  1  0.23476183  0.90813605  0.81397042  1
  Se  Se193  1  0.58155286  0.25091323  0.29821463  1
  Se  Se194  1  0.58798852  0.24956032  0.80550961  1
  Se  Se195  1  0.58059408  0.58748021  0.29565956  1
  Se  Se196  1  0.57250808  0.57226521  0.81548831  1
  Se  Se197  1  0.58752780  0.92017991  0.30025135  1
  Se  Se198  1  0.57069966  0.90952183  0.80955220  1
  Se  Se199  1  0.91204944  0.23814360  0.31088076  1
  Se  Se200  1  0.91754476  0.24847525  0.81096317  1
  Se  Se201  1  0.91180926  0.57035811  0.31137460  1
  Se  Se202  1  0.91455986  0.58947140  0.79894519  1
  Se  Se203  1  0.92284497  0.91196303  0.30366003  1
  Se  Se204  1  0.91612080  0.91918528  0.80497012  1
  Se  Se205  1  0.08090168  0.07978492  0.29906087  1
  Se  Se206  1  0.08046958  0.08854011  0.80218070  1
  Se  Se207  1  0.08550249  0.42320735  0.31679237  1
  Se  Se208  1  0.09016661  0.42401472  0.81041689  1
  Se  Se209  1  0.09691793  0.75902813  0.31475132  1
  Se  Se210  1  0.07526283  0.74530845  0.80405176  1
  Se  Se211  1  0.41370969  0.08933635  0.30272537  1
  Se  Se212  1  0.42495018  0.08722464  0.80914643  1
  Se  Se213  1  0.41144221  0.41864911  0.30205150  1
  Se  Se214  1  0.41276123  0.40895190  0.80095779  1
  Se  Se215  1  0.41562841  0.75499538  0.30425831  1
  Se  Se216  1  0.40546444  0.74632958  0.80602154  1
  Se  Se217  1  0.75196340  0.07837846  0.29764236  1
  Se  Se218  1  0.75983106  0.09033153  0.81438520  1
  Se  Se219  1  0.73620529  0.39986378  0.30096568  1
  Se  Se220  1  0.75513374  0.41782444  0.79793536  1
  Se  Se221  1  0.75605501  0.74636828  0.30384104  1
  Se  Se222  1  0.75217621  0.76143945  0.80816649  1
  Se  Se223  1  0.25067192  0.08447300  0.20053740  1
  Se  Se224  1  0.24184799  0.08364110  0.68697953  1
  Se  Se225  1  0.24197424  0.41253680  0.19718174  1
  Se  Se226  1  0.24908436  0.41375852  0.69370585  1
  Se  Se227  1  0.25307192  0.74781246  0.20091384  1
  Se  Se228  1  0.24795710  0.74849542  0.70174559  1
  Se  Se229  1  0.58436446  0.08582306  0.19746237  1
  Se  Se230  1  0.57874042  0.08631998  0.69000600  1
  Se  Se231  1  0.58018456  0.41731337  0.19631278  1
  Se  Se232  1  0.58559176  0.41778534  0.69708099  1
  Se  Se233  1  0.58540303  0.75020809  0.19495200  1
  Se  Se234  1  0.57717078  0.75223822  0.69647364  1
  Se  Se235  1  0.92164084  0.07881683  0.19190125  1
  Se  Se236  1  0.91679924  0.07958084  0.70313052  1
  Se  Se237  1  0.90841114  0.42424547  0.19660450  1
  Se  Se238  1  0.91807466  0.42945091  0.68294862  1
  Se  Se239  1  0.91884494  0.75359295  0.18962055  1
  Se  Se240  1  0.91615108  0.75032570  0.69116137  1
  Se  Se241  1  0.08003226  0.24141175  0.18463918  1
  Se  Se242  1  0.09165693  0.24805189  0.68893425  1
  Se  Se243  1  0.08463920  0.57723078  0.19518129  1
  Se  Se244  1  0.07783603  0.58487218  0.69550192  1
  Se  Se245  1  0.08280114  0.91831558  0.19891211  1
  Se  Se246  1  0.08255023  0.91990610  0.69475924  1
  Se  Se247  1  0.40899845  0.25557875  0.19782105  1
  Se  Se248  1  0.41667904  0.24561840  0.69427856  1
  Se  Se249  1  0.40969402  0.58442564  0.19647184  1
  Se  Se250  1  0.41422846  0.58371972  0.70004211  1
  Se  Se251  1  0.41734182  0.91859126  0.20023803  1
  Se  Se252  1  0.41220698  0.90578630  0.68933116  1
  Se  Se253  1  0.75273856  0.25061139  0.19773020  1
  Se  Se254  1  0.74951476  0.25379834  0.70071113  1
  Se  Se255  1  0.75481628  0.58606245  0.20571973  1
  Se  Se256  1  0.75891784  0.58730678  0.68238972  1
  Se  Se257  1  0.75145201  0.91479879  0.19561465  1
  Se  Se258  1  0.75106618  0.90967702  0.68801515  1
