# generated using pymatgen
data_In86Cu29Se144
_symmetry_space_group_name_H-M   'P 1'
_cell_length_a   17.59051616
_cell_length_b   17.58761618
_cell_length_c   23.45488145
_cell_angle_alpha   89.99294221
_cell_angle_beta   89.98847168
_cell_angle_gamma   90.00933392
_symmetry_Int_Tables_number   1
_chemical_formula_structural   In86Cu29Se144
_chemical_formula_sum   'In86 Cu29 Se144'
_cell_volume   7256.35943875
_cell_formula_units_Z   1
loop_
 _symmetry_equiv_pos_site_id
 _symmetry_equiv_pos_as_xyz
  1  'x, y, z'
loop_
 _atom_site_type_symbol
 _atom_site_label
 _atom_site_symmetry_multiplicity
 _atom_site_fract_x
 _atom_site_fract_y
 _atom_site_fract_z
 _atom_site_occupancy
  In  In0  1  -0.01428576  0.17527863  0.13313284  1
  In  In1  1  -0.00308089  0.17424418  0.64242067  1
  In  In2  1  -0.00401383  0.50311953  0.12830391  1
  In  In3  1  -0.00949140  0.50531139  0.63287661  1
  In  In4  1  0.00964582  0.82874210  0.12544121  1
  In  In5  1  0.00636308  0.82758260  0.63649472  1
  In  In6  1  0.34127196  0.15995323  0.13024029  1
  In  In7  1  0.33526390  0.17566074  0.62322167  1
  In  In8  1  0.33977479  0.49272818  0.13138064  1
  In  In9  1  0.35316765  0.50473689  0.62258311  1
  In  In10  1  0.33344307  0.83143374  0.12378285  1
  In  In11  1  0.31999226  0.82709653  0.62393681  1
  In  In12  1  0.66199075  0.16356089  0.11786325  1
  In  In13  1  0.66572471  0.16680151  0.63648098  1
  In  In14  1  0.67323278  0.50783751  0.11918544  1
  In  In15  1  0.65837014  0.48157584  0.60645122  1
  In  In16  1  0.65478926  0.84001611  0.12683539  1
  In  In17  1  0.67608357  0.83507650  0.63102002  1
  In  In18  1  0.16438734  -0.00197598  0.36494638  1
  In  In19  1  0.15011832  -0.00256628  0.87795814  1
  In  In20  1  0.16530884  0.33577617  0.36571694  1
  In  In21  1  0.16119886  0.34144302  0.86314974  1
  In  In22  1  0.17408488  0.66782318  0.36895487  1
  In  In23  1  0.17587688  0.67110764  0.86937250  1
  In  In24  1  0.50349060  0.00308242  0.36084868  1
  In  In25  1  0.50772576  -0.00550586  0.88262713  1
  In  In26  1  0.49880067  0.35024998  0.37712404  1
  In  In27  1  0.50754630  0.32555429  0.88332123  1
  In  In28  1  0.48991619  0.65130982  0.36625288  1
  In  In29  1  0.49372844  0.66874511  0.88240327  1
  In  In30  1  0.83389750  0.00813587  0.35401980  1
  In  In31  1  0.84255475  0.01009758  0.87638488  1
  In  In32  1  0.83879895  0.33197979  0.37649541  1
  In  In33  1  0.83239525  0.33326859  0.87826015  1
  In  In34  1  0.82709374  0.65896836  0.36724110  1
  In  In35  1  0.82927898  0.65224419  0.87853704  1
  In  In36  1  -0.00352903  0.17118072  0.36128641  1
  In  In37  1  -0.00270991  0.15729032  0.87049744  1
  In  In38  1  -0.00827864  0.49301291  0.36823970  1
  In  In39  1  -0.00568086  0.49082389  0.86230629  1
  In  In40  1  -0.00092193  0.83103965  0.36580610  1
  In  In41  1  0.00671614  0.83906456  0.87877471  1
  In  In42  1  0.33822998  0.16971312  0.36263225  1
  In  In43  1  0.33978440  0.17791351  0.87929730  1
  In  In44  1  0.34139337  0.50695077  0.37080031  1
  In  In45  1  0.33551886  0.51199166  0.86937123  1
  In  In46  1  0.33327001  0.82932484  0.36585244  1
  In  In47  1  0.34104973  0.82454654  0.88492073  1
  In  In48  1  0.67897177  0.16327357  0.36789936  1
  In  In49  1  0.67055333  0.16874858  0.87950863  1
  In  In50  1  0.65359066  0.50415048  0.38504715  1
  In  In51  1  0.67431787  0.49273474  0.88255429  1
  In  In52  1  0.67143237  0.83610915  0.36264285  1
  In  In53  1  0.64875676  0.83176628  0.87920623  1
  In  In54  1  0.17394422  -0.00636792  0.12700973  1
  In  In55  1  0.16364319  -0.00606988  0.62914244  1
  In  In56  1  0.16329187  0.33626122  0.13193704  1
  In  In57  1  0.16343546  0.32721002  0.63141083  1
  In  In58  1  0.16188473  0.67380007  0.12836689  1
  In  In59  1  0.17313590  0.65081798  0.64385416  1
  In  In60  1  0.49941149  -0.00183249  0.12159577  1
  In  In61  1  0.50512624  0.01216712  0.62841389  1
  In  In62  1  0.49676716  0.32792153  0.11903476  1
  In  In63  1  0.50727904  0.35428977  0.62757456  1
  In  In64  1  0.49814003  0.66612424  0.12465462  1
  In  In65  1  0.49874549  0.64521725  0.62805272  1
  In  In66  1  0.81903252  0.01549306  0.13486678  1
  In  In67  1  0.83233531  0.00375199  0.63761311  1
  In  In68  1  0.83562507  0.33839306  0.11991020  1
  In  In69  1  0.82320012  0.34323632  0.63186579  1
  In  In70  1  0.84109050  0.65865119  0.12910047  1
  In  In71  1  0.84568962  0.66183085  0.62816446  1
  In  In72  1  0.16802042  0.50288007  -0.01165015  1
  In  In73  1  0.33138122  -0.00029675  0.74610856  1
  In  In74  1  0.16895738  0.16415766  -0.00308598  1
  In  In75  1  0.66922468  0.66565461  0.75312495  1
  In  In76  1  0.16402055  0.82325788  0.48954433  1
  In  In77  1  0.16372613  0.16959020  0.50773778  1
  In  In78  1  0.17253151  0.49949257  0.50194664  1
  In  In79  1  0.83134504  0.83657637  0.00865940  1
  In  In80  1  0.50124842  0.17690591  0.49932216  1
  In  In81  1  0.66371427  0.33263884  0.25275461  1
  In  In82  1  0.33459305  0.33993668  0.74655138  1
  In  In83  1  0.83206592  0.82665898  0.49892720  1
  In  In84  1  0.50256071  0.82549402  0.49976014  1
  In  In85  1  0.83154996  0.17455303  0.49524569  1
  Cu  Cu86  1  0.83962299  0.83087686  0.24186880  1
  Cu  Cu87  1  0.16447727  0.83431013  0.75400315  1
  Cu  Cu88  1  -0.00238787  0.33663523  0.49848788  1
  Cu  Cu89  1  0.17142091  0.83239761  0.24747225  1
  Cu  Cu90  1  0.33605056  -0.00450119  0.00658278  1
  Cu  Cu91  1  0.16304184  0.16496192  0.24406214  1
  Cu  Cu92  1  0.66456140  0.65886946  0.49269175  1
  Cu  Cu93  1  0.83420345  0.84344874  0.75621215  1
  Cu  Cu94  1  0.16524598  0.50204841  0.24932000  1
  Cu  Cu95  1  0.49380930  0.82894222  0.75765448  1
  Cu  Cu96  1  0.65925273  0.66319290  0.00061583  1
  Cu  Cu97  1  0.83372041  0.16869619  0.75730957  1
  Cu  Cu98  1  0.50289452  0.50481372  0.25040705  1
  Cu  Cu99  1  -0.00195813  0.00494161  0.00198507  1
  Cu  Cu100  1  0.66841472  0.33515312  0.00114236  1
  Cu  Cu101  1  -0.00443458  0.33681878  -0.00299653  1
  Cu  Cu102  1  0.83413405  0.49959498  0.24725511  1
  Cu  Cu103  1  0.33141853  -0.00030013  0.48933079  1
  Cu  Cu104  1  -0.01092127  -0.00040789  0.50242887  1
  Cu  Cu105  1  0.50024553  0.83145219  0.24427322  1
  Cu  Cu106  1  -0.00145750  0.66351528  0.00483206  1
  Cu  Cu107  1  0.66691632  0.00348219  0.00265121  1
  Cu  Cu108  1  0.51104718  0.16658550  0.75669615  1
  Cu  Cu109  1  0.49643051  0.16652597  0.24084609  1
  Cu  Cu110  1  0.33939943  0.33420222  0.00385545  1
  Cu  Cu111  1  0.67244579  0.00084678  0.49666831  1
  Cu  Cu112  1  0.00445744  0.65912541  0.50473206  1
  Cu  Cu113  1  0.82960346  0.49584517  0.75168323  1
  Cu  Cu114  1  0.33097269  0.66558685  0.00148707  1
  Se  Se115  1  0.07965161  0.08410741  0.06343803  1
  Se  Se116  1  0.06934756  0.07737968  0.56299477  1
  Se  Se117  1  0.08127246  0.41453552  0.05456404  1
  Se  Se118  1  0.07704701  0.41267287  0.56110121  1
  Se  Se119  1  0.08551000  0.74837842  0.05086449  1
  Se  Se120  1  0.08407442  0.74086317  0.56239886  1
  Se  Se121  1  0.41743048  0.08568872  0.05362893  1
  Se  Se122  1  0.40800426  0.07627317  0.55381931  1
  Se  Se123  1  0.41963163  0.42224766  0.05430208  1
  Se  Se124  1  0.41417943  0.40870075  0.55436082  1
  Se  Se125  1  0.41584365  0.74873786  0.05436804  1
  Se  Se126  1  0.41244289  0.74195724  0.56220132  1
  Se  Se127  1  0.75440426  0.08648232  0.05100246  1
  Se  Se128  1  0.74752669  0.07985122  0.55985355  1
  Se  Se129  1  0.75264771  0.42045807  0.05201627  1
  Se  Se130  1  0.76393877  0.41650752  0.54855355  1
  Se  Se131  1  0.74149139  0.74089685  0.06291985  1
  Se  Se132  1  0.73985412  0.73720808  0.55848015  1
  Se  Se133  1  0.25319480  0.25586886  0.06045494  1
  Se  Se134  1  0.25936404  0.26707055  0.55430065  1
  Se  Se135  1  0.25104887  0.58289544  0.06056691  1
  Se  Se136  1  0.25695691  0.59450547  0.56042143  1
  Se  Se137  1  0.24790617  0.91205550  0.05318167  1
  Se  Se138  1  0.25077569  0.92341786  0.55050237  1
  Se  Se139  1  0.58244084  0.24975812  0.05046459  1
  Se  Se140  1  0.59361946  0.25545543  0.56337687  1
  Se  Se141  1  0.57655447  0.57937315  0.05431340  1
  Se  Se142  1  0.57976256  0.58154351  0.54926765  1
  Se  Se143  1  0.58167564  0.91653227  0.05005372  1
  Se  Se144  1  0.59154585  0.92358212  0.55828410  1
  Se  Se145  1  0.91794476  0.25128206  0.05253304  1
  Se  Se146  1  0.92375615  0.25355895  0.56141791  1
  Se  Se147  1  0.91505179  0.57815015  0.05353173  1
  Se  Se148  1  0.91554709  0.57851930  0.55320416  1
  Se  Se149  1  0.92052331  0.92735311  0.06650101  1
  Se  Se150  1  0.91698421  0.91716948  0.56448497  1
  Se  Se151  1  0.07533705  0.25396511  0.43978358  1
  Se  Se152  1  0.08114713  0.25915348  0.93889890  1
  Se  Se153  1  0.08176239  0.58531303  0.43798994  1
  Se  Se154  1  0.07171277  0.59060683  0.93451364  1
  Se  Se155  1  0.07199661  0.92492930  0.44142548  1
  Se  Se156  1  0.08203739  0.91688386  0.95533825  1
  Se  Se157  1  0.40509442  0.25736412  0.43936651  1
  Se  Se158  1  0.42192018  0.24624311  0.95405259  1
  Se  Se159  1  0.42365475  0.57727122  0.44593016  1
  Se  Se160  1  0.41239166  0.58003766  0.94888511  1
  Se  Se161  1  0.41810229  0.92108274  0.43642146  1
  Se  Se162  1  0.41986387  0.91491471  0.94930869  1
  Se  Se163  1  0.73342622  0.26183367  0.44212408  1
  Se  Se164  1  0.75315118  0.25047712  0.94949397  1
  Se  Se165  1  0.75599485  0.58044710  0.44380761  1
  Se  Se166  1  0.74933545  0.58115738  0.95346053  1
  Se  Se167  1  0.75290999  0.92420981  0.43630132  1
  Se  Se168  1  0.74457211  0.92045817  0.94106937  1
  Se  Se169  1  0.24849449  0.08399624  0.43721607  1
  Se  Se170  1  0.26077297  0.07189157  0.93873873  1
  Se  Se171  1  0.25474686  0.41145577  0.43633528  1
  Se  Se172  1  0.26008804  0.40506461  0.93693924  1
  Se  Se173  1  0.26828536  0.73751913  0.44300505  1
  Se  Se174  1  0.24578352  0.74785734  0.94853861  1
  Se  Se175  1  0.58804477  0.07889647  0.43973724  1
  Se  Se176  1  0.58371755  0.08660027  0.94773641  1
  Se  Se177  1  0.58364871  0.41169889  0.45241940  1
  Se  Se178  1  0.58225562  0.41811688  0.95016418  1
  Se  Se179  1  0.59193599  0.74527894  0.43326527  1
  Se  Se180  1  0.57612642  0.75082934  0.95270160  1
  Se  Se181  1  0.91705750  0.07744548  0.43717287  1
  Se  Se182  1  0.91788710  0.09101908  0.95033636  1
  Se  Se183  1  0.91529508  0.41931231  0.44566217  1
  Se  Se184  1  0.91748496  0.42330617  0.94237430  1
  Se  Se185  1  0.92691164  0.74022360  0.44085683  1
  Se  Se186  1  0.91647159  0.74583324  0.94427353  1
  Se  Se187  1  0.24582960  0.24829538  0.29971159  1
  Se  Se188  1  0.24838455  0.24227379  0.80552093  1
  Se  Se189  1  0.25337592  0.58275338  0.30114838  1
  Se  Se190  1  0.23608195  0.57009735  0.80311710  1
  Se  Se191  1  0.25384534  0.91806874  0.30082164  1
  Se  Se192  1  0.24920145  0.91220957  0.81352618  1
  Se  Se193  1  0.57011301  0.24155592  0.31126289  1
  Se  Se194  1  0.59021953  0.25367404  0.80857765  1
  Se  Se195  1  0.59168542  0.58316931  0.30327177  1
  Se  Se196  1  0.58273573  0.58057839  0.81695798  1
  Se  Se197  1  0.58515182  0.91658282  0.29622486  1
  Se  Se198  1  0.57914308  0.91564803  0.80430635  1
  Se  Se199  1  0.89524559  0.24082981  0.30274006  1
  Se  Se200  1  0.91815791  0.25232824  0.80917761  1
  Se  Se201  1  0.91931766  0.58494520  0.29990766  1
  Se  Se202  1  0.91014725  0.58523725  0.80192002  1
  Se  Se203  1  0.92035579  0.91556402  0.29720811  1
  Se  Se204  1  0.92178172  0.92060532  0.81065830  1
  Se  Se205  1  0.08061768  0.08227242  0.29963017  1
  Se  Se206  1  0.09158992  0.08635926  0.80436088  1
  Se  Se207  1  0.07936150  0.41637909  0.29958374  1
  Se  Se208  1  0.09170403  0.42856568  0.79374880  1
  Se  Se209  1  0.08822336  0.74916934  0.30259483  1
  Se  Se210  1  0.08115603  0.75209997  0.80816040  1
  Se  Se211  1  0.41376546  0.08065804  0.29532032  1
  Se  Se212  1  0.42170859  0.08734146  0.80967859  1
  Se  Se213  1  0.41839592  0.41851113  0.30042227  1
  Se  Se214  1  0.42662849  0.41716286  0.81241731  1
  Se  Se215  1  0.41955577  0.74802499  0.30051623  1
  Se  Se216  1  0.41155395  0.74439835  0.80775942  1
  Se  Se217  1  0.73585596  0.07698439  0.29161852  1
  Se  Se218  1  0.75026426  0.08341122  0.80924462  1
  Se  Se219  1  0.75230602  0.42549731  0.31127529  1
  Se  Se220  1  0.74793239  0.41361382  0.80688357  1
  Se  Se221  1  0.75561548  0.75049084  0.29877986  1
  Se  Se222  1  0.75567872  0.75974984  0.81580171  1
  Se  Se223  1  0.25089899  0.08181751  0.19538152  1
  Se  Se224  1  0.24312968  0.09585225  0.68936085  1
  Se  Se225  1  0.24939643  0.41644948  0.19846972  1
  Se  Se226  1  0.24675324  0.42931510  0.68534566  1
  Se  Se227  1  0.25435483  0.74724166  0.19541691  1
  Se  Se228  1  0.25070408  0.75153710  0.70189082  1
  Se  Se229  1  0.58185581  0.08400241  0.19012073  1
  Se  Se230  1  0.58902704  0.07682141  0.70406720  1
  Se  Se231  1  0.57982029  0.42255864  0.18837921  1
  Se  Se232  1  0.59248573  0.42847660  0.69608673  1
  Se  Se233  1  0.58475142  0.74564476  0.19451909  1
  Se  Se234  1  0.57572369  0.75481879  0.69170327  1
  Se  Se235  1  0.92235089  0.07567388  0.19828051  1
  Se  Se236  1  0.91764324  0.08225202  0.70519518  1
  Se  Se237  1  0.91593784  0.41429287  0.19468855  1
  Se  Se238  1  0.91728245  0.41236672  0.70003561  1
  Se  Se239  1  0.92469661  0.74604794  0.19303239  1
  Se  Se240  1  0.90884374  0.75556063  0.69941464  1
  Se  Se241  1  0.07849533  0.25345842  0.19740734  1
  Se  Se242  1  0.08663257  0.25299547  0.70482457  1
  Se  Se243  1  0.08230457  0.58461819  0.19451708  1
  Se  Se244  1  0.05814512  0.60258055  0.69838099  1
  Se  Se245  1  0.08637420  0.91537667  0.19547963  1
  Se  Se246  1  0.08225453  0.92019134  0.70201883  1
  Se  Se247  1  0.41410468  0.25735929  0.19488054  1
  Se  Se248  1  0.43171222  0.24395532  0.69276834  1
  Se  Se249  1  0.41623039  0.58509956  0.19670542  1
  Se  Se250  1  0.41663476  0.58135152  0.70398785  1
  Se  Se251  1  0.41685010  0.91628335  0.19165348  1
  Se  Se252  1  0.42366410  0.90736091  0.68707354  1
  Se  Se253  1  0.74963870  0.24860816  0.18709962  1
  Se  Se254  1  0.75217433  0.24993430  0.70007097  1
  Se  Se255  1  0.74889687  0.58322447  0.19627224  1
  Se  Se256  1  0.75159736  0.57587263  0.68840915  1
  Se  Se257  1  0.74915508  0.91175730  0.19370592  1
  Se  Se258  1  0.74550229  0.92088625  0.70314449  1
