# generated using pymatgen
data_In86Cu29Se144
_symmetry_space_group_name_H-M   'P 1'
_cell_length_a   17.57540817
_cell_length_b   17.57757366
_cell_length_c   23.43544772
_cell_angle_alpha   89.99507983
_cell_angle_beta   90.04857543
_cell_angle_gamma   89.98349059
_symmetry_Int_Tables_number   1
_chemical_formula_structural   In86Cu29Se144
_chemical_formula_sum   'In86 Cu29 Se144'
_cell_volume   7239.98098144
_cell_formula_units_Z   1
loop_
 _symmetry_equiv_pos_site_id
 _symmetry_equiv_pos_as_xyz
  1  'x, y, z'
loop_
 _atom_site_type_symbol
 _atom_site_label
 _atom_site_symmetry_multiplicity
 _atom_site_fract_x
 _atom_site_fract_y
 _atom_site_fract_z
 _atom_site_occupancy
  In  In0  1  0.00411609  0.17134665  0.11581654  1
  In  In1  1  0.01039914  0.18521392  0.61122443  1
  In  In2  1  0.01032292  0.50925105  0.11541963  1
  In  In3  1  0.03547982  0.48347670  0.66048127  1
  In  In4  1  -0.00504229  0.82850685  0.11966170  1
  In  In5  1  -0.00909324  0.83635559  0.62985194  1
  In  In6  1  0.33588849  0.17003170  0.12302045  1
  In  In7  1  0.34394861  0.17165049  0.61600089  1
  In  In8  1  0.32146941  0.50761791  0.13337412  1
  In  In9  1  0.31550386  0.49064159  0.61875852  1
  In  In10  1  0.32151688  0.83789354  0.12815573  1
  In  In11  1  0.34243125  0.82559315  0.61835369  1
  In  In12  1  0.66553700  0.16883969  0.11582800  1
  In  In13  1  0.66216917  0.15716855  0.61724280  1
  In  In14  1  0.66529193  0.48970439  0.11835241  1
  In  In15  1  0.67279189  0.51641520  0.62623006  1
  In  In16  1  0.67304685  0.82596121  0.12297148  1
  In  In17  1  0.66915309  0.83482408  0.62391596  1
  In  In18  1  0.18119315  0.01453831  0.38046836  1
  In  In19  1  0.16952703  -0.00197996  0.88189059  1
  In  In20  1  0.18556225  0.31397507  0.38537426  1
  In  In21  1  0.16252834  0.33802425  0.87322421  1
  In  In22  1  0.15528780  0.65508139  0.36800763  1
  In  In23  1  0.15457142  0.66968215  0.87839825  1
  In  In24  1  0.49464320  -0.00438510  0.39483981  1
  In  In25  1  0.51615719  0.00052346  0.87034574  1
  In  In26  1  0.48904825  0.34424899  0.38612451  1
  In  In27  1  0.48317898  0.33148744  0.86877072  1
  In  In28  1  0.48269837  0.67584355  0.37889022  1
  In  In29  1  0.50124778  0.65913383  0.86988516  1
  In  In30  1  0.82532602  0.00079234  0.38857826  1
  In  In31  1  0.82930541  0.00663908  0.87510219  1
  In  In32  1  0.82771805  0.33078940  0.37880297  1
  In  In33  1  0.84747713  0.32233803  0.87567569  1
  In  In34  1  0.84715372  0.67081286  0.37463057  1
  In  In35  1  0.83681929  0.66820796  0.87552954  1
  In  In36  1  0.00884569  0.16720563  0.38384428  1
  In  In37  1  -0.00116005  0.17314600  0.87538020  1
  In  In38  1  -0.00298401  0.50987593  0.37155423  1
  In  In39  1  0.00323082  0.49589288  0.87380791  1
  In  In40  1  0.00166668  0.81806930  0.37994072  1
  In  In41  1  0.01301632  0.81659317  0.87698433  1
  In  In42  1  0.32567841  0.17515125  0.38723857  1
  In  In43  1  0.32163067  0.17696855  0.88202652  1
  In  In44  1  0.32832903  0.49859243  0.37477689  1
  In  In45  1  0.33068171  0.48447370  0.87142853  1
  In  In46  1  0.34795138  0.82287384  0.37375137  1
  In  In47  1  0.32576763  0.82462338  0.87854055  1
  In  In48  1  0.66279018  0.15740924  0.39040237  1
  In  In49  1  0.67703531  0.15649201  0.87313508  1
  In  In50  1  0.66635530  0.48730257  0.38099800  1
  In  In51  1  0.66669336  0.51862854  0.86835853  1
  In  In52  1  0.66060525  0.84373108  0.39158375  1
  In  In53  1  0.67484172  0.84512167  0.86590222  1
  In  In54  1  0.16709309  -0.00372712  0.11589392  1
  In  In55  1  0.15556209  0.00725301  0.62595792  1
  In  In56  1  0.16975897  0.33622082  0.12237194  1
  In  In57  1  0.16878787  0.33992961  0.63262932  1
  In  In58  1  0.16325778  0.66374206  0.12527821  1
  In  In59  1  0.17006563  0.65834778  0.63172723  1
  In  In60  1  0.48896948  0.01047768  0.12765170  1
  In  In61  1  0.51761200  0.01318721  0.60475937  1
  In  In62  1  0.49886604  0.32106002  0.12687862  1
  In  In63  1  0.48465690  0.32827869  0.62052639  1
  In  In64  1  0.49800135  0.65897878  0.13187421  1
  In  In65  1  0.50804197  0.67705171  0.61502258  1
  In  In66  1  0.83381133  0.00227634  0.11737710  1
  In  In67  1  0.82326137  -0.00521522  0.61433620  1
  In  In68  1  0.83480334  0.33483000  0.10995371  1
  In  In69  1  0.85532412  0.33391574  0.62374778  1
  In  In70  1  0.84448216  0.67602842  0.11511348  1
  In  In71  1  0.83312505  0.66868460  0.63146339  1
  In  In72  1  0.84117572  0.50057629  0.50742389  1
  In  In73  1  0.00261114  -0.00302482  0.26088719  1
  In  In74  1  -0.00665913  0.00199159  0.74684836  1
  In  In75  1  0.66265334  -0.00208286  0.26654462  1
  In  In76  1  0.33793432  -0.00220075  0.75032672  1
  In  In77  1  0.17024766  0.83785937  0.49788309  1
  In  In78  1  0.66209378  0.66610867  0.25244773  1
  In  In79  1  0.49945753  0.83735124  0.00412587  1
  In  In80  1  0.33352690  -0.00472613  0.25477763  1
  In  In81  1  0.66270943  0.32964568  0.25579671  1
  In  In82  1  0.33256968  0.66403163  0.74874088  1
  In  In83  1  0.50014333  0.49594056  -0.00383972  1
  In  In84  1  0.00964943  0.33933444  0.24386469  1
  In  In85  1  0.66902223  0.33267462  0.74733895  1
  Cu  Cu86  1  0.50872064  0.83529225  0.74133881  1
  Cu  Cu87  1  0.66942763  0.66759970  0.50242565  1
  Cu  Cu88  1  0.48867704  0.49891454  0.25751999  1
  Cu  Cu89  1  -0.00266327  0.00533407  0.50354272  1
  Cu  Cu90  1  0.33543110  0.00600462  0.00173297  1
  Cu  Cu91  1  0.32059827  0.66431124  0.00262127  1
  Cu  Cu92  1  0.33033112  0.33245469  0.00016319  1
  Cu  Cu93  1  -0.00202013  0.66223257  -0.00155704  1
  Cu  Cu94  1  0.49471243  0.16653550  0.25371471  1
  Cu  Cu95  1  0.83862434  0.51108271  0.24249777  1
  Cu  Cu96  1  0.66837274  0.33121707  -0.00744307  1
  Cu  Cu97  1  -0.00290931  0.66519772  0.50589250  1
  Cu  Cu98  1  0.66956531  0.00560659  -0.00412675  1
  Cu  Cu99  1  0.83709358  0.50448100  0.75174711  1
  Cu  Cu100  1  -0.00346539  -0.00228928  -0.00440573  1
  Cu  Cu101  1  0.83200812  0.82941204  0.24795563  1
  Cu  Cu102  1  0.00241741  0.33049059  -0.00483983  1
  Cu  Cu103  1  0.83166788  0.83056248  0.75050495  1
  Cu  Cu104  1  0.67453868  0.67407965  -0.00603868  1
  Cu  Cu105  1  0.17024855  0.49811499  0.24841960  1
  Cu  Cu106  1  0.66103071  0.32915927  0.50487813  1
  Cu  Cu107  1  0.16958480  0.17494468  0.75051541  1
  Cu  Cu108  1  0.33086852  0.65643588  0.49973948  1
  Cu  Cu109  1  0.49867981  0.16336682  0.74092931  1
  Cu  Cu110  1  0.84103737  0.17255610  0.24695870  1
  Cu  Cu111  1  0.16414702  0.82406180  0.24947983  1
  Cu  Cu112  1  0.83358757  0.15939743  0.74579289  1
  Cu  Cu113  1  0.32964127  0.33930738  0.50242577  1
  Cu  Cu114  1  0.49796697  0.50353661  0.74351052  1
  Se  Se115  1  0.08123095  0.07936960  0.05090140  1
  Se  Se116  1  0.08747232  0.08768956  0.54958002  1
  Se  Se117  1  0.08332945  0.41256882  0.05243012  1
  Se  Se118  1  0.08244573  0.42581660  0.56731322  1
  Se  Se119  1  0.08140717  0.74557182  0.05456009  1
  Se  Se120  1  0.08199566  0.74898871  0.56149889  1
  Se  Se121  1  0.42077650  0.09030442  0.05154740  1
  Se  Se122  1  0.40766493  0.07530690  0.54894573  1
  Se  Se123  1  0.41119047  0.41360345  0.06180901  1
  Se  Se124  1  0.41546087  0.42384723  0.55334185  1
  Se  Se125  1  0.40981788  0.74052699  0.05993866  1
  Se  Se126  1  0.41619077  0.74661000  0.54388987  1
  Se  Se127  1  0.75324160  0.08886905  0.05061798  1
  Se  Se128  1  0.75382056  0.08924643  0.54803843  1
  Se  Se129  1  0.74809567  0.41896313  0.04498515  1
  Se  Se130  1  0.74432801  0.40945618  0.56382426  1
  Se  Se131  1  0.75571112  0.75757226  0.04862881  1
  Se  Se132  1  0.75403909  0.74646728  0.55766075  1
  Se  Se133  1  0.24849966  0.24775641  0.05435992  1
  Se  Se134  1  0.24916232  0.25746740  0.55984155  1
  Se  Se135  1  0.24286852  0.57612449  0.05531564  1
  Se  Se136  1  0.23938572  0.58303524  0.55213970  1
  Se  Se137  1  0.25364251  0.91461167  0.04913896  1
  Se  Se138  1  0.25332637  0.92499893  0.56328775  1
  Se  Se139  1  0.58282729  0.25536845  0.05039593  1
  Se  Se140  1  0.57536546  0.24731539  0.55670894  1
  Se  Se141  1  0.59036851  0.59470254  0.05382487  1
  Se  Se142  1  0.58569918  0.58090831  0.55140488  1
  Se  Se143  1  0.59155507  0.93021117  0.06280576  1
  Se  Se144  1  0.57185386  0.89578629  0.55393854  1
  Se  Se145  1  0.91606883  0.24597067  0.04663488  1
  Se  Se146  1  0.91369565  0.25252946  0.54488529  1
  Se  Se147  1  0.91180947  0.57776998  0.04977130  1
  Se  Se148  1  0.92977556  0.58219332  0.57188118  1
  Se  Se149  1  0.91489048  0.91551263  0.05244041  1
  Se  Se150  1  0.91982146  0.91467546  0.55344558  1
  Se  Se151  1  0.08150352  0.25718435  0.44998733  1
  Se  Se152  1  0.08872489  0.24755813  0.94379188  1
  Se  Se153  1  0.07699424  0.58535362  0.44655767  1
  Se  Se154  1  0.08278884  0.57820446  0.94702775  1
  Se  Se155  1  0.07597222  0.92786860  0.43772266  1
  Se  Se156  1  0.08189710  0.91384592  0.94464477  1
  Se  Se157  1  0.41704042  0.25239356  0.45359376  1
  Se  Se158  1  0.41754161  0.25195743  0.94761947  1
  Se  Se159  1  0.41656566  0.57679101  0.44468698  1
  Se  Se160  1  0.40550193  0.59001313  0.94115324  1
  Se  Se161  1  0.39223249  0.91879657  0.44831342  1
  Se  Se162  1  0.41244044  0.92525347  0.93812019  1
  Se  Se163  1  0.74671859  0.25200330  0.44877293  1
  Se  Se164  1  0.75229948  0.24718532  0.94028219  1
  Se  Se165  1  0.75047979  0.58748047  0.44064257  1
  Se  Se166  1  0.75176719  0.58278174  0.94420723  1
  Se  Se167  1  0.75592642  0.91072441  0.45657550  1
  Se  Se168  1  0.74976624  0.91819242  0.94402406  1
  Se  Se169  1  0.25173970  0.08746370  0.45778508  1
  Se  Se170  1  0.24746338  0.08568659  0.94921747  1
  Se  Se171  1  0.24563252  0.42133707  0.44740654  1
  Se  Se172  1  0.24802746  0.41610424  0.94653307  1
  Se  Se173  1  0.24964259  0.73775509  0.43786166  1
  Se  Se174  1  0.24150622  0.75014732  0.94853521  1
  Se  Se175  1  0.59028424  0.06852363  0.45731396  1
  Se  Se176  1  0.58343741  0.08723980  0.94408612  1
  Se  Se177  1  0.58167258  0.41817559  0.45384563  1
  Se  Se178  1  0.58905234  0.41099136  0.93059890  1
  Se  Se179  1  0.58164912  0.74233753  0.44575050  1
  Se  Se180  1  0.58480876  0.74955730  0.93778308  1
  Se  Se181  1  0.91645950  0.08755927  0.44660632  1
  Se  Se182  1  0.91768040  0.08507114  0.94173535  1
  Se  Se183  1  0.92349142  0.41228899  0.44020319  1
  Se  Se184  1  0.91729440  0.41517107  0.94417250  1
  Se  Se185  1  0.91444471  0.75013849  0.45373076  1
  Se  Se186  1  0.91773891  0.75088688  0.94649420  1
  Se  Se187  1  0.25606701  0.24369026  0.30571408  1
  Se  Se188  1  0.25261389  0.25673329  0.80515430  1
  Se  Se189  1  0.25110455  0.58400008  0.30256882  1
  Se  Se190  1  0.24483072  0.57919247  0.81217375  1
  Se  Se191  1  0.23847010  0.90532731  0.31325192  1
  Se  Se192  1  0.24364483  0.90878786  0.80742630  1
  Se  Se193  1  0.57565869  0.24149556  0.31799564  1
  Se  Se194  1  0.57770933  0.24238029  0.80621369  1
  Se  Se195  1  0.57803334  0.57299680  0.31449944  1
  Se  Se196  1  0.58154007  0.58856703  0.79417908  1
  Se  Se197  1  0.56592088  0.90689213  0.31574307  1
  Se  Se198  1  0.58876669  0.92144330  0.79528777  1
  Se  Se199  1  0.91825008  0.25087688  0.30812285  1
  Se  Se200  1  0.91741771  0.24294016  0.79816201  1
  Se  Se201  1  0.91974796  0.59150903  0.29842420  1
  Se  Se202  1  0.92015886  0.58496968  0.80779778  1
  Se  Se203  1  0.90552631  0.90823897  0.31475149  1
  Se  Se204  1  0.91433520  0.90865942  0.81230241  1
  Se  Se205  1  0.09658741  0.09464153  0.30685797  1
  Se  Se206  1  0.09187186  0.08657673  0.80716798  1
  Se  Se207  1  0.09267041  0.42104434  0.31302261  1
  Se  Se208  1  0.07321759  0.40746414  0.80177679  1
  Se  Se209  1  0.07519533  0.74560336  0.30154615  1
  Se  Se210  1  0.08527824  0.74391842  0.79758512  1
  Se  Se211  1  0.42243514  0.08398287  0.31673401  1
  Se  Se212  1  0.42144615  0.09266273  0.81159345  1
  Se  Se213  1  0.40958486  0.40902399  0.30677443  1
  Se  Se214  1  0.41571631  0.41855322  0.79523917  1
  Se  Se215  1  0.41293965  0.74230027  0.29622119  1
  Se  Se216  1  0.42611039  0.76182962  0.80541024  1
  Se  Se217  1  0.76016621  0.09668317  0.31067560  1
  Se  Se218  1  0.74901764  0.07657173  0.79667342  1
  Se  Se219  1  0.76198087  0.42784015  0.30297352  1
  Se  Se220  1  0.75618183  0.42077313  0.81112274  1
  Se  Se221  1  0.74938408  0.75816086  0.31325847  1
  Se  Se222  1  0.74918649  0.74680723  0.80510947  1
  Se  Se223  1  0.24676578  0.08060325  0.18944012  1
  Se  Se224  1  0.24720285  0.09048339  0.69226695  1
  Se  Se225  1  0.25107578  0.40943979  0.19784428  1
  Se  Se226  1  0.24984660  0.42457946  0.70170452  1
  Se  Se227  1  0.24939116  0.74559905  0.19457652  1
  Se  Se228  1  0.24830612  0.76304147  0.69207538  1
  Se  Se229  1  0.58313190  0.09167484  0.19638188  1
  Se  Se230  1  0.58301539  0.07929395  0.69126284  1
  Se  Se231  1  0.57329254  0.42417335  0.19539748  1
  Se  Se232  1  0.57957346  0.42126158  0.68549437  1
  Se  Se233  1  0.57554798  0.76154116  0.19329141  1
  Se  Se234  1  0.58881390  0.74522985  0.69268193  1
  Se  Se235  1  0.91710020  0.08516259  0.19173046  1
  Se  Se236  1  0.91511955  0.08998522  0.67864255  1
  Se  Se237  1  0.91087452  0.42250813  0.18444521  1
  Se  Se238  1  0.91757310  0.41433092  0.70360970  1
  Se  Se239  1  0.91668290  0.74952348  0.19462262  1
  Se  Se240  1  0.91899991  0.74919606  0.70070695  1
  Se  Se241  1  0.09327111  0.23769714  0.19128954  1
  Se  Se242  1  0.08077727  0.24977256  0.69544157  1
  Se  Se243  1  0.08239757  0.57944162  0.19615910  1
  Se  Se244  1  0.07735595  0.60863422  0.70887686  1
  Se  Se245  1  0.08721937  0.91106289  0.19215156  1
  Se  Se246  1  0.09155736  0.90956199  0.69615596  1
  Se  Se247  1  0.41375365  0.24876008  0.19882269  1
  Se  Se248  1  0.41126875  0.24928587  0.69664063  1
  Se  Se249  1  0.41217548  0.58411244  0.20066321  1
  Se  Se250  1  0.41969123  0.58301536  0.68100800  1
  Se  Se251  1  0.42616029  0.90755211  0.19335415  1
  Se  Se252  1  0.42660025  0.91577929  0.68450653  1
  Se  Se253  1  0.75631703  0.24926990  0.18894688  1
  Se  Se254  1  0.75690501  0.24452769  0.68533548  1
  Se  Se255  1  0.74915499  0.58263223  0.18426098  1
  Se  Se256  1  0.75034163  0.58755433  0.70285879  1
  Se  Se257  1  0.75280301  0.91752080  0.19480075  1
  Se  Se258  1  0.75492876  0.91605115  0.69344747  1
