# generated using pymatgen
data_In86Cu29Se144
_symmetry_space_group_name_H-M   'P 1'
_cell_length_a   17.57993394
_cell_length_b   17.57825055
_cell_length_c   23.43496031
_cell_angle_alpha   90.00672834
_cell_angle_beta   90.00507303
_cell_angle_gamma   90.02096558
_symmetry_Int_Tables_number   1
_chemical_formula_structural   In86Cu29Se144
_chemical_formula_sum   'In86 Cu29 Se144'
_cell_volume   7241.97594127
_cell_formula_units_Z   1
loop_
 _symmetry_equiv_pos_site_id
 _symmetry_equiv_pos_as_xyz
  1  'x, y, z'
loop_
 _atom_site_type_symbol
 _atom_site_label
 _atom_site_symmetry_multiplicity
 _atom_site_fract_x
 _atom_site_fract_y
 _atom_site_fract_z
 _atom_site_occupancy
  In  In0  1  0.00119773  0.16422960  0.12972268  1
  In  In1  1  0.00343725  0.17017510  0.61658559  1
  In  In2  1  -0.01284920  0.50536413  0.12787329  1
  In  In3  1  -0.00326756  0.49763362  0.61569304  1
  In  In4  1  0.00449232  0.84008378  0.12242039  1
  In  In5  1  -0.00046864  0.83364087  0.61660429  1
  In  In6  1  0.31860123  0.15347472  0.11642969  1
  In  In7  1  0.33836373  0.17632420  0.60785467  1
  In  In8  1  0.33681779  0.50523673  0.12636961  1
  In  In9  1  0.33123403  0.50651096  0.62909042  1
  In  In10  1  0.34130291  0.84558454  0.12163448  1
  In  In11  1  0.32629146  0.82840189  0.61826888  1
  In  In12  1  0.67879983  0.17206218  0.12189008  1
  In  In13  1  0.67022880  0.17135893  0.61801986  1
  In  In14  1  0.67084378  0.47917152  0.13305043  1
  In  In15  1  0.66364754  0.48778233  0.62489205  1
  In  In16  1  0.66685747  0.83509158  0.11943078  1
  In  In17  1  0.67198612  0.83670699  0.61375416  1
  In  In18  1  0.16645991  0.00680041  0.37722063  1
  In  In19  1  0.16358530  0.00415627  0.87935203  1
  In  In20  1  0.16179463  0.33694405  0.38791700  1
  In  In21  1  0.17295348  0.32196405  0.87238853  1
  In  In22  1  0.16568292  0.66333451  0.38231406  1
  In  In23  1  0.17913041  0.67046183  0.87034869  1
  In  In24  1  0.49032874  0.00554387  0.38390284  1
  In  In25  1  0.50103202  -0.00008406  0.88386843  1
  In  In26  1  0.49458856  0.31995400  0.37289596  1
  In  In27  1  0.49270155  0.32506396  0.86702906  1
  In  In28  1  0.50958875  0.68498679  0.37871271  1
  In  In29  1  0.49452988  0.67724661  0.87559934  1
  In  In30  1  0.84647470  -0.01144136  0.37343571  1
  In  In31  1  0.83592606  0.00035016  0.88292157  1
  In  In32  1  0.83247708  0.33167273  0.37385923  1
  In  In33  1  0.82793700  0.33682655  0.88099031  1
  In  In34  1  0.82256501  0.67152972  0.38794745  1
  In  In35  1  0.82867870  0.66865001  0.88041299  1
  In  In36  1  -0.00314286  0.16516231  0.37227628  1
  In  In37  1  0.00599921  0.16214990  0.88260039  1
  In  In38  1  0.00439744  0.49023678  0.38067906  1
  In  In39  1  -0.01146601  0.48953158  0.87889202  1
  In  In40  1  -0.00984050  0.84851429  0.37314851  1
  In  In41  1  -0.00385216  0.84108023  0.88083613  1
  In  In42  1  0.34113712  0.16009479  0.38874263  1
  In  In43  1  0.32690896  0.17560199  0.87972851  1
  In  In44  1  0.32886566  0.47937250  0.38561476  1
  In  In45  1  0.33790526  0.50020874  0.86456545  1
  In  In46  1  0.31447115  0.85885814  0.39700832  1
  In  In47  1  0.33365007  0.83378413  0.87606486  1
  In  In48  1  0.65871017  0.17545798  0.37636938  1
  In  In49  1  0.65942792  0.17220909  0.88010781  1
  In  In50  1  0.67979839  0.50605710  0.37450751  1
  In  In51  1  0.67840741  0.49425980  0.87624785  1
  In  In52  1  0.66558824  0.83099616  0.38490230  1
  In  In53  1  0.66608447  0.83162331  0.88155571  1
  In  In54  1  0.16547789  0.00163604  0.12779542  1
  In  In55  1  0.17986579  0.00511426  0.60627932  1
  In  In56  1  0.16919214  0.31400347  0.12736589  1
  In  In57  1  0.17392813  0.33653344  0.61553385  1
  In  In58  1  0.14994224  0.67361137  0.12586526  1
  In  In59  1  0.17714816  0.67790844  0.61778293  1
  In  In60  1  0.49148373  -0.00694325  0.12185819  1
  In  In61  1  0.48749945  0.00438963  0.60725384  1
  In  In62  1  0.51804788  0.32649785  0.13346501  1
  In  In63  1  0.50783256  0.32902259  0.62801676  1
  In  In64  1  0.49262681  0.67358014  0.12491834  1
  In  In65  1  0.49182855  0.66116541  0.62630928  1
  In  In66  1  0.83923579  0.00304811  0.12468043  1
  In  In67  1  0.83174432  0.00012554  0.61540088  1
  In  In68  1  0.83631323  0.33132310  0.12910008  1
  In  In69  1  0.82599175  0.32560683  0.61833030  1
  In  In70  1  0.83692192  0.66856290  0.11742002  1
  In  In71  1  0.83527400  0.67371064  0.61373026  1
  In  In72  1  0.50600681  0.50496800  0.49994579  1
  In  In73  1  0.00471111  0.33190588  0.75013175  1
  In  In74  1  0.00320341  0.66865611  0.73990976  1
  In  In75  1  0.50388139  0.49897789  0.00714859  1
  In  In76  1  0.00468325  0.00226287  0.75470435  1
  In  In77  1  0.66353508  0.66230715  0.75493704  1
  In  In78  1  -0.00219232  0.66722987  0.25480112  1
  In  In79  1  0.33206607  0.32270055  0.25967686  1
  In  In80  1  0.66995416  0.66801338  0.25945158  1
  In  In81  1  0.33740477  0.66710975  0.24903040  1
  In  In82  1  0.33335827  0.00770719  0.73798431  1
  In  In83  1  0.66575726  0.00501364  0.74157941  1
  In  In84  1  0.67116038  0.00445592  0.24776613  1
  In  In85  1  0.16018272  0.49940728  -0.00344048  1
  Cu  Cu86  1  0.83500534  0.17119900  0.24859204  1
  Cu  Cu87  1  0.49481767  0.16972576  0.74873190  1
  Cu  Cu88  1  0.16856132  0.83629279  0.74201433  1
  Cu  Cu89  1  0.67117292  0.32866585  0.00370622  1
  Cu  Cu90  1  0.66891324  0.01003821  0.49364075  1
  Cu  Cu91  1  0.32911308  0.67688111  -0.00045864  1
  Cu  Cu92  1  0.33866568  0.32461856  -0.00171882  1
  Cu  Cu93  1  -0.00339758  0.67296153  -0.00016789  1
  Cu  Cu94  1  0.66783528  0.66583153  -0.00063889  1
  Cu  Cu95  1  0.16862126  0.48730992  0.25959463  1
  Cu  Cu96  1  0.49817998  0.49321321  0.74556497  1
  Cu  Cu97  1  0.17136897  0.84343203  0.25217977  1
  Cu  Cu98  1  0.49794104  0.82937663  0.75201312  1
  Cu  Cu99  1  -0.00861433  0.32615260  0.49673369  1
  Cu  Cu100  1  0.83112000  0.17044122  0.74650063  1
  Cu  Cu101  1  0.33152037  -0.00170769  -0.00076880  1
  Cu  Cu102  1  0.66836283  0.33194934  0.49936024  1
  Cu  Cu103  1  0.66656119  0.00056496  0.00456377  1
  Cu  Cu104  1  0.00312610  0.66289167  0.49758632  1
  Cu  Cu105  1  0.17573507  0.49790602  0.74509969  1
  Cu  Cu106  1  0.00151423  0.00253119  0.00524639  1
  Cu  Cu107  1  -0.00330701  0.32885176  0.00439401  1
  Cu  Cu108  1  0.49462328  0.84221398  0.25340461  1
  Cu  Cu109  1  0.49452991  0.16131403  0.25278097  1
  Cu  Cu110  1  -0.00090907  -0.00039680  0.49482266  1
  Cu  Cu111  1  0.82857930  0.49636183  0.75238670  1
  Cu  Cu112  1  0.16198035  0.16039936  0.25202314  1
  Cu  Cu113  1  0.33551689  0.66578467  0.50258356  1
  Cu  Cu114  1  0.83535376  0.49426056  0.25284492  1
  Se  Se115  1  0.08551813  0.08659398  0.05774349  1
  Se  Se116  1  0.08145606  0.08358134  0.54828170  1
  Se  Se117  1  0.07855318  0.41135559  0.06376924  1
  Se  Se118  1  0.07556968  0.40910132  0.55120499  1
  Se  Se119  1  0.08322871  0.75506106  0.05018573  1
  Se  Se120  1  0.08393717  0.74975262  0.55119641  1
  Se  Se121  1  0.41608132  0.08187728  0.05230859  1
  Se  Se122  1  0.39454850  0.07229324  0.54006792  1
  Se  Se123  1  0.41187447  0.40438408  0.06353988  1
  Se  Se124  1  0.41911738  0.41829020  0.56276327  1
  Se  Se125  1  0.41725093  0.75447011  0.05321727  1
  Se  Se126  1  0.42008454  0.74794616  0.55524009  1
  Se  Se127  1  0.75422389  0.08230290  0.05497814  1
  Se  Se128  1  0.75337878  0.08922421  0.54994312  1
  Se  Se129  1  0.75336521  0.41375494  0.05686590  1
  Se  Se130  1  0.75004263  0.41786488  0.55194506  1
  Se  Se131  1  0.75029726  0.75130284  0.05244224  1
  Se  Se132  1  0.75510637  0.75667942  0.54680195  1
  Se  Se133  1  0.24640009  0.24716684  0.04816826  1
  Se  Se134  1  0.24110395  0.24744373  0.54352464  1
  Se  Se135  1  0.25071006  0.59265377  0.05892826  1
  Se  Se136  1  0.25116960  0.58131012  0.55403023  1
  Se  Se137  1  0.24728788  0.91853561  0.05625284  1
  Se  Se138  1  0.25116456  0.90767202  0.54492600  1
  Se  Se139  1  0.58434511  0.24706178  0.05512978  1
  Se  Se140  1  0.58087772  0.25022166  0.55115095  1
  Se  Se141  1  0.59489254  0.58869117  0.06734190  1
  Se  Se142  1  0.59554271  0.59299182  0.56195708  1
  Se  Se143  1  0.57991794  0.91543666  0.05357712  1
  Se  Se144  1  0.58916457  0.92706863  0.55179496  1
  Se  Se145  1  0.91604439  0.24588079  0.06002039  1
  Se  Se146  1  0.90897674  0.24264113  0.55101842  1
  Se  Se147  1  0.91747750  0.58218891  0.04974985  1
  Se  Se148  1  0.91524387  0.58323810  0.54996000  1
  Se  Se149  1  0.91581449  0.91647923  0.05386775  1
  Se  Se150  1  0.91584146  0.91625167  0.54942435  1
  Se  Se151  1  0.07805499  0.24289124  0.44633491  1
  Se  Se152  1  0.08393145  0.25634340  0.94578437  1
  Se  Se153  1  0.08663612  0.57528488  0.44828961  1
  Se  Se154  1  0.07359064  0.59386416  0.93498331  1
  Se  Se155  1  0.08367873  0.91583416  0.44249431  1
  Se  Se156  1  0.08315582  0.91998167  0.94743184  1
  Se  Se157  1  0.40278023  0.26845374  0.44787790  1
  Se  Se158  1  0.42561341  0.24508772  0.94575352  1
  Se  Se159  1  0.41190076  0.59002885  0.43684459  1
  Se  Se160  1  0.40845986  0.58630207  0.94567502  1
  Se  Se161  1  0.44375096  0.88979251  0.44216969  1
  Se  Se162  1  0.41554168  0.91359673  0.94659231  1
  Se  Se163  1  0.75065144  0.24834047  0.44451146  1
  Se  Se164  1  0.75265617  0.24513056  0.94765997  1
  Se  Se165  1  0.74500953  0.58324234  0.45284601  1
  Se  Se166  1  0.75049874  0.58019506  0.94770493  1
  Se  Se167  1  0.75148070  0.92242167  0.44354620  1
  Se  Se168  1  0.74803387  0.91764781  0.94737124  1
  Se  Se169  1  0.26000920  0.06909745  0.45100597  1
  Se  Se170  1  0.25040377  0.08420590  0.94568390  1
  Se  Se171  1  0.24771933  0.41090648  0.45930813  1
  Se  Se172  1  0.26173141  0.41511688  0.94249462  1
  Se  Se173  1  0.24836416  0.74666201  0.44978691  1
  Se  Se174  1  0.24407471  0.75645509  0.94541189  1
  Se  Se175  1  0.57850629  0.09162403  0.44584382  1
  Se  Se176  1  0.58438960  0.08386479  0.94948772  1
  Se  Se177  1  0.58857211  0.41048203  0.43707582  1
  Se  Se178  1  0.58755978  0.40846245  0.94291483  1
  Se  Se179  1  0.59307002  0.74434331  0.45570819  1
  Se  Se180  1  0.58142429  0.74708308  0.94747230  1
  Se  Se181  1  0.91372594  0.08269702  0.44266260  1
  Se  Se182  1  0.91800127  0.08523807  0.94963769  1
  Se  Se183  1  0.91074660  0.41564748  0.44608108  1
  Se  Se184  1  0.91226820  0.41436306  0.95327953  1
  Se  Se185  1  0.92563940  0.74919236  0.44156849  1
  Se  Se186  1  0.91224598  0.75448211  0.94543298  1
  Se  Se187  1  0.23907361  0.23711294  0.31809131  1
  Se  Se188  1  0.26144779  0.25579481  0.80172244  1
  Se  Se189  1  0.24994510  0.57384948  0.31186907  1
  Se  Se190  1  0.25321800  0.58583299  0.79967660  1
  Se  Se191  1  0.25368747  0.92272033  0.30868984  1
  Se  Se192  1  0.24493993  0.91898362  0.80411753  1
  Se  Se193  1  0.57971566  0.24821747  0.29924665  1
  Se  Se194  1  0.58486884  0.24633178  0.80193057  1
  Se  Se195  1  0.57328934  0.57946419  0.31254227  1
  Se  Se196  1  0.57192326  0.57088465  0.81447688  1
  Se  Se197  1  0.58312910  0.91644703  0.31110374  1
  Se  Se198  1  0.57891049  0.91334248  0.80717426  1
  Se  Se199  1  0.91841364  0.25369496  0.30353468  1
  Se  Se200  1  0.91345306  0.24304770  0.81088546  1
  Se  Se201  1  0.90782153  0.57867325  0.31554386  1
  Se  Se202  1  0.91217316  0.58015832  0.80605427  1
  Se  Se203  1  0.91893076  0.91890044  0.29321541  1
  Se  Se204  1  0.90671036  0.91213135  0.80572061  1
  Se  Se205  1  0.07776258  0.07719883  0.30459250  1
  Se  Se206  1  0.09740013  0.09878099  0.80461082  1
  Se  Se207  1  0.08211564  0.40651866  0.30907366  1
  Se  Se208  1  0.09281301  0.42821213  0.81019152  1
  Se  Se209  1  0.09426815  0.75636659  0.30973088  1
  Se  Se210  1  0.08661359  0.76090215  0.80550711  1
  Se  Se211  1  0.41213729  0.08275737  0.30924648  1
  Se  Se212  1  0.42176812  0.08463518  0.80925538  1
  Se  Se213  1  0.42177061  0.42392267  0.30775165  1
  Se  Se214  1  0.41335726  0.41006269  0.79843850  1
  Se  Se215  1  0.41419856  0.76169416  0.31303811  1
  Se  Se216  1  0.41018387  0.74979340  0.80305787  1
  Se  Se217  1  0.75688767  0.09208159  0.31188628  1
  Se  Se218  1  0.75511456  0.08785656  0.80865501  1
  Se  Se219  1  0.74712455  0.41431497  0.30403355  1
  Se  Se220  1  0.74864366  0.40833813  0.80301894  1
  Se  Se221  1  0.76146667  0.76407174  0.30967821  1
  Se  Se222  1  0.75540335  0.75832441  0.80657482  1
  Se  Se223  1  0.25040005  0.08236142  0.19853656  1
  Se  Se224  1  0.24273540  0.09672771  0.68206114  1
  Se  Se225  1  0.24831194  0.41762687  0.19193803  1
  Se  Se226  1  0.25300665  0.41080689  0.69179285  1
  Se  Se227  1  0.24335316  0.75643489  0.19038447  1
  Se  Se228  1  0.25450158  0.74918970  0.69610970  1
  Se  Se229  1  0.57639562  0.08894323  0.18767847  1
  Se  Se230  1  0.56859055  0.08899358  0.68396663  1
  Se  Se231  1  0.57953261  0.41826921  0.20434980  1
  Se  Se232  1  0.58823996  0.41104909  0.70001146  1
  Se  Se233  1  0.57649346  0.75899338  0.19652757  1
  Se  Se234  1  0.58249601  0.75605851  0.69020010  1
  Se  Se235  1  0.91622778  0.08251811  0.19867948  1
  Se  Se236  1  0.91248076  0.08855397  0.69001098  1
  Se  Se237  1  0.92091278  0.41483713  0.19874764  1
  Se  Se238  1  0.91087187  0.41964457  0.69116012  1
  Se  Se239  1  0.91274812  0.75449814  0.19071822  1
  Se  Se240  1  0.90762474  0.76110050  0.69076752  1
  Se  Se241  1  0.08208746  0.24923796  0.20104742  1
  Se  Se242  1  0.09193138  0.24529478  0.68869747  1
  Se  Se243  1  0.09218551  0.57180748  0.19833131  1
  Se  Se244  1  0.09326885  0.57457733  0.68509645  1
  Se  Se245  1  0.08230048  0.91784031  0.19682544  1
  Se  Se246  1  0.09049140  0.91925189  0.68436926  1
  Se  Se247  1  0.41409319  0.23930147  0.18819192  1
  Se  Se248  1  0.41369984  0.24629852  0.68856465  1
  Se  Se249  1  0.43287994  0.57239463  0.19636613  1
  Se  Se250  1  0.41583105  0.58455354  0.70088476  1
  Se  Se251  1  0.41085373  0.92391434  0.19998138  1
  Se  Se252  1  0.42559675  0.91019384  0.68682716  1
  Se  Se253  1  0.74722764  0.25356038  0.19862642  1
  Se  Se254  1  0.74591685  0.25085173  0.69384955  1
  Se  Se255  1  0.75896010  0.58062920  0.19311182  1
  Se  Se256  1  0.75586888  0.58039190  0.68963102  1
  Se  Se257  1  0.75636305  0.90778950  0.19149980  1
  Se  Se258  1  0.75846163  0.91094911  0.69057800  1
