# generated using pymatgen
data_In86Cu29Se144
_symmetry_space_group_name_H-M   'P 1'
_cell_length_a   17.55771179
_cell_length_b   17.55554904
_cell_length_c   23.41020507
_cell_angle_alpha   89.99508910
_cell_angle_beta   89.99032345
_cell_angle_gamma   90.00411250
_symmetry_Int_Tables_number   1
_chemical_formula_structural   In86Cu29Se144
_chemical_formula_sum   'In86 Cu29 Se144'
_cell_volume   7215.85074115
_cell_formula_units_Z   1
loop_
 _symmetry_equiv_pos_site_id
 _symmetry_equiv_pos_as_xyz
  1  'x, y, z'
loop_
 _atom_site_type_symbol
 _atom_site_label
 _atom_site_symmetry_multiplicity
 _atom_site_fract_x
 _atom_site_fract_y
 _atom_site_fract_z
 _atom_site_occupancy
  In  In0  1  -0.00723586  0.17248035  0.12156765  1
  In  In1  1  -0.00152828  0.16344940  0.62763369  1
  In  In2  1  -0.02567917  0.48664473  0.11106488  1
  In  In3  1  -0.00277171  0.51429700  0.62680301  1
  In  In4  1  0.01963372  0.84188069  0.12471562  1
  In  In5  1  -0.00931620  0.82076436  0.62148943  1
  In  In6  1  0.33655291  0.16827302  0.11863341  1
  In  In7  1  0.36006900  0.13941637  0.65570043  1
  In  In8  1  0.33275673  0.46185387  0.11429869  1
  In  In9  1  0.32863805  0.48923293  0.63154730  1
  In  In10  1  0.34081645  0.85542745  0.12216001  1
  In  In11  1  0.34667108  0.84620755  0.61851021  1
  In  In12  1  0.66608339  0.16797839  0.12070090  1
  In  In13  1  0.64399031  0.17597656  0.64081930  1
  In  In14  1  0.66710015  0.49462610  0.12374481  1
  In  In15  1  0.67104873  0.49449904  0.62847977  1
  In  In16  1  0.66051434  0.83554376  0.13410942  1
  In  In17  1  0.65181276  0.84207710  0.64310873  1
  In  In18  1  0.16766369  0.00179572  0.36699451  1
  In  In19  1  0.18522928  0.01265706  0.86569393  1
  In  In20  1  0.16336328  0.32202937  0.35616790  1
  In  In21  1  0.16898005  0.31888477  0.88929072  1
  In  In22  1  0.17989346  0.66969156  0.37959660  1
  In  In23  1  0.17164704  0.68737169  0.86243092  1
  In  In24  1  0.50401326  0.00269590  0.37700443  1
  In  In25  1  0.51967707  0.03029831  0.84449998  1
  In  In26  1  0.49165129  0.32077681  0.36473428  1
  In  In27  1  0.50170730  0.32251033  0.87399146  1
  In  In28  1  0.52254167  0.67106698  0.37976787  1
  In  In29  1  0.50656215  0.65694237  0.87262044  1
  In  In30  1  0.83784321  0.00371432  0.36509025  1
  In  In31  1  0.82948240  0.01150794  0.88148045  1
  In  In32  1  0.83430757  0.33973532  0.36990888  1
  In  In33  1  0.83016961  0.34475289  0.89386676  1
  In  In34  1  0.80862297  0.65972934  0.37763972  1
  In  In35  1  0.82302613  0.65446633  0.86649582  1
  In  In36  1  0.00228332  0.16668525  0.35717301  1
  In  In37  1  -0.00862568  0.18474983  0.90072015  1
  In  In38  1  -0.00543482  0.48334860  0.37144394  1
  In  In39  1  -0.01978221  0.49723454  0.88176049  1
  In  In40  1  0.00313624  0.84685342  0.37324994  1
  In  In41  1  0.02269238  0.83031941  0.86399573  1
  In  In42  1  0.34406146  0.17457625  0.36393608  1
  In  In43  1  0.33520189  0.16794482  0.88042467  1
  In  In44  1  0.33724337  0.48725515  0.37152118  1
  In  In45  1  0.35803678  0.49556960  0.88276449  1
  In  In46  1  0.32849985  0.84608969  0.38771302  1
  In  In47  1  0.33452667  0.86169405  0.86011624  1
  In  In48  1  0.65424469  0.15784671  0.36708590  1
  In  In49  1  0.66359633  0.17480899  0.87482765  1
  In  In50  1  0.66980660  0.50899826  0.37077820  1
  In  In51  1  0.67144362  0.49301620  0.87432525  1
  In  In52  1  0.66481928  0.82859938  0.37436911  1
  In  In53  1  0.65698332  0.83681707  0.85957630  1
  In  In54  1  0.14658230  0.04132443  0.15710850  1
  In  In55  1  0.18476493  -0.00027502  0.62375974  1
  In  In56  1  0.18781363  0.30005022  0.14198298  1
  In  In57  1  0.18010662  0.33820511  0.62691629  1
  In  In58  1  0.16561423  0.66905407  0.12509436  1
  In  In59  1  0.15359408  0.66757673  0.62578745  1
  In  In60  1  0.48660541  0.01632353  0.13411488  1
  In  In61  1  0.50064923  -0.00452613  0.63366792  1
  In  In62  1  0.49983054  0.33385451  0.11756250  1
  In  In63  1  0.50235117  0.32574349  0.63420521  1
  In  In64  1  0.51619992  0.66309959  0.12714464  1
  In  In65  1  0.50371000  0.68089087  0.62711344  1
  In  In66  1  0.81717943  0.01254091  0.13111999  1
  In  In67  1  0.82547112  -0.01474655  0.62204357  1
  In  In68  1  0.83155136  0.33134660  0.12164421  1
  In  In69  1  0.81287642  0.33198428  0.62426125  1
  In  In70  1  0.82973601  0.64915481  0.12230580  1
  In  In71  1  0.83636261  0.66223207  0.62769806  1
  In  In72  1  0.15944836  0.49657311  0.00112289  1
  In  In73  1  0.33677190  0.66681064  0.74576910  1
  In  In74  1  0.34232601  0.66204051  0.25292722  1
  In  In75  1  0.17277948  0.84368170  -0.00962064  1
  In  In76  1  -0.00300828  0.00148143  0.75177224  1
  In  In77  1  0.83608745  0.83629900  -0.00218071  1
  In  In78  1  0.82463335  0.16601102  0.49318039  1
  In  In79  1  0.82592788  0.82852131  0.49685803  1
  In  In80  1  0.16710743  0.50159311  0.49969805  1
  In  In81  1  0.17792054  0.17298759  0.48932547  1
  In  In82  1  0.49910874  0.50458395  0.49773747  1
  In  In83  1  0.00041878  0.33450014  0.76556444  1
  In  In84  1  -0.00804131  0.67155203  0.24475794  1
  In  In85  1  0.49798529  0.83700215  -0.00865138  1
  Cu  Cu86  1  -0.00459348  0.66878683  0.50141563  1
  Cu  Cu87  1  0.50540021  0.83415998  0.25547131  1
  Cu  Cu88  1  0.34698856  0.00113387  0.50528072  1
  Cu  Cu89  1  0.81708665  0.16607757  0.75688431  1
  Cu  Cu90  1  0.83402707  0.82988281  0.74755948  1
  Cu  Cu91  1  0.65433869  0.00554433  -0.00120336  1
  Cu  Cu92  1  0.50907204  0.49265048  0.75568957  1
  Cu  Cu93  1  0.50767860  0.16729399  0.24295662  1
  Cu  Cu94  1  0.65691422  0.33660690  0.50271553  1
  Cu  Cu95  1  0.83428052  0.83589965  0.25255630  1
  Cu  Cu96  1  0.49803157  0.49364930  0.24706732  1
  Cu  Cu97  1  0.33469883  0.32078899  0.49892407  1
  Cu  Cu98  1  -0.00527874  0.66402430  -0.01148051  1
  Cu  Cu99  1  0.32741078  0.01216014  0.00176605  1
  Cu  Cu100  1  0.67414350  0.65464937  -0.00048936  1
  Cu  Cu101  1  0.00352732  0.00919910  0.00883172  1
  Cu  Cu102  1  0.16355495  0.16839627  0.75963729  1
  Cu  Cu103  1  0.83111770  0.17102597  0.24364418  1
  Cu  Cu104  1  0.83641839  0.49336896  0.75199359  1
  Cu  Cu105  1  0.66035571  0.00404610  0.50465738  1
  Cu  Cu106  1  0.17517309  0.83902727  0.25288812  1
  Cu  Cu107  1  0.82457518  0.49792282  0.24500289  1
  Cu  Cu108  1  0.15887977  0.49128975  0.24128995  1
  Cu  Cu109  1  0.01569432  0.00076171  0.49232605  1
  Cu  Cu110  1  0.33700891  0.67668973  0.50123833  1
  Cu  Cu111  1  -0.01083688  0.33991163  0.49518428  1
  Cu  Cu112  1  0.33823123  0.66361357  -0.00101158  1
  Cu  Cu113  1  0.66517709  0.33135703  0.00083551  1
  Cu  Cu114  1  0.17195844  0.49802930  0.75477599  1
  Se  Se115  1  0.09020877  0.08809097  0.06154126  1
  Se  Se116  1  0.08590017  0.08585466  0.55493934  1
  Se  Se117  1  0.09270615  0.41020546  0.07648003  1
  Se  Se118  1  0.07621457  0.40873945  0.55974194  1
  Se  Se119  1  0.07904936  0.74397221  0.04779494  1
  Se  Se120  1  0.08207097  0.75110162  0.55064860  1
  Se  Se121  1  0.42434931  0.08704189  0.04932775  1
  Se  Se122  1  0.42100334  0.08571069  0.56444476  1
  Se  Se123  1  0.43649977  0.42708568  0.04379882  1
  Se  Se124  1  0.40998139  0.41053842  0.55626700  1
  Se  Se125  1  0.41427489  0.74868616  0.06116761  1
  Se  Se126  1  0.42508624  0.75578878  0.55220554  1
  Se  Se127  1  0.74705427  0.08208810  0.04950705  1
  Se  Se128  1  0.74170059  0.08371018  0.56435158  1
  Se  Se129  1  0.75017597  0.41677539  0.05200043  1
  Se  Se130  1  0.74680626  0.41833702  0.54991213  1
  Se  Se131  1  0.74341240  0.74738598  0.05925640  1
  Se  Se132  1  0.74348239  0.75506482  0.57028756  1
  Se  Se133  1  0.25725331  0.25634505  0.05136794  1
  Se  Se134  1  0.26220193  0.24324728  0.56581995  1
  Se  Se135  1  0.25798242  0.58675510  0.06112275  1
  Se  Se136  1  0.26107618  0.58982290  0.56072531  1
  Se  Se137  1  0.24407808  0.93329401  0.06106447  1
  Se  Se138  1  0.25335959  0.91796830  0.54830583  1
  Se  Se139  1  0.58085688  0.24516033  0.05013333  1
  Se  Se140  1  0.57911534  0.25046031  0.55742437  1
  Se  Se141  1  0.58494102  0.57886403  0.05292701  1
  Se  Se142  1  0.58752312  0.58758117  0.56190401  1
  Se  Se143  1  0.58068459  0.92247777  0.06144742  1
  Se  Se144  1  0.58553670  0.91782502  0.56155260  1
  Se  Se145  1  0.90706433  0.24545890  0.05107790  1
  Se  Se146  1  0.91833863  0.25234176  0.55675720  1
  Se  Se147  1  0.91080668  0.58444531  0.04276080  1
  Se  Se148  1  0.91344559  0.58285655  0.55189129  1
  Se  Se149  1  0.92279573  0.92392721  0.06385727  1
  Se  Se150  1  0.92545642  0.92355202  0.54903829  1
  Se  Se151  1  0.07234706  0.25862878  0.43699726  1
  Se  Se152  1  0.08322666  0.25771007  0.96539894  1
  Se  Se153  1  0.07441890  0.58813512  0.43695587  1
  Se  Se154  1  0.08663697  0.59365562  0.93110101  1
  Se  Se155  1  0.09701007  0.91473553  0.44187461  1
  Se  Se156  1  0.07427818  0.93341553  0.93756746  1
  Se  Se157  1  0.42122805  0.24366094  0.44403092  1
  Se  Se158  1  0.41900805  0.24807813  0.94796453  1
  Se  Se159  1  0.40557391  0.59253842  0.43627933  1
  Se  Se160  1  0.43081665  0.58593010  0.95160279  1
  Se  Se161  1  0.42848913  0.91641819  0.44966495  1
  Se  Se162  1  0.40862390  0.93402061  0.94016208  1
  Se  Se163  1  0.73541962  0.25822149  0.43675972  1
  Se  Se164  1  0.74904033  0.24546979  0.94915709  1
  Se  Se165  1  0.73593893  0.58276343  0.45229269  1
  Se  Se166  1  0.75800931  0.57362688  0.94521642  1
  Se  Se167  1  0.74676436  0.93314564  0.44109693  1
  Se  Se168  1  0.73294488  0.91861044  0.94140759  1
  Se  Se169  1  0.26800127  0.07605727  0.43743422  1
  Se  Se170  1  0.23930454  0.09159046  0.94856823  1
  Se  Se171  1  0.25034842  0.40122424  0.44065907  1
  Se  Se172  1  0.26093890  0.41508929  0.94581449  1
  Se  Se173  1  0.24593869  0.75631717  0.45273884  1
  Se  Se174  1  0.26916566  0.75014314  0.93646223  1
  Se  Se175  1  0.58187393  0.08962129  0.44896827  1
  Se  Se176  1  0.57558715  0.08484428  0.93793719  1
  Se  Se177  1  0.57977828  0.41013879  0.43479264  1
  Se  Se178  1  0.58565093  0.41126100  0.94054671  1
  Se  Se179  1  0.59593551  0.75150654  0.45233456  1
  Se  Se180  1  0.59781224  0.74313692  0.94155513  1
  Se  Se181  1  0.92952834  0.08185559  0.43806365  1
  Se  Se182  1  0.91137379  0.08341713  0.95566584  1
  Se  Se183  1  0.90375094  0.42352782  0.44691285  1
  Se  Se184  1  0.94001932  0.39885863  0.95598178  1
  Se  Se185  1  0.91960416  0.74414481  0.43280919  1
  Se  Se186  1  0.92119754  0.75130717  0.92973747  1
  Se  Se187  1  0.25344477  0.24403373  0.29451818  1
  Se  Se188  1  0.24839004  0.25170260  0.81108050  1
  Se  Se189  1  0.23864289  0.57047524  0.30463673  1
  Se  Se190  1  0.25593952  0.57622525  0.81494158  1
  Se  Se191  1  0.26150509  0.91869559  0.30591707  1
  Se  Se192  1  0.20687805  0.88896696  0.80895329  1
  Se  Se193  1  0.58851863  0.25313990  0.29739727  1
  Se  Se194  1  0.57325984  0.23714183  0.80064944  1
  Se  Se195  1  0.57637914  0.58149874  0.30172880  1
  Se  Se196  1  0.59273000  0.57986256  0.80391600  1
  Se  Se197  1  0.58936978  0.91945878  0.30818864  1
  Se  Se198  1  0.56673017  0.90899010  0.79337319  1
  Se  Se199  1  0.91235929  0.25447542  0.29979859  1
  Se  Se200  1  0.90506371  0.24141643  0.81625847  1
  Se  Se201  1  0.90599273  0.57893939  0.30768225  1
  Se  Se202  1  0.92003208  0.57954135  0.80212404  1
  Se  Se203  1  0.92320180  0.92019006  0.29875835  1
  Se  Se204  1  0.90879568  0.91024720  0.81389004  1
  Se  Se205  1  0.09941590  0.09252423  0.29723198  1
  Se  Se206  1  0.07268942  0.09792434  0.81829926  1
  Se  Se207  1  0.07477882  0.41129835  0.29667260  1
  Se  Se208  1  0.09368028  0.42473475  0.82184863  1
  Se  Se209  1  0.09339426  0.75168552  0.30662151  1
  Se  Se210  1  0.07948046  0.74189586  0.78754186  1
  Se  Se211  1  0.42835957  0.08427813  0.30234867  1
  Se  Se212  1  0.38217506  0.05924654  0.81214017  1
  Se  Se213  1  0.41149102  0.40928209  0.29714750  1
  Se  Se214  1  0.42027727  0.41302476  0.80511822  1
  Se  Se215  1  0.42250094  0.75529311  0.31723263  1
  Se  Se216  1  0.42092478  0.75448143  0.81140963  1
  Se  Se217  1  0.75144573  0.08701396  0.30149363  1
  Se  Se218  1  0.74063370  0.07646845  0.80908609  1
  Se  Se219  1  0.74320624  0.41680257  0.30323288  1
  Se  Se220  1  0.75895072  0.40767874  0.80871983  1
  Se  Se221  1  0.75043093  0.75065192  0.30277164  1
  Se  Se222  1  0.74821123  0.74830918  0.80169040  1
  Se  Se223  1  0.28452951  0.06005714  0.18631883  1
  Se  Se224  1  0.24168206  0.07922357  0.70639691  1
  Se  Se225  1  0.25441014  0.41072105  0.19919169  1
  Se  Se226  1  0.25356075  0.41036457  0.70639041  1
  Se  Se227  1  0.25247882  0.75748908  0.19139485  1
  Se  Se228  1  0.25101844  0.75426199  0.68235103  1
  Se  Se229  1  0.59315956  0.08010415  0.19421105  1
  Se  Se230  1  0.57764563  0.08023938  0.70651698  1
  Se  Se231  1  0.58289270  0.41247175  0.19181435  1
  Se  Se232  1  0.58971446  0.41122795  0.69713087  1
  Se  Se233  1  0.58476421  0.74634439  0.20295799  1
  Se  Se234  1  0.58496861  0.74076767  0.70586107  1
  Se  Se235  1  0.91554058  0.08366749  0.19386944  1
  Se  Se236  1  0.89950805  0.09028537  0.69361180  1
  Se  Se237  1  0.91133779  0.41552973  0.19493241  1
  Se  Se238  1  0.91582542  0.41273700  0.68979645  1
  Se  Se239  1  0.90718647  0.76187828  0.18052775  1
  Se  Se240  1  0.91833834  0.74484078  0.69833000  1
  Se  Se241  1  0.07974184  0.23821304  0.19814643  1
  Se  Se242  1  0.08805064  0.24821037  0.69516699  1
  Se  Se243  1  0.07908253  0.57678998  0.18558568  1
  Se  Se244  1  0.08809535  0.57788681  0.69976216  1
  Se  Se245  1  0.08425773  0.92008106  0.20371494  1
  Se  Se246  1  0.07916337  0.91839899  0.68146493  1
  Se  Se247  1  0.42221030  0.24880980  0.18922028  1
  Se  Se248  1  0.39701340  0.26811920  0.69806444  1
  Se  Se249  1  0.41702663  0.57156569  0.18335879  1
  Se  Se250  1  0.42995162  0.57104711  0.69009949  1
  Se  Se251  1  0.42178742  0.91615425  0.20186693  1
  Se  Se252  1  0.40400266  0.92351227  0.70007145  1
  Se  Se253  1  0.74573125  0.25248546  0.19111790  1
  Se  Se254  1  0.74273982  0.25374416  0.70068881  1
  Se  Se255  1  0.74168280  0.58513997  0.19582414  1
  Se  Se256  1  0.75544272  0.57733238  0.69636722  1
  Se  Se257  1  0.74744397  0.91793126  0.19900081  1
  Se  Se258  1  0.75088714  0.92098998  0.70274994  1
