# generated using pymatgen
data_In86Cu29Se144
_symmetry_space_group_name_H-M   'P 1'
_cell_length_a   17.57867680
_cell_length_b   17.57771821
_cell_length_c   23.43514046
_cell_angle_alpha   90.00297941
_cell_angle_beta   90.01540808
_cell_angle_gamma   90.01746429
_symmetry_Int_Tables_number   1
_chemical_formula_structural   In86Cu29Se144
_chemical_formula_sum   'In86 Cu29 Se144'
_cell_volume   7241.29438673
_cell_formula_units_Z   1
loop_
 _symmetry_equiv_pos_site_id
 _symmetry_equiv_pos_as_xyz
  1  'x, y, z'
loop_
 _atom_site_type_symbol
 _atom_site_label
 _atom_site_symmetry_multiplicity
 _atom_site_fract_x
 _atom_site_fract_y
 _atom_site_fract_z
 _atom_site_occupancy
  In  In0  1  -0.01368742  0.17014714  0.12634098  1
  In  In1  1  -0.00874666  0.17561896  0.63227456  1
  In  In2  1  0.00209490  0.50685301  0.12200778  1
  In  In3  1  0.01331750  0.49619524  0.63205879  1
  In  In4  1  0.00504875  0.82783371  0.13492782  1
  In  In5  1  -0.00099827  0.83334594  0.62606016  1
  In  In6  1  0.33558539  0.15679849  0.11701004  1
  In  In7  1  0.33875772  0.15006683  0.63265101  1
  In  In8  1  0.33837155  0.50889935  0.12698145  1
  In  In9  1  0.34087180  0.50704265  0.62276071  1
  In  In10  1  0.32946868  0.82345859  0.12130387  1
  In  In11  1  0.33343339  0.83073413  0.62281832  1
  In  In12  1  0.67256616  0.16853626  0.11015562  1
  In  In13  1  0.66417185  0.16429106  0.63262287  1
  In  In14  1  0.66817626  0.48774815  0.11976631  1
  In  In15  1  0.65672652  0.51123906  0.63525891  1
  In  In16  1  0.66306718  0.84591606  0.11921685  1
  In  In17  1  0.66576162  0.83451899  0.62538375  1
  In  In18  1  0.14603508  0.00295130  0.37850472  1
  In  In19  1  0.16482279  -0.00393910  0.86352325  1
  In  In20  1  0.17811822  0.33506481  0.37885531  1
  In  In21  1  0.15648079  0.34647960  0.87051473  1
  In  In22  1  0.16712314  0.66912453  0.38093924  1
  In  In23  1  0.17040495  0.65974380  0.85850721  1
  In  In24  1  0.50263277  0.00071326  0.38693316  1
  In  In25  1  0.49880283  0.00155253  0.86180726  1
  In  In26  1  0.50441671  0.33325666  0.38797995  1
  In  In27  1  0.50057321  0.30489345  0.87180672  1
  In  In28  1  0.48666264  0.67665845  0.38352815  1
  In  In29  1  0.50073213  0.66936339  0.86972033  1
  In  In30  1  0.84034211  -0.00928630  0.38703101  1
  In  In31  1  0.84107903  0.00804584  0.86748768  1
  In  In32  1  0.82215040  0.33448300  0.37836576  1
  In  In33  1  0.83422954  0.33427259  0.87314607  1
  In  In34  1  0.85561529  0.66611794  0.37712467  1
  In  In35  1  0.82736906  0.65752254  0.86959976  1
  In  In36  1  0.00407647  0.14634674  0.37696244  1
  In  In37  1  -0.00749376  0.16339178  0.87184150  1
  In  In38  1  -0.00363974  0.52675310  0.37521509  1
  In  In39  1  -0.01583155  0.48253553  0.85528531  1
  In  In40  1  0.00280485  0.83333906  0.38325327  1
  In  In41  1  0.00090663  0.83133901  0.86400598  1
  In  In42  1  0.33718276  0.17641314  0.37982079  1
  In  In43  1  0.35719381  0.16907689  0.87096612  1
  In  In44  1  0.31944844  0.51146572  0.38842967  1
  In  In45  1  0.32379094  0.50524862  0.87171884  1
  In  In46  1  0.34170560  0.82614943  0.38399514  1
  In  In47  1  0.33859055  0.83570351  0.86534209  1
  In  In48  1  0.66892237  0.16922826  0.38777606  1
  In  In49  1  0.66533287  0.16637819  0.86237527  1
  In  In50  1  0.66650243  0.48975002  0.37985095  1
  In  In51  1  0.67710911  0.50736572  0.86649933  1
  In  In52  1  0.66263017  0.83775130  0.38935915  1
  In  In53  1  0.65190014  0.82133506  0.86420151  1
  In  In54  1  0.16856155  -0.01227249  0.12893715  1
  In  In55  1  0.17570564  -0.01232224  0.63085131  1
  In  In56  1  0.15883436  0.33601607  0.12253452  1
  In  In57  1  0.15529791  0.33395575  0.62756749  1
  In  In58  1  0.16672235  0.66441501  0.13417680  1
  In  In59  1  0.16627906  0.66551341  0.62641931  1
  In  In60  1  0.50316197  0.00159395  0.11026098  1
  In  In61  1  0.50267242  0.00018982  0.62741583  1
  In  In62  1  0.50961579  0.33122212  0.11788927  1
  In  In63  1  0.50515267  0.33768737  0.62760702  1
  In  In64  1  0.48223568  0.66847687  0.12348526  1
  In  In65  1  0.49985310  0.66729600  0.62610144  1
  In  In66  1  0.83057389  0.01064431  0.12431475  1
  In  In67  1  0.83135802  0.00070939  0.62870560  1
  In  In68  1  0.84223698  0.33225158  0.10668914  1
  In  In69  1  0.83887879  0.32417911  0.62955192  1
  In  In70  1  0.84713655  0.66636318  0.12526469  1
  In  In71  1  0.82436884  0.67555005  0.63029578  1
  In  In72  1  0.16870489  0.16507948  0.50292850  1
  In  In73  1  0.82684136  0.83561772  -0.00269282  1
  In  In74  1  0.17190247  0.83034316  -0.00983391  1
  In  In75  1  -0.00158170  0.33600169  0.24496733  1
  In  In76  1  0.67158725  0.00104168  0.25103807  1
  In  In77  1  0.33141900  0.33413068  0.75388256  1
  In  In78  1  0.32822801  -0.00698852  0.24934178  1
  In  In79  1  0.16713591  0.16867835  -0.00300280  1
  In  In80  1  0.33363474  0.33586853  0.25776527  1
  In  In81  1  0.66889244  0.33284675  0.25075490  1
  In  In82  1  0.16421836  0.50138648  -0.00089427  1
  In  In83  1  0.50121575  0.49510785  -0.00531451  1
  In  In84  1  0.83428407  0.50459058  0.50119838  1
  In  In85  1  0.67174507  0.66747795  0.25176338  1
  Cu  Cu86  1  0.16088564  0.83002763  0.25678583  1
  Cu  Cu87  1  0.49502797  0.82902828  0.25236428  1
  Cu  Cu88  1  0.33945907  0.33344511  0.50582423  1
  Cu  Cu89  1  0.66583228  0.00557687  0.51060870  1
  Cu  Cu90  1  0.49859681  0.83290680  0.74306598  1
  Cu  Cu91  1  0.34510523  0.00262295  -0.01155357  1
  Cu  Cu92  1  0.83713787  0.16653404  0.24941576  1
  Cu  Cu93  1  0.16344262  0.50592624  0.25546743  1
  Cu  Cu94  1  0.50273232  0.50022213  0.75050374  1
  Cu  Cu95  1  0.49809236  0.16322606  0.24701203  1
  Cu  Cu96  1  0.83147375  0.83626910  0.74836539  1
  Cu  Cu97  1  0.16024202  0.16554528  0.75005095  1
  Cu  Cu98  1  0.00505381  0.67161475  0.50502160  1
  Cu  Cu99  1  0.16664866  0.82971211  0.74315770  1
  Cu  Cu100  1  0.66360920  0.66861086  0.50784804  1
  Cu  Cu101  1  0.49187536  0.50991088  0.25519021  1
  Cu  Cu102  1  0.33627176  -0.00431986  0.50682664  1
  Cu  Cu103  1  -0.00373445  -0.00107217  0.50727945  1
  Cu  Cu104  1  0.83115687  0.16665304  0.75001351  1
  Cu  Cu105  1  0.66178584  0.00289558  -0.01245368  1
  Cu  Cu106  1  0.83679660  0.49936467  0.74475858  1
  Cu  Cu107  1  0.66854893  0.32690548  -0.00964147  1
  Cu  Cu108  1  -0.00579005  0.00430697  0.00002862  1
  Cu  Cu109  1  0.33325456  0.66551585  0.50567904  1
  Cu  Cu110  1  -0.00113684  0.33576438  0.50586121  1
  Cu  Cu111  1  0.66844270  0.33265920  0.50954648  1
  Cu  Cu112  1  0.84474924  0.83109650  0.25908982  1
  Cu  Cu113  1  0.66507605  0.66342523  -0.00810504  1
  Cu  Cu114  1  0.00160477  0.66211977  -0.00292261  1
  Se  Se115  1  0.08207084  0.07507026  0.06100339  1
  Se  Se116  1  0.07962122  0.08011655  0.56634635  1
  Se  Se117  1  0.06806687  0.40641861  0.05168904  1
  Se  Se118  1  0.08583343  0.41907463  0.55286020  1
  Se  Se119  1  0.08080234  0.74409567  0.05654446  1
  Se  Se120  1  0.08835086  0.75529176  0.55765867  1
  Se  Se121  1  0.42255884  0.08925069  0.04427149  1
  Se  Se122  1  0.41904351  0.08315596  0.55519685  1
  Se  Se123  1  0.40760465  0.41144544  0.05925268  1
  Se  Se124  1  0.42275806  0.41864935  0.55713676  1
  Se  Se125  1  0.42273984  0.76062858  0.05190470  1
  Se  Se126  1  0.41987291  0.74984467  0.55464111  1
  Se  Se127  1  0.75001459  0.07623187  0.04608079  1
  Se  Se128  1  0.75174475  0.08903041  0.56039041  1
  Se  Se129  1  0.74716422  0.41298562  0.04642152  1
  Se  Se130  1  0.74743394  0.41876235  0.56601850  1
  Se  Se131  1  0.74144579  0.74104144  0.05935884  1
  Se  Se132  1  0.75079351  0.75358611  0.55403304  1
  Se  Se133  1  0.25642796  0.26023831  0.05825906  1
  Se  Se134  1  0.25872099  0.25243007  0.56632370  1
  Se  Se135  1  0.25529536  0.59516489  0.05730011  1
  Se  Se136  1  0.24802144  0.58120174  0.55577951  1
  Se  Se137  1  0.26058049  0.92692116  0.05042376  1
  Se  Se138  1  0.24734312  0.91232380  0.55262884  1
  Se  Se139  1  0.58220915  0.24764511  0.04562537  1
  Se  Se140  1  0.58389850  0.24859494  0.56035277  1
  Se  Se141  1  0.58641006  0.58862475  0.05987535  1
  Se  Se142  1  0.58124840  0.58082448  0.55594473  1
  Se  Se143  1  0.58408424  0.91597224  0.04307471  1
  Se  Se144  1  0.58142236  0.91590482  0.55591335  1
  Se  Se145  1  0.91501338  0.23606924  0.04579799  1
  Se  Se146  1  0.91611334  0.24842259  0.55298615  1
  Se  Se147  1  0.91583122  0.58188957  0.05042646  1
  Se  Se148  1  0.92263465  0.59038091  0.56442089  1
  Se  Se149  1  0.92344451  0.91630505  0.06146165  1
  Se  Se150  1  0.91152553  0.91511980  0.55849498  1
  Se  Se151  1  0.07690289  0.25480262  0.44137494  1
  Se  Se152  1  0.07546418  0.25717725  0.93928336  1
  Se  Se153  1  0.08478021  0.58432906  0.45131510  1
  Se  Se154  1  0.07981369  0.58734657  0.93324073  1
  Se  Se155  1  0.08277213  0.91787894  0.45446842  1
  Se  Se156  1  0.07310758  0.92371653  0.94085469  1
  Se  Se157  1  0.42055543  0.24706362  0.45305452  1
  Se  Se158  1  0.40875680  0.25686654  0.94939549  1
  Se  Se159  1  0.41851074  0.58136160  0.45187292  1
  Se  Se160  1  0.40991251  0.58889071  0.94177896  1
  Se  Se161  1  0.42072399  0.91396339  0.45120111  1
  Se  Se162  1  0.42239939  0.91510545  0.93529336  1
  Se  Se163  1  0.75360232  0.25286341  0.45409770  1
  Se  Se164  1  0.74943028  0.24354682  0.93577870  1
  Se  Se165  1  0.74364978  0.59521243  0.43999321  1
  Se  Se166  1  0.75278869  0.57981386  0.94617393  1
  Se  Se167  1  0.74710051  0.92085861  0.45459320  1
  Se  Se168  1  0.74230905  0.91909712  0.92995181  1
  Se  Se169  1  0.25818432  0.07383608  0.44102802  1
  Se  Se170  1  0.25330513  0.07761982  0.93423732  1
  Se  Se171  1  0.25026682  0.41324890  0.45430208  1
  Se  Se172  1  0.25653553  0.40823462  0.94282888  1
  Se  Se173  1  0.25093034  0.74986509  0.45045217  1
  Se  Se174  1  0.25786647  0.73853540  0.93300862  1
  Se  Se175  1  0.58301589  0.08737798  0.45283002  1
  Se  Se176  1  0.58008499  0.08543853  0.93290183  1
  Se  Se177  1  0.58684047  0.41794332  0.45492142  1
  Se  Se178  1  0.58965181  0.41007029  0.93123420  1
  Se  Se179  1  0.57900691  0.74970422  0.45130400  1
  Se  Se180  1  0.58009469  0.74836051  0.94430598  1
  Se  Se181  1  0.91657934  0.08491089  0.45249715  1
  Se  Se182  1  0.91196328  0.08531934  0.94626747  1
  Se  Se183  1  0.92482419  0.41525796  0.43876092  1
  Se  Se184  1  0.91827574  0.41981188  0.93947069  1
  Se  Se185  1  0.91702050  0.75235678  0.45318871  1
  Se  Se186  1  0.92168587  0.74699204  0.93983342  1
  Se  Se187  1  0.23970865  0.23678895  0.30588148  1
  Se  Se188  1  0.24079481  0.24190810  0.81406743  1
  Se  Se189  1  0.24933126  0.58598992  0.30907778  1
  Se  Se190  1  0.25875015  0.58067023  0.79274887  1
  Se  Se191  1  0.24269285  0.90981327  0.31673921  1
  Se  Se192  1  0.24931947  0.91348688  0.79800411  1
  Se  Se193  1  0.57662319  0.24198701  0.30994910  1
  Se  Se194  1  0.58575681  0.25209157  0.79336546  1
  Se  Se195  1  0.57954385  0.58173755  0.31488812  1
  Se  Se196  1  0.58596105  0.58710626  0.80238948  1
  Se  Se197  1  0.57637183  0.91134450  0.30881534  1
  Se  Se198  1  0.58392493  0.91539095  0.79589155  1
  Se  Se199  1  0.91242584  0.24785749  0.31236927  1
  Se  Se200  1  0.91627972  0.25065615  0.80225555  1
  Se  Se201  1  0.90665856  0.57852898  0.29823721  1
  Se  Se202  1  0.91696771  0.58914945  0.79742988  1
  Se  Se203  1  0.92227904  0.91950360  0.31208471  1
  Se  Se204  1  0.91839523  0.91851002  0.80002618  1
  Se  Se205  1  0.08589629  0.08429598  0.29980688  1
  Se  Se206  1  0.07602750  0.08125136  0.80255410  1
  Se  Se207  1  0.08611925  0.42108344  0.31367070  1
  Se  Se208  1  0.09437808  0.42881508  0.79412641  1
  Se  Se209  1  0.07911724  0.74707290  0.31171337  1
  Se  Se210  1  0.08286195  0.74746362  0.79752104  1
  Se  Se211  1  0.42141124  0.08511081  0.30955378  1
  Se  Se212  1  0.40421377  0.07550001  0.79597270  1
  Se  Se213  1  0.42201578  0.42486130  0.31890584  1
  Se  Se214  1  0.42696017  0.42068226  0.81463652  1
  Se  Se215  1  0.41066720  0.74792720  0.30443636  1
  Se  Se216  1  0.41751293  0.74737155  0.79799861  1
  Se  Se217  1  0.75724638  0.09104217  0.31385726  1
  Se  Se218  1  0.74878281  0.07691191  0.79790327  1
  Se  Se219  1  0.76051633  0.42962746  0.30296766  1
  Se  Se220  1  0.75386703  0.41694482  0.80048617  1
  Se  Se221  1  0.75425561  0.75995153  0.31666204  1
  Se  Se222  1  0.75183772  0.74921563  0.80292512  1
  Se  Se223  1  0.24455391  0.09110997  0.19126277  1
  Se  Se224  1  0.24561950  0.08122228  0.70032111  1
  Se  Se225  1  0.24183659  0.42475954  0.19399081  1
  Se  Se226  1  0.24821929  0.42112051  0.68877955  1
  Se  Se227  1  0.24754859  0.75539464  0.19794040  1
  Se  Se228  1  0.25441376  0.74721306  0.69386090  1
  Se  Se229  1  0.58266561  0.08945915  0.18653610  1
  Se  Se230  1  0.58340038  0.07855776  0.69923431  1
  Se  Se231  1  0.57004164  0.42645058  0.19612093  1
  Se  Se232  1  0.58666697  0.41413783  0.70117418  1
  Se  Se233  1  0.58100210  0.75729793  0.19030706  1
  Se  Se234  1  0.58602734  0.74778254  0.69461683  1
  Se  Se235  1  0.91752370  0.07899816  0.19794358  1
  Se  Se236  1  0.91669161  0.08283631  0.69791671  1
  Se  Se237  1  0.90531842  0.42140314  0.18564516  1
  Se  Se238  1  0.92018373  0.41435169  0.69356450  1
  Se  Se239  1  0.91977265  0.74551291  0.20132673  1
  Se  Se240  1  0.91578418  0.75178741  0.69673123  1
  Se  Se241  1  0.09080446  0.24039157  0.19184255  1
  Se  Se242  1  0.07942478  0.25393443  0.70066717  1
  Se  Se243  1  0.07807057  0.58304107  0.19843162  1
  Se  Se244  1  0.07872683  0.59257227  0.69770602  1
  Se  Se245  1  0.08331894  0.91675201  0.20136293  1
  Se  Se246  1  0.07996789  0.91739687  0.69710672  1
  Se  Se247  1  0.42076873  0.24767951  0.18968176  1
  Se  Se248  1  0.42148808  0.24522735  0.69481567  1
  Se  Se249  1  0.40967750  0.59147597  0.20141407  1
  Se  Se250  1  0.41935802  0.58347208  0.69762116  1
  Se  Se251  1  0.42669347  0.91455672  0.18731737  1
  Se  Se252  1  0.41283868  0.91661249  0.69224769  1
  Se  Se253  1  0.75796216  0.24473500  0.18718762  1
  Se  Se254  1  0.74833685  0.25272649  0.69847803  1
  Se  Se255  1  0.75272290  0.57660907  0.18673896  1
  Se  Se256  1  0.74942896  0.58715368  0.69989175  1
  Se  Se257  1  0.76289502  0.90555839  0.19421326  1
  Se  Se258  1  0.74609281  0.91792307  0.69615879  1
