# generated using pymatgen
data_In86Cu29Se144
_symmetry_space_group_name_H-M   'P 1'
_cell_length_a   17.58195909
_cell_length_b   17.58103575
_cell_length_c   23.44246010
_cell_angle_alpha   90.01413894
_cell_angle_beta   90.01409014
_cell_angle_gamma   89.97830012
_symmetry_Int_Tables_number   1
_chemical_formula_structural   In86Cu29Se144
_chemical_formula_sum   'In86 Cu29 Se144'
_cell_volume   7246.27564126
_cell_formula_units_Z   1
loop_
 _symmetry_equiv_pos_site_id
 _symmetry_equiv_pos_as_xyz
  1  'x, y, z'
loop_
 _atom_site_type_symbol
 _atom_site_label
 _atom_site_symmetry_multiplicity
 _atom_site_fract_x
 _atom_site_fract_y
 _atom_site_fract_z
 _atom_site_occupancy
  In  In0  1  0.01498226  0.18075957  0.11362896  1
  In  In1  1  0.01620542  0.16949722  0.63676907  1
  In  In2  1  -0.01726378  0.50044148  0.12319872  1
  In  In3  1  0.00158849  0.49941278  0.62789548  1
  In  In4  1  0.00190266  0.83034532  0.12613936  1
  In  In5  1  -0.01542526  0.81710645  0.61457206  1
  In  In6  1  0.31919677  0.17379960  0.12465913  1
  In  In7  1  0.30213574  0.18156832  0.65423143  1
  In  In8  1  0.34265802  0.49255313  0.11752955  1
  In  In9  1  0.32691036  0.51180359  0.63095350  1
  In  In10  1  0.36045235  0.81378866  0.14685527  1
  In  In11  1  0.33264017  0.83268346  0.62550402  1
  In  In12  1  0.67342916  0.15936545  0.11352973  1
  In  In13  1  0.67601174  0.17755777  0.63209720  1
  In  In14  1  0.66789133  0.50840911  0.12211008  1
  In  In15  1  0.67595993  0.50049836  0.62885925  1
  In  In16  1  0.64603907  0.82959533  0.12398581  1
  In  In17  1  0.66173681  0.82099405  0.61764464  1
  In  In18  1  0.17776355  -0.00963861  0.38835457  1
  In  In19  1  0.17924292  0.00092005  0.87053450  1
  In  In20  1  0.14809795  0.34958500  0.38909305  1
  In  In21  1  0.16101210  0.32106166  0.86089269  1
  In  In22  1  0.17631767  0.66048793  0.38162370  1
  In  In23  1  0.16754980  0.66733828  0.85975028  1
  In  In24  1  0.47663497  -0.01261111  0.36628089  1
  In  In25  1  0.48403938  -0.00040859  0.87897116  1
  In  In26  1  0.50123502  0.33581292  0.37348049  1
  In  In27  1  0.50914010  0.34352064  0.86839845  1
  In  In28  1  0.50900354  0.68174399  0.35771387  1
  In  In29  1  0.50033778  0.66571709  0.87622845  1
  In  In30  1  0.82529319  -0.01043436  0.38064016  1
  In  In31  1  0.84345756  0.00495104  0.87431693  1
  In  In32  1  0.85406922  0.33606660  0.37348528  1
  In  In33  1  0.83427004  0.33636127  0.87413944  1
  In  In34  1  0.82274338  0.66745024  0.39172704  1
  In  In35  1  0.81284831  0.65307711  0.85367180  1
  In  In36  1  0.00288661  0.18565753  0.37504341  1
  In  In37  1  -0.00867095  0.18116496  0.87585333  1
  In  In38  1  0.00642488  0.49236379  0.38295186  1
  In  In39  1  -0.00972763  0.48882665  0.86641453  1
  In  In40  1  0.00160311  0.83056405  0.38902169  1
  In  In41  1  0.00127492  0.83198116  0.86296555  1
  In  In42  1  0.32881027  0.15693928  0.37614544  1
  In  In43  1  0.32567420  0.15953423  0.86641978  1
  In  In44  1  0.30998934  0.51049505  0.38050944  1
  In  In45  1  0.34194750  0.50941356  0.86641812  1
  In  In46  1  0.33417841  0.83008532  0.38066921  1
  In  In47  1  0.33978790  0.83648903  0.87164954  1
  In  In48  1  0.67769999  0.16021703  0.37911226  1
  In  In49  1  0.67510779  0.18385287  0.86778918  1
  In  In50  1  0.65451408  0.53117643  0.38631649  1
  In  In51  1  0.66600726  0.50396043  0.87575307  1
  In  In52  1  0.66971114  0.81495317  0.39033721  1
  In  In53  1  0.66539978  0.80519301  0.86905971  1
  In  In54  1  0.17346067  0.01693182  0.12374290  1
  In  In55  1  0.17438964  0.00859937  0.62141262  1
  In  In56  1  0.17652530  0.31994259  0.12204631  1
  In  In57  1  0.16306858  0.33580648  0.63122254  1
  In  In58  1  0.16548512  0.67979816  0.12566904  1
  In  In59  1  0.16599685  0.66453184  0.62166519  1
  In  In60  1  0.49905827  -0.01520993  0.12281542  1
  In  In61  1  0.49080834  -0.01781444  0.62248119  1
  In  In62  1  0.47812762  0.34614142  0.11205850  1
  In  In63  1  0.50385146  0.33421975  0.63601762  1
  In  In64  1  0.50331260  0.66642057  0.12250664  1
  In  In65  1  0.49975912  0.67238464  0.62685791  1
  In  In66  1  0.82249596  -0.00006494  0.11965765  1
  In  In67  1  0.84020714  -0.00092457  0.62395895  1
  In  In68  1  0.84278647  0.34367157  0.11793081  1
  In  In69  1  0.82317725  0.33924400  0.64386339  1
  In  In70  1  0.83099046  0.64921689  0.12379217  1
  In  In71  1  0.83662191  0.66975307  0.62788462  1
  In  In72  1  0.67403479  0.33999400  0.24792007  1
  In  In73  1  0.84330126  0.16449461  0.50650977  1
  In  In74  1  0.66633068  -0.00801474  0.25668851  1
  In  In75  1  0.50091674  0.17266956  -0.00562128  1
  In  In76  1  0.49343368  0.50615670  0.50744688  1
  In  In77  1  0.32609559  0.33714589  0.24936315  1
  In  In78  1  0.00486985  0.65707266  0.25618909  1
  In  In79  1  0.65867074  -0.00097034  0.74647962  1
  In  In80  1  0.17403381  0.84198681  -0.00032848  1
  In  In81  1  0.49369450  0.15603538  0.50022009  1
  In  In82  1  0.83483282  0.83480194  -0.00408576  1
  In  In83  1  0.16958540  0.49209747  -0.00668346  1
  In  In84  1  0.00283379  -0.00114948  0.74517662  1
  In  In85  1  0.00530016  0.00220182  0.25105980  1
  Cu  Cu86  1  0.50345179  0.16458085  0.24782182  1
  Cu  Cu87  1  0.16720716  0.16892022  0.25047869  1
  Cu  Cu88  1  0.83617162  0.50389106  0.75160829  1
  Cu  Cu89  1  -0.00067786  0.66058718  0.50346316  1
  Cu  Cu90  1  0.67171741  0.34161534  -0.00646462  1
  Cu  Cu91  1  0.49634451  0.16342613  0.75484156  1
  Cu  Cu92  1  -0.00638728  0.66087173  -0.01057518  1
  Cu  Cu93  1  0.84943255  0.17172719  0.24202246  1
  Cu  Cu94  1  0.00336979  0.33429342  0.50768844  1
  Cu  Cu95  1  0.50843276  0.50537887  0.74930390  1
  Cu  Cu96  1  0.16464603  0.82966187  0.74143506  1
  Cu  Cu97  1  -0.00119532  0.33536225  -0.00633681  1
  Cu  Cu98  1  0.66946565  0.00066608  -0.00558129  1
  Cu  Cu99  1  0.17055733  0.50070862  0.74866787  1
  Cu  Cu100  1  0.83027671  0.82219009  0.25878746  1
  Cu  Cu101  1  0.33370130  -0.00148032  0.00061054  1
  Cu  Cu102  1  0.49335505  0.50422127  0.24555990  1
  Cu  Cu103  1  0.32327304  0.32636599  0.50871957  1
  Cu  Cu104  1  0.82779945  0.50012832  0.25278770  1
  Cu  Cu105  1  0.66189375  -0.00968391  0.50090830  1
  Cu  Cu106  1  0.00535873  0.01371598  -0.00456642  1
  Cu  Cu107  1  0.49824038  0.82928889  0.74931693  1
  Cu  Cu108  1  0.33255774  0.66906998  0.50162724  1
  Cu  Cu109  1  0.66310687  0.66497106  -0.00231768  1
  Cu  Cu110  1  0.00362723  -0.00000557  0.50596605  1
  Cu  Cu111  1  0.33198853  0.00136324  0.50435637  1
  Cu  Cu112  1  0.33811606  0.66625909  -0.00075745  1
  Cu  Cu113  1  0.67127753  0.33801850  0.50922328  1
  Cu  Cu114  1  0.17841516  0.83758468  0.25807955  1
  Se  Se115  1  0.09421925  0.08955122  0.04869029  1
  Se  Se116  1  0.08088096  0.08817345  0.55789388  1
  Se  Se117  1  0.07663849  0.41174892  0.06005599  1
  Se  Se118  1  0.08791972  0.41945714  0.55788569  1
  Se  Se119  1  0.07217760  0.74426348  0.04793184  1
  Se  Se120  1  0.08467573  0.74802804  0.55153946  1
  Se  Se121  1  0.41467857  0.08328309  0.05987221  1
  Se  Se122  1  0.40403667  0.08395079  0.56944058  1
  Se  Se123  1  0.40208301  0.41600088  0.03540511  1
  Se  Se124  1  0.41005591  0.40620793  0.56422830  1
  Se  Se125  1  0.41560218  0.75187110  0.05598086  1
  Se  Se126  1  0.41694439  0.75030840  0.55546924  1
  Se  Se127  1  0.75718001  0.08335450  0.04248189  1
  Se  Se128  1  0.73772520  0.07773726  0.55784171  1
  Se  Se129  1  0.74969188  0.42187375  0.05539694  1
  Se  Se130  1  0.75897448  0.41490756  0.56107060  1
  Se  Se131  1  0.74591768  0.74549195  0.05935574  1
  Se  Se132  1  0.76004742  0.75213388  0.55479422  1
  Se  Se133  1  0.26169628  0.25842325  0.04680512  1
  Se  Se134  1  0.24411070  0.24355909  0.56387096  1
  Se  Se135  1  0.24848058  0.59270992  0.05639299  1
  Se  Se136  1  0.25073141  0.58099849  0.55168685  1
  Se  Se137  1  0.26182395  0.91963178  0.06805752  1
  Se  Se138  1  0.24950225  0.91511225  0.55552741  1
  Se  Se139  1  0.59023055  0.26398378  0.05753378  1
  Se  Se140  1  0.58551759  0.25267734  0.55769217  1
  Se  Se141  1  0.58042282  0.58111221  0.05081308  1
  Se  Se142  1  0.59336025  0.59018261  0.56041984  1
  Se  Se143  1  0.58642372  0.91909124  0.04836685  1
  Se  Se144  1  0.57635705  0.90857850  0.55225048  1
  Se  Se145  1  0.91635010  0.25164305  0.05038649  1
  Se  Se146  1  0.92235529  0.25696424  0.57037197  1
  Se  Se147  1  0.91232898  0.58123964  0.04659933  1
  Se  Se148  1  0.91697658  0.58073546  0.55936427  1
  Se  Se149  1  0.93009279  0.92715585  0.05585657  1
  Se  Se150  1  0.91304369  0.91769867  0.55053540  1
  Se  Se151  1  0.08355019  0.24707915  0.45470549  1
  Se  Se152  1  0.08572306  0.25382933  0.94295402  1
  Se  Se153  1  0.08533974  0.58276599  0.44784855  1
  Se  Se154  1  0.08188458  0.58638002  0.93313214  1
  Se  Se155  1  0.08659325  0.91439740  0.45397788  1
  Se  Se156  1  0.07631133  0.92300061  0.93728059  1
  Se  Se157  1  0.40796784  0.25826134  0.44258230  1
  Se  Se158  1  0.41403020  0.25374025  0.92886584  1
  Se  Se159  1  0.41262420  0.59113380  0.43827520  1
  Se  Se160  1  0.41851440  0.58148040  0.94560001  1
  Se  Se161  1  0.41524424  0.91716869  0.45097366  1
  Se  Se162  1  0.41486992  0.91079344  0.95054595  1
  Se  Se163  1  0.75043399  0.25629452  0.44614624  1
  Se  Se164  1  0.75313102  0.25225327  0.94598008  1
  Se  Se165  1  0.76149261  0.56304434  0.45530777  1
  Se  Se166  1  0.75186859  0.59042254  0.94224678  1
  Se  Se167  1  0.75165102  0.90815134  0.45260181  1
  Se  Se168  1  0.74260537  0.91785208  0.93110621  1
  Se  Se169  1  0.24917311  0.08824673  0.45350399  1
  Se  Se170  1  0.25285822  0.08108758  0.94540427  1
  Se  Se171  1  0.24932841  0.41645293  0.45303006  1
  Se  Se172  1  0.25304594  0.41195788  0.92473192  1
  Se  Se173  1  0.24588996  0.75345557  0.45055985  1
  Se  Se174  1  0.25246190  0.74204600  0.93912642  1
  Se  Se175  1  0.58503524  0.07008364  0.43609354  1
  Se  Se176  1  0.59142016  0.08229147  0.93296801  1
  Se  Se177  1  0.58704769  0.41218568  0.44588464  1
  Se  Se178  1  0.58232809  0.42208532  0.94534998  1
  Se  Se179  1  0.57427051  0.73416256  0.44750580  1
  Se  Se180  1  0.57965233  0.75179377  0.94852219  1
  Se  Se181  1  0.92669898  0.07633812  0.43673448  1
  Se  Se182  1  0.91496287  0.09077729  0.94559373  1
  Se  Se183  1  0.91852339  0.41476416  0.45301470  1
  Se  Se184  1  0.91429199  0.42156595  0.94613597  1
  Se  Se185  1  0.91555496  0.74848875  0.45358125  1
  Se  Se186  1  0.91704075  0.74560715  0.93132992  1
  Se  Se187  1  0.24101717  0.25147828  0.31567083  1
  Se  Se188  1  0.24986734  0.24250766  0.79473815  1
  Se  Se189  1  0.23536912  0.57804969  0.30192067  1
  Se  Se190  1  0.25717955  0.58760281  0.79583854  1
  Se  Se191  1  0.25827922  0.92329066  0.31088422  1
  Se  Se192  1  0.24544476  0.90630791  0.80264836  1
  Se  Se193  1  0.58494034  0.24097372  0.30800340  1
  Se  Se194  1  0.58252904  0.25131186  0.79933370  1
  Se  Se195  1  0.58366472  0.58061547  0.29774637  1
  Se  Se196  1  0.58757088  0.58954584  0.80538726  1
  Se  Se197  1  0.58040280  0.90187410  0.31626896  1
  Se  Se198  1  0.57528598  0.91063292  0.81362215  1
  Se  Se199  1  0.92719664  0.25721274  0.29654474  1
  Se  Se200  1  0.91467615  0.25653100  0.80210581  1
  Se  Se201  1  0.90730023  0.57829077  0.31650004  1
  Se  Se202  1  0.92496583  0.58861912  0.80013290  1
  Se  Se203  1  0.91354440  0.90769212  0.30994196  1
  Se  Se204  1  0.90362189  0.91042647  0.80007376  1
  Se  Se205  1  0.09199820  0.08811588  0.31525818  1
  Se  Se206  1  0.08237122  0.08606117  0.81328592  1
  Se  Se207  1  0.07904305  0.41502701  0.30639522  1
  Se  Se208  1  0.08477784  0.41861155  0.79989366  1
  Se  Se209  1  0.08777878  0.76005439  0.31238676  1
  Se  Se210  1  0.07930820  0.74779786  0.79426829  1
  Se  Se211  1  0.41455863  0.08895168  0.30135272  1
  Se  Se212  1  0.41328690  0.07476458  0.80113102  1
  Se  Se213  1  0.41732713  0.42722875  0.31121223  1
  Se  Se214  1  0.42199073  0.42081447  0.79893180  1
  Se  Se215  1  0.39398311  0.73718125  0.30662216  1
  Se  Se216  1  0.41624279  0.74604567  0.80531495  1
  Se  Se217  1  0.76940784  0.09006204  0.30344375  1
  Se  Se218  1  0.75377571  0.08559635  0.80523823  1
  Se  Se219  1  0.75081061  0.42313437  0.32050244  1
  Se  Se220  1  0.75179528  0.42339559  0.80721457  1
  Se  Se221  1  0.74798214  0.74098378  0.31272847  1
  Se  Se222  1  0.75785879  0.76157828  0.79227004  1
  Se  Se223  1  0.25415012  0.08645190  0.20065410  1
  Se  Se224  1  0.24620339  0.06637056  0.70656022  1
  Se  Se225  1  0.24105023  0.42691456  0.18706234  1
  Se  Se226  1  0.25541861  0.41682480  0.69659764  1
  Se  Se227  1  0.24875882  0.74770641  0.20058082  1
  Se  Se228  1  0.25093347  0.74527360  0.69167696  1
  Se  Se229  1  0.58575839  0.08649540  0.18902701  1
  Se  Se230  1  0.57086291  0.08999476  0.68442505  1
  Se  Se231  1  0.57067738  0.41743748  0.18775047  1
  Se  Se232  1  0.59160052  0.41880403  0.69781579  1
  Se  Se233  1  0.57692848  0.74947505  0.19708567  1
  Se  Se234  1  0.58566299  0.75029512  0.69753059  1
  Se  Se235  1  0.91982044  0.08489391  0.18101517  1
  Se  Se236  1  0.90689687  0.09500809  0.69344117  1
  Se  Se237  1  0.91127320  0.41833713  0.19905821  1
  Se  Se238  1  0.92112747  0.41858982  0.70134278  1
  Se  Se239  1  0.91219757  0.74927858  0.19364587  1
  Se  Se240  1  0.91987688  0.75060567  0.69812827  1
  Se  Se241  1  0.08685261  0.25152769  0.19464176  1
  Se  Se242  1  0.08994551  0.25362416  0.70658766  1
  Se  Se243  1  0.08620465  0.57693249  0.18432771  1
  Se  Se244  1  0.08675621  0.58370143  0.69451338  1
  Se  Se245  1  0.09689827  0.90981450  0.19208166  1
  Se  Se246  1  0.08366158  0.90776076  0.68001147  1
  Se  Se247  1  0.42429688  0.24871698  0.19017857  1
  Se  Se248  1  0.41709827  0.25128570  0.70075957  1
  Se  Se249  1  0.41224745  0.58274390  0.18765993  1
  Se  Se250  1  0.42238742  0.58483253  0.69535278  1
  Se  Se251  1  0.42068667  0.92479921  0.20257285  1
  Se  Se252  1  0.41220680  0.91378948  0.70021442  1
  Se  Se253  1  0.75663160  0.24238427  0.18639328  1
  Se  Se254  1  0.74865186  0.24731127  0.70969010  1
  Se  Se255  1  0.74577626  0.58304253  0.19930208  1
  Se  Se256  1  0.75218237  0.58720265  0.69844972  1
  Se  Se257  1  0.75679391  0.90334750  0.19225631  1
  Se  Se258  1  0.74872389  0.91386141  0.68524094  1
