# generated using pymatgen
data_In86Cu29Se144
_symmetry_space_group_name_H-M   'P 1'
_cell_length_a   17.56954100
_cell_length_b   17.56870746
_cell_length_c   23.42713625
_cell_angle_alpha   89.97594747
_cell_angle_beta   90.01888072
_cell_angle_gamma   89.99734841
_symmetry_Int_Tables_number   1
_chemical_formula_structural   In86Cu29Se144
_chemical_formula_sum   'In86 Cu29 Se144'
_cell_volume   7231.34976867
_cell_formula_units_Z   1
loop_
 _symmetry_equiv_pos_site_id
 _symmetry_equiv_pos_as_xyz
  1  'x, y, z'
loop_
 _atom_site_type_symbol
 _atom_site_label
 _atom_site_symmetry_multiplicity
 _atom_site_fract_x
 _atom_site_fract_y
 _atom_site_fract_z
 _atom_site_occupancy
  In  In0  1  -0.00210424  0.15434482  0.12233060  1
  In  In1  1  -0.01245888  0.17296480  0.63687089  1
  In  In2  1  0.00436594  0.48697884  0.12186078  1
  In  In3  1  0.00639828  0.49696576  0.62066980  1
  In  In4  1  0.01451918  0.84963867  0.12890358  1
  In  In5  1  -0.02276412  0.84207487  0.63906830  1
  In  In6  1  0.33948221  0.17445889  0.12062607  1
  In  In7  1  0.34100577  0.17068693  0.62895321  1
  In  In8  1  0.33444472  0.49943886  0.12459170  1
  In  In9  1  0.33240082  0.49979340  0.62431692  1
  In  In10  1  0.33387349  0.81002194  0.13110810  1
  In  In11  1  0.32929202  0.82192439  0.62182798  1
  In  In12  1  0.65410776  0.15978024  0.12498994  1
  In  In13  1  0.66769015  0.16584456  0.61707032  1
  In  In14  1  0.66318928  0.51708997  0.13183588  1
  In  In15  1  0.66780379  0.50011079  0.61533113  1
  In  In16  1  0.65520697  0.84217042  0.13283355  1
  In  In17  1  0.67061951  0.84018899  0.61357029  1
  In  In18  1  0.15996989  0.00908663  0.37360398  1
  In  In19  1  0.16308113  0.01562103  0.87175893  1
  In  In20  1  0.18009768  0.33530420  0.37317724  1
  In  In21  1  0.17944284  0.33347088  0.86859126  1
  In  In22  1  0.16487244  0.65652057  0.37596794  1
  In  In23  1  0.16201832  0.65874313  0.86950599  1
  In  In24  1  0.50778405  -0.01286768  0.37869200  1
  In  In25  1  0.50665548  0.00285309  0.89129685  1
  In  In26  1  0.48946728  0.34378610  0.37902178  1
  In  In27  1  0.48922831  0.34325902  0.88260400  1
  In  In28  1  0.49971325  0.66482360  0.37081727  1
  In  In29  1  0.49089596  0.67307708  0.87904108  1
  In  In30  1  0.82878361  -0.00001779  0.37740586  1
  In  In31  1  0.84332577  0.00385164  0.86815317  1
  In  In32  1  0.83852279  0.32910815  0.39579252  1
  In  In33  1  0.84848831  0.32034421  0.86753103  1
  In  In34  1  0.82486803  0.67536449  0.38580635  1
  In  In35  1  0.83846677  0.66316291  0.86611808  1
  In  In36  1  -0.00357537  0.15693916  0.38277291  1
  In  In37  1  0.03945474  0.19570781  0.83148420  1
  In  In38  1  0.00423618  0.49316939  0.39607559  1
  In  In39  1  0.01496509  0.50732396  0.86671463  1
  In  In40  1  -0.01236591  0.83803917  0.38248511  1
  In  In41  1  0.00295435  0.83747486  0.85882294  1
  In  In42  1  0.32735870  0.18407652  0.37425033  1
  In  In43  1  0.32374476  0.17527579  0.88294864  1
  In  In44  1  0.33275574  0.50321467  0.37247565  1
  In  In45  1  0.33222811  0.49901253  0.87429571  1
  In  In46  1  0.34799357  0.83334257  0.37383135  1
  In  In47  1  0.34884363  0.83321291  0.87512737  1
  In  In48  1  0.67343571  0.15629964  0.38063941  1
  In  In49  1  0.66106576  0.16000273  0.87869406  1
  In  In50  1  0.65698388  0.50857493  0.38176179  1
  In  In51  1  0.66138287  0.49119440  0.87563210  1
  In  In52  1  0.66449482  0.82850764  0.37034074  1
  In  In53  1  0.66362364  0.83208506  0.87744956  1
  In  In54  1  0.15018817  -0.00483423  0.12608492  1
  In  In55  1  0.15336218  0.00290403  0.62891479  1
  In  In56  1  0.17890506  0.34258332  0.11376287  1
  In  In57  1  0.14751323  0.34677444  0.63955664  1
  In  In58  1  0.18862152  0.66856119  0.12820102  1
  In  In59  1  0.17503166  0.65804825  0.62936854  1
  In  In60  1  0.51130386  0.00268104  0.11637505  1
  In  In61  1  0.50430693  0.00603824  0.61362560  1
  In  In62  1  0.48672854  0.32495049  0.12182823  1
  In  In63  1  0.49161294  0.32917993  0.62287297  1
  In  In64  1  0.49778362  0.66499103  0.12501007  1
  In  In65  1  0.49291875  0.65860803  0.61681003  1
  In  In66  1  0.83616830  -0.00393362  0.13419964  1
  In  In67  1  0.84801310  0.00418413  0.61119036  1
  In  In68  1  0.84137793  0.32759688  0.12820324  1
  In  In69  1  0.84775224  0.33228669  0.61321823  1
  In  In70  1  0.82755118  0.65812085  0.13214903  1
  In  In71  1  0.84526001  0.67730614  0.61708147  1
  In  In72  1  0.16137080  0.83388421  0.50155678  1
  In  In73  1  0.15744897  0.18182725  0.51119568  1
  In  In74  1  -0.00274890  0.67134255  0.25728553  1
  In  In75  1  0.83321430  0.16413622  -0.00393132  1
  In  In76  1  0.33192789  -0.00231319  0.25020361  1
  In  In77  1  0.82782895  0.83410038  -0.00749025  1
  In  In78  1  0.67573908  0.00170357  0.74618046  1
  In  In79  1  0.66188710  0.33241491  0.25721920  1
  In  In80  1  0.67130626  0.67226236  0.74760860  1
  In  In81  1  0.67366575  0.33459131  0.74153377  1
  In  In82  1  0.82594449  0.49877708  -0.00049501  1
  In  In83  1  0.17348069  0.83259437  0.00534090  1
  In  In84  1  0.33291449  0.00076699  0.75419657  1
  In  In85  1  0.00434620  0.32883662  0.25697843  1
  Cu  Cu86  1  0.65885868  0.32817507  0.50110804  1
  Cu  Cu87  1  0.49941057  0.83376561  0.74757394  1
  Cu  Cu88  1  0.82930819  0.15589735  0.25436911  1
  Cu  Cu89  1  0.83235946  0.83308779  0.25758462  1
  Cu  Cu90  1  0.00482334  0.66498828  0.50612453  1
  Cu  Cu91  1  0.33353894  0.00761439  0.49835526  1
  Cu  Cu92  1  0.33489437  0.34332219  0.49960287  1
  Cu  Cu93  1  0.66257518  0.66626359  0.49686553  1
  Cu  Cu94  1  0.50128131  0.82710454  0.24929907  1
  Cu  Cu95  1  0.33674172  0.00103891  0.00174838  1
  Cu  Cu96  1  0.84459879  0.49761672  0.74154975  1
  Cu  Cu97  1  0.66219819  -0.00957131  0.49324293  1
  Cu  Cu98  1  0.33525772  0.65735445  0.00078832  1
  Cu  Cu99  1  0.34066840  0.66344219  0.49923580  1
  Cu  Cu100  1  0.65769221  0.33585076  0.00317884  1
  Cu  Cu101  1  0.65607507  0.67242618  0.00257401  1
  Cu  Cu102  1  0.82944362  0.50384775  0.26268314  1
  Cu  Cu103  1  0.49307468  0.50058458  0.25139436  1
  Cu  Cu104  1  0.17141522  0.82275822  0.74719804  1
  Cu  Cu105  1  0.49059150  0.50469113  0.74977352  1
  Cu  Cu106  1  0.49679825  0.17330276  0.75482270  1
  Cu  Cu107  1  0.01263286  0.33255968  -0.01334810  1
  Cu  Cu108  1  0.17169797  0.49809535  0.74861546  1
  Cu  Cu109  1  0.17275323  0.50732346  0.24731205  1
  Cu  Cu110  1  0.00735404  0.66279357  -0.00533093  1
  Cu  Cu111  1  0.49772622  0.16109808  0.24773055  1
  Cu  Cu112  1  0.00262925  0.00577096  -0.00538603  1
  Cu  Cu113  1  0.16446663  0.16978303  0.25012561  1
  Cu  Cu114  1  0.33249118  0.33322620  -0.00123651  1
  Se  Se115  1  0.08713177  0.08487390  0.05057089  1
  Se  Se116  1  0.07008944  0.07916236  0.55709955  1
  Se  Se117  1  0.08601646  0.41800130  0.04675695  1
  Se  Se118  1  0.08861528  0.41224871  0.55302295  1
  Se  Se119  1  0.07771356  0.74259424  0.06260738  1
  Se  Se120  1  0.07990025  0.74773297  0.56863645  1
  Se  Se121  1  0.41961831  0.08547646  0.05484176  1
  Se  Se122  1  0.41460689  0.09188784  0.55276996  1
  Se  Se123  1  0.41533370  0.41697404  0.05368407  1
  Se  Se124  1  0.42150534  0.42284067  0.55447040  1
  Se  Se125  1  0.41530723  0.74617596  0.05276913  1
  Se  Se126  1  0.41867120  0.75387528  0.55045117  1
  Se  Se127  1  0.74961270  0.07573691  0.06144046  1
  Se  Se128  1  0.74130698  0.07127181  0.55273581  1
  Se  Se129  1  0.74196867  0.40852115  0.06638983  1
  Se  Se130  1  0.74752955  0.40848497  0.55290310  1
  Se  Se131  1  0.74668202  0.74407485  0.06037114  1
  Se  Se132  1  0.74862263  0.74694276  0.55054325  1
  Se  Se133  1  0.24882307  0.24489822  0.04926417  1
  Se  Se134  1  0.25778161  0.26562419  0.56459661  1
  Se  Se135  1  0.24719810  0.57889927  0.05346929  1
  Se  Se136  1  0.25306450  0.58420498  0.55263494  1
  Se  Se137  1  0.26101958  0.92248226  0.06726279  1
  Se  Se138  1  0.25385714  0.92851771  0.56029120  1
  Se  Se139  1  0.58020239  0.24824366  0.05669571  1
  Se  Se140  1  0.57520133  0.24597345  0.55495660  1
  Se  Se141  1  0.58075370  0.58074003  0.05448768  1
  Se  Se142  1  0.58061477  0.58062991  0.54925900  1
  Se  Se143  1  0.58658516  0.91018089  0.05111708  1
  Se  Se144  1  0.57488959  0.91102504  0.54768031  1
  Se  Se145  1  0.92999633  0.25986097  0.05205838  1
  Se  Se146  1  0.91939545  0.23361030  0.55073004  1
  Se  Se147  1  0.92237874  0.58902087  0.05744054  1
  Se  Se148  1  0.91716508  0.57958694  0.55404450  1
  Se  Se149  1  0.92340965  0.92268221  0.05375704  1
  Se  Se150  1  0.91470620  0.90024405  0.55036379  1
  Se  Se151  1  0.07746624  0.26314776  0.43723922  1
  Se  Se152  1  0.08680416  0.24566884  0.93021776  1
  Se  Se153  1  0.09164335  0.58416733  0.45448600  1
  Se  Se154  1  0.09110749  0.57766886  0.94638230  1
  Se  Se155  1  0.07436752  0.93158411  0.44664679  1
  Se  Se156  1  0.08054469  0.91499946  0.94047747  1
  Se  Se157  1  0.41320237  0.25309191  0.44775611  1
  Se  Se158  1  0.41875022  0.24745529  0.94885579  1
  Se  Se159  1  0.42026753  0.58062403  0.44186541  1
  Se  Se160  1  0.41953483  0.57812261  0.94462032  1
  Se  Se161  1  0.41439929  0.91811832  0.44907084  1
  Se  Se162  1  0.41838631  0.91405775  0.95096945  1
  Se  Se163  1  0.74542470  0.24333475  0.45247650  1
  Se  Se164  1  0.74398232  0.26491099  0.94084750  1
  Se  Se165  1  0.75056252  0.57938880  0.44971122  1
  Se  Se166  1  0.73944740  0.59642469  0.93972733  1
  Se  Se167  1  0.74780023  0.90800486  0.44144479  1
  Se  Se168  1  0.74316239  0.93363472  0.93823513  1
  Se  Se169  1  0.24814806  0.08919900  0.44452813  1
  Se  Se170  1  0.24945999  0.07858094  0.94769384  1
  Se  Se171  1  0.24948888  0.42284684  0.44485163  1
  Se  Se172  1  0.24967797  0.41671588  0.94450307  1
  Se  Se173  1  0.25690803  0.74645122  0.44182391  1
  Se  Se174  1  0.25743801  0.74339327  0.94036802  1
  Se  Se175  1  0.57899884  0.08118187  0.44615350  1
  Se  Se176  1  0.58656752  0.09053586  0.95591777  1
  Se  Se177  1  0.58053906  0.41614207  0.44722878  1
  Se  Se178  1  0.57857925  0.42297366  0.95028527  1
  Se  Se179  1  0.58008817  0.74881328  0.44100331  1
  Se  Se180  1  0.57738478  0.75583953  0.94574272  1
  Se  Se181  1  0.89958896  0.09178900  0.44733852  1
  Se  Se182  1  0.92961381  0.08907806  0.93357726  1
  Se  Se183  1  0.91586788  0.41662007  0.46095965  1
  Se  Se184  1  0.92126273  0.41563050  0.93774339  1
  Se  Se185  1  0.91977762  0.74684381  0.45257261  1
  Se  Se186  1  0.92719975  0.74456366  0.93785658  1
  Se  Se187  1  0.25067468  0.25595303  0.29605724  1
  Se  Se188  1  0.25057683  0.23840852  0.80146861  1
  Se  Se189  1  0.25301247  0.59066101  0.30216670  1
  Se  Se190  1  0.25335423  0.58318272  0.80314490  1
  Se  Se191  1  0.24364944  0.91218618  0.31438964  1
  Se  Se192  1  0.24258471  0.90632165  0.81265651  1
  Se  Se193  1  0.57295870  0.24048405  0.31462157  1
  Se  Se194  1  0.58226383  0.25432776  0.81059987  1
  Se  Se195  1  0.58307979  0.57984400  0.30203911  1
  Se  Se196  1  0.57984974  0.58026386  0.80706011  1
  Se  Se197  1  0.58275028  0.91433436  0.30085224  1
  Se  Se198  1  0.57596287  0.91704881  0.80706978  1
  Se  Se199  1  0.90392754  0.24505835  0.31148676  1
  Se  Se200  1  0.91539320  0.24909739  0.78848796  1
  Se  Se201  1  0.91742599  0.57636971  0.32137053  1
  Se  Se202  1  0.92194219  0.58193127  0.79973479  1
  Se  Se203  1  0.91550049  0.91900889  0.30732029  1
  Se  Se204  1  0.90795891  0.91259876  0.79865431  1
  Se  Se205  1  0.07917454  0.09168216  0.30428887  1
  Se  Se206  1  0.06728016  0.05896643  0.79655982  1
  Se  Se207  1  0.08927518  0.43115923  0.30936849  1
  Se  Se208  1  0.08758477  0.41344436  0.80148762  1
  Se  Se209  1  0.08678496  0.76037113  0.31669334  1
  Se  Se210  1  0.08334722  0.74249090  0.79930012  1
  Se  Se211  1  0.41752463  0.08710443  0.31422510  1
  Se  Se212  1  0.42590561  0.08629764  0.81593645  1
  Se  Se213  1  0.41022628  0.41455539  0.30200023  1
  Se  Se214  1  0.41504439  0.41523157  0.80390827  1
  Se  Se215  1  0.41437924  0.74592793  0.30012132  1
  Se  Se216  1  0.41786006  0.74863562  0.80017366  1
  Se  Se217  1  0.74140815  0.07482343  0.30369075  1
  Se  Se218  1  0.75732625  0.10056527  0.80563115  1
  Se  Se219  1  0.75619697  0.41474654  0.31951694  1
  Se  Se220  1  0.76268017  0.42502221  0.80687801  1
  Se  Se221  1  0.75088019  0.74254745  0.30422633  1
  Se  Se222  1  0.75973678  0.76584072  0.80614301  1
  Se  Se223  1  0.24410004  0.08906062  0.18839229  1
  Se  Se224  1  0.24422064  0.08908104  0.69338132  1
  Se  Se225  1  0.24833058  0.41709626  0.19367001  1
  Se  Se226  1  0.25585013  0.41449147  0.69612608  1
  Se  Se227  1  0.23063902  0.76708318  0.20169301  1
  Se  Se228  1  0.25949532  0.74231584  0.69793652  1
  Se  Se229  1  0.58174255  0.07637968  0.19844910  1
  Se  Se230  1  0.57469267  0.09214444  0.69362277  1
  Se  Se231  1  0.57587413  0.41939882  0.19152603  1
  Se  Se232  1  0.57619936  0.42767857  0.69106612  1
  Se  Se233  1  0.58472778  0.74271263  0.19559785  1
  Se  Se234  1  0.57893721  0.75681564  0.68514471  1
  Se  Se235  1  0.91977559  0.08280944  0.19921155  1
  Se  Se236  1  0.91871775  0.06721780  0.69469829  1
  Se  Se237  1  0.90889855  0.42564111  0.19994642  1
  Se  Se238  1  0.92270193  0.41060658  0.68925320  1
  Se  Se239  1  0.91204036  0.76041469  0.18912970  1
  Se  Se240  1  0.91632290  0.73714645  0.70146348  1
  Se  Se241  1  0.08725864  0.24884467  0.18479794  1
  Se  Se242  1  0.09072937  0.23721609  0.69954644  1
  Se  Se243  1  0.08262877  0.58105028  0.18952210  1
  Se  Se244  1  0.08502925  0.57852718  0.69467997  1
  Se  Se245  1  0.07985208  0.92650358  0.20734818  1
  Se  Se246  1  0.08749071  0.90679987  0.69594916  1
  Se  Se247  1  0.41409124  0.24826530  0.19964184  1
  Se  Se248  1  0.41508252  0.25620778  0.70135275  1
  Se  Se249  1  0.41263002  0.58505807  0.19477706  1
  Se  Se250  1  0.41238362  0.58893068  0.69366094  1
  Se  Se251  1  0.42276091  0.91073004  0.18806515  1
  Se  Se252  1  0.42190462  0.91699464  0.68689018  1
  Se  Se253  1  0.75358774  0.24206870  0.19389283  1
  Se  Se254  1  0.76029726  0.24158517  0.68500965  1
  Se  Se255  1  0.74776671  0.58516996  0.20732914  1
  Se  Se256  1  0.75626905  0.57702145  0.68808462  1
  Se  Se257  1  0.75009282  0.91395335  0.19936209  1
  Se  Se258  1  0.75892922  0.91030971  0.68626225  1
