# generated using pymatgen
data_In86Cu29Se144
_symmetry_space_group_name_H-M   'P 1'
_cell_length_a   17.59054840
_cell_length_b   17.58929410
_cell_length_c   23.45279593
_cell_angle_alpha   89.99024417
_cell_angle_beta   90.01572601
_cell_angle_gamma   90.01074719
_symmetry_Int_Tables_number   1
_chemical_formula_structural   In86Cu29Se144
_chemical_formula_sum   'In86 Cu29 Se144'
_cell_volume   7256.41953996
_cell_formula_units_Z   1
loop_
 _symmetry_equiv_pos_site_id
 _symmetry_equiv_pos_as_xyz
  1  'x, y, z'
loop_
 _atom_site_type_symbol
 _atom_site_label
 _atom_site_symmetry_multiplicity
 _atom_site_fract_x
 _atom_site_fract_y
 _atom_site_fract_z
 _atom_site_occupancy
  In  In0  1  -0.01046938  0.15023169  0.12276522  1
  In  In1  1  -0.01460825  0.14342555  0.60420696  1
  In  In2  1  0.00940673  0.50528143  0.12087534  1
  In  In3  1  0.00158277  0.49949991  0.61575727  1
  In  In4  1  0.00095168  0.83614888  0.13213171  1
  In  In5  1  -0.00876471  0.85163140  0.62928039  1
  In  In6  1  0.32921384  0.18001584  0.13034863  1
  In  In7  1  0.34236110  0.17422402  0.61995044  1
  In  In8  1  0.32456073  0.51080479  0.13408869  1
  In  In9  1  0.31770431  0.49388559  0.62073356  1
  In  In10  1  0.32551033  0.82854298  0.12426961  1
  In  In11  1  0.34016588  0.82240148  0.61828191  1
  In  In12  1  0.68075516  0.15005329  0.12455940  1
  In  In13  1  0.66103498  0.15964526  0.61854965  1
  In  In14  1  0.68268600  0.50716447  0.12207577  1
  In  In15  1  0.68074635  0.50280786  0.62365468  1
  In  In16  1  0.66007830  0.82912551  0.11680033  1
  In  In17  1  0.66674975  0.82937445  0.62081721  1
  In  In18  1  0.16160616  0.00954037  0.37557858  1
  In  In19  1  0.15853431  0.00992882  0.88302305  1
  In  In20  1  0.17347989  0.32809753  0.37623598  1
  In  In21  1  0.17013160  0.32975883  0.88141085  1
  In  In22  1  0.15191203  0.66453396  0.36110202  1
  In  In23  1  0.16661823  0.66817417  0.88916040  1
  In  In24  1  0.50520513  -0.00743156  0.38318000  1
  In  In25  1  0.49186241  -0.00327421  0.87798064  1
  In  In26  1  0.48762866  0.32956766  0.37500010  1
  In  In27  1  0.49493738  0.34118625  0.86808438  1
  In  In28  1  0.50874844  0.68458495  0.35535879  1
  In  In29  1  0.51377046  0.66955251  0.87439554  1
  In  In30  1  0.84002211  -0.00312325  0.38242228  1
  In  In31  1  0.84735748  -0.01546455  0.88210821  1
  In  In32  1  0.83918769  0.32974653  0.38419054  1
  In  In33  1  0.83906742  0.33034010  0.88420472  1
  In  In34  1  0.83519082  0.67124838  0.37234919  1
  In  In35  1  0.82604639  0.67840528  0.88694464  1
  In  In36  1  -0.00043269  0.16104128  0.37894532  1
  In  In37  1  0.00597076  0.16035790  0.87800468  1
  In  In38  1  -0.00892751  0.51130458  0.38060370  1
  In  In39  1  -0.00067109  0.50249750  0.88860238  1
  In  In40  1  -0.00436513  0.82621983  0.36414504  1
  In  In41  1  -0.01135997  0.84603209  0.88362379  1
  In  In42  1  0.32376633  0.17240909  0.37989234  1
  In  In43  1  0.32085711  0.16567599  0.87342376  1
  In  In44  1  0.32511494  0.49475966  0.36822535  1
  In  In45  1  0.33309532  0.49072960  0.87504372  1
  In  In46  1  0.34103789  0.83267143  0.36981236  1
  In  In47  1  0.33445825  0.83130048  0.88941021  1
  In  In48  1  0.67211119  0.15724075  0.38577926  1
  In  In49  1  0.67342763  0.17368511  0.87520158  1
  In  In50  1  0.67265179  0.51532015  0.37210362  1
  In  In51  1  0.66468381  0.51616083  0.87391238  1
  In  In52  1  0.67033963  0.83213943  0.37455114  1
  In  In53  1  0.68499710  0.82130296  0.89141102  1
  In  In54  1  0.14536269  -0.01879119  0.11889791  1
  In  In55  1  0.14884082  0.00138877  0.62296408  1
  In  In56  1  0.17134705  0.33900255  0.12114326  1
  In  In57  1  0.16913177  0.33176370  0.62139092  1
  In  In58  1  0.16919944  0.67168598  0.13259140  1
  In  In59  1  0.17519601  0.66108471  0.61761543  1
  In  In60  1  0.51029485  -0.01464769  0.12274631  1
  In  In61  1  0.50475355  0.00012881  0.61841317  1
  In  In62  1  0.48809226  0.32675718  0.12955658  1
  In  In63  1  0.49371684  0.31681832  0.62662769  1
  In  In64  1  0.48747223  0.68519483  0.14174190  1
  In  In65  1  0.50441830  0.68023252  0.61868216  1
  In  In66  1  0.84772636  0.00978317  0.12012693  1
  In  In67  1  0.83536492  -0.00237272  0.61876449  1
  In  In68  1  0.83274710  0.32946849  0.12064027  1
  In  In69  1  0.83892714  0.33606935  0.61701311  1
  In  In70  1  0.83587688  0.66864484  0.12856880  1
  In  In71  1  0.83005085  0.66230345  0.62012125  1
  In  In72  1  0.50240091  0.16373418  0.00325728  1
  In  In73  1  0.67053317  -0.00758715  0.25403014  1
  In  In74  1  0.50081214  0.50021272  0.48719090  1
  In  In75  1  0.66435239  -0.00019548  0.74742337  1
  In  In76  1  0.66653890  0.33453128  0.24350729  1
  In  In77  1  0.33173169  0.00379661  0.75258678  1
  In  In78  1  0.66610066  0.33518702  0.74602178  1
  In  In79  1  0.32654717  0.00087675  0.24854326  1
  In  In80  1  0.00427664  0.33092268  0.74306726  1
  In  In81  1  -0.00222570  0.67154833  0.75207273  1
  In  In82  1  0.16037207  0.83369888  0.49537522  1
  In  In83  1  0.50188520  0.50429711  -0.00391021  1
  In  In84  1  0.00218858  0.33186028  0.25526069  1
  In  In85  1  0.33396388  0.66592123  0.74342807  1
  Cu  Cu86  1  0.83833459  0.50576383  0.25126746  1
  Cu  Cu87  1  0.66808202  0.66603290  0.00355368  1
  Cu  Cu88  1  0.00145475  0.66887992  0.00999357  1
  Cu  Cu89  1  0.16835510  0.49518696  0.74961310  1
  Cu  Cu90  1  0.66832369  0.33332633  0.50472936  1
  Cu  Cu91  1  0.33233371  -0.00185964  0.49578256  1
  Cu  Cu92  1  0.67290483  0.32906624  0.00221028  1
  Cu  Cu93  1  -0.00105314  0.67055249  0.49441360  1
  Cu  Cu94  1  0.50030229  0.49841963  0.25587197  1
  Cu  Cu95  1  0.32782300  0.33670487  -0.00001753  1
  Cu  Cu96  1  0.66639130  -0.00475555  0.50046221  1
  Cu  Cu97  1  0.00342606  -0.00252637  0.00200702  1
  Cu  Cu98  1  0.83724818  0.15971249  0.74473532  1
  Cu  Cu99  1  0.00138634  0.32960536  0.00365984  1
  Cu  Cu100  1  0.16008787  0.84109169  0.75426699  1
  Cu  Cu101  1  0.16693316  0.50032266  0.24452418  1
  Cu  Cu102  1  0.49669380  0.50135564  0.75043349  1
  Cu  Cu103  1  0.50635019  0.83206621  0.74886957  1
  Cu  Cu104  1  0.33462737  0.66318527  0.49413197  1
  Cu  Cu105  1  0.00996724  0.33527414  0.49661403  1
  Cu  Cu106  1  0.16250591  0.16815495  0.25279628  1
  Cu  Cu107  1  0.82750167  0.51028515  0.75180154  1
  Cu  Cu108  1  0.67193792  0.67062012  0.49343862  1
  Cu  Cu109  1  0.33341841  0.32859254  0.49772634  1
  Cu  Cu110  1  0.83178890  0.83231383  0.24961534  1
  Cu  Cu111  1  0.16405455  0.16790698  0.75156334  1
  Cu  Cu112  1  0.49753129  0.16496573  0.25460557  1
  Cu  Cu113  1  0.33195321  0.66711975  0.01118229  1
  Cu  Cu114  1  0.33195090  -0.00061517  0.00311300  1
  Se  Se115  1  0.08590733  0.08516645  0.05321508  1
  Se  Se116  1  0.09136684  0.08274018  0.54356997  1
  Se  Se117  1  0.08529002  0.41666350  0.05242008  1
  Se  Se118  1  0.09053305  0.41860257  0.55235610  1
  Se  Se119  1  0.08488795  0.75219330  0.06296579  1
  Se  Se120  1  0.07455490  0.74587605  0.56309188  1
  Se  Se121  1  0.41017160  0.07837354  0.06634493  1
  Se  Se122  1  0.41456162  0.07920672  0.55390727  1
  Se  Se123  1  0.41111207  0.41625784  0.05850438  1
  Se  Se124  1  0.41528089  0.41310972  0.55507034  1
  Se  Se125  1  0.41974467  0.75236077  0.05731622  1
  Se  Se126  1  0.41939401  0.74839289  0.54380704  1
  Se  Se127  1  0.75581947  0.07911922  0.04935162  1
  Se  Se128  1  0.74841743  0.08131114  0.55313248  1
  Se  Se129  1  0.75362912  0.41694306  0.05305855  1
  Se  Se130  1  0.75368423  0.42018005  0.55121003  1
  Se  Se131  1  0.75434288  0.74814453  0.05572880  1
  Se  Se132  1  0.75286437  0.75066173  0.55156352  1
  Se  Se133  1  0.24956796  0.24883698  0.05277283  1
  Se  Se134  1  0.24973821  0.24704772  0.55250093  1
  Se  Se135  1  0.24536698  0.58334456  0.05903431  1
  Se  Se136  1  0.25056967  0.57951578  0.54533630  1
  Se  Se137  1  0.24810395  0.91570133  0.05581131  1
  Se  Se138  1  0.25416605  0.91905057  0.56022006  1
  Se  Se139  1  0.59180225  0.25590584  0.06501678  1
  Se  Se140  1  0.58132486  0.25016920  0.55352828  1
  Se  Se141  1  0.58222812  0.59106662  0.06398217  1
  Se  Se142  1  0.58999692  0.58684692  0.55242439  1
  Se  Se143  1  0.59489605  0.92510257  0.04758024  1
  Se  Se144  1  0.58182829  0.91086945  0.55260877  1
  Se  Se145  1  0.91762941  0.24552206  0.05563920  1
  Se  Se146  1  0.92157607  0.25483474  0.54935759  1
  Se  Se147  1  0.91499674  0.58262840  0.05787258  1
  Se  Se148  1  0.91854827  0.58571488  0.55146315  1
  Se  Se149  1  0.92123493  0.91338000  0.05608018  1
  Se  Se150  1  0.91706044  0.91562673  0.54936042  1
  Se  Se151  1  0.08638287  0.24812682  0.44215172  1
  Se  Se152  1  0.08338453  0.24807998  0.94628259  1
  Se  Se153  1  0.08661904  0.58912392  0.44371669  1
  Se  Se154  1  0.08405299  0.58401564  0.95509193  1
  Se  Se155  1  0.07009923  0.92190746  0.43788305  1
  Se  Se156  1  0.08819412  0.91375884  0.94868779  1
  Se  Se157  1  0.41904237  0.24368306  0.44826901  1
  Se  Se158  1  0.41326938  0.25772863  0.94216213  1
  Se  Se159  1  0.41529579  0.59241569  0.42788655  1
  Se  Se160  1  0.40703235  0.59557048  0.93914874  1
  Se  Se161  1  0.41436517  0.91077963  0.44639941  1
  Se  Se162  1  0.41941431  0.91709368  0.95334954  1
  Se  Se163  1  0.75064552  0.24943454  0.44972399  1
  Se  Se164  1  0.75534304  0.24469981  0.94970587  1
  Se  Se165  1  0.75752552  0.58466508  0.44498249  1
  Se  Se166  1  0.74934907  0.58047754  0.94977574  1
  Se  Se167  1  0.74914127  0.91416913  0.44508627  1
  Se  Se168  1  0.74837890  0.92531340  0.95067794  1
  Se  Se169  1  0.24725453  0.08285775  0.44732787  1
  Se  Se170  1  0.25168079  0.08556465  0.94940862  1
  Se  Se171  1  0.25297207  0.41539572  0.44492390  1
  Se  Se172  1  0.24633032  0.42299335  0.94782135  1
  Se  Se173  1  0.25078258  0.74409633  0.43628113  1
  Se  Se174  1  0.24892342  0.75170927  0.95625515  1
  Se  Se175  1  0.58007025  0.08159704  0.45133611  1
  Se  Se176  1  0.59012574  0.07958339  0.93933615  1
  Se  Se177  1  0.59595120  0.40725479  0.43378421  1
  Se  Se178  1  0.59337719  0.40746122  0.93987543  1
  Se  Se179  1  0.58241787  0.74720129  0.43972175  1
  Se  Se180  1  0.58132618  0.74918961  0.95125838  1
  Se  Se181  1  0.90383292  0.09686589  0.44768908  1
  Se  Se182  1  0.92081944  0.08128480  0.94633376  1
  Se  Se183  1  0.91998938  0.41853624  0.44854122  1
  Se  Se184  1  0.91634831  0.41567454  0.95276931  1
  Se  Se185  1  0.91725242  0.75465284  0.44198918  1
  Se  Se186  1  0.92057746  0.75064299  0.95180491  1
  Se  Se187  1  0.25130171  0.24938321  0.30175105  1
  Se  Se188  1  0.24511804  0.25306057  0.80409536  1
  Se  Se189  1  0.24761600  0.58316513  0.30115593  1
  Se  Se190  1  0.24282536  0.58255606  0.80872722  1
  Se  Se191  1  0.23917257  0.91236635  0.31017057  1
  Se  Se192  1  0.24767637  0.91129996  0.81520192  1
  Se  Se193  1  0.58400350  0.24361337  0.31105252  1
  Se  Se194  1  0.57674711  0.24458367  0.80546275  1
  Se  Se195  1  0.58891107  0.58488004  0.29879522  1
  Se  Se196  1  0.58192595  0.58587575  0.79867803  1
  Se  Se197  1  0.57025632  0.90572907  0.30511900  1
  Se  Se198  1  0.58010109  0.91071861  0.81282023  1
  Se  Se199  1  0.90675067  0.24303037  0.30799669  1
  Se  Se200  1  0.91164256  0.24521340  0.80566162  1
  Se  Se201  1  0.92171724  0.58999902  0.30303306  1
  Se  Se202  1  0.91254298  0.57988307  0.81454577  1
  Se  Se203  1  0.91039974  0.91886850  0.30415283  1
  Se  Se204  1  0.91801962  0.91410166  0.80258489  1
  Se  Se205  1  0.07825024  0.08507525  0.30312825  1
  Se  Se206  1  0.08325362  0.08152088  0.80378195  1
  Se  Se207  1  0.08923087  0.42657074  0.31247551  1
  Se  Se208  1  0.08287380  0.42311913  0.81082062  1
  Se  Se209  1  0.08746404  0.75988044  0.29383115  1
  Se  Se210  1  0.08965471  0.75490784  0.81531283  1
  Se  Se211  1  0.41965366  0.08349508  0.31431600  1
  Se  Se212  1  0.42444888  0.09479995  0.80878468  1
  Se  Se213  1  0.41482616  0.41263396  0.30286307  1
  Se  Se214  1  0.41035121  0.41785086  0.79807502  1
  Se  Se215  1  0.40198342  0.74490150  0.29401643  1
  Se  Se216  1  0.41852887  0.75659247  0.80813805  1
  Se  Se217  1  0.75633946  0.08826381  0.30939514  1
  Se  Se218  1  0.75764180  0.08581874  0.80875200  1
  Se  Se219  1  0.75897396  0.41940301  0.30812359  1
  Se  Se220  1  0.75616122  0.42040478  0.81114692  1
  Se  Se221  1  0.74794641  0.74958616  0.30286248  1
  Se  Se222  1  0.74452122  0.74398611  0.81024578  1
  Se  Se223  1  0.23709955  0.08809681  0.18727280  1
  Se  Se224  1  0.24234391  0.08745673  0.68863549  1
  Se  Se225  1  0.25103739  0.41206671  0.19716958  1
  Se  Se226  1  0.24868279  0.41118628  0.69601989  1
  Se  Se227  1  0.26603264  0.74008655  0.20023928  1
  Se  Se228  1  0.23771300  0.76187146  0.69140861  1
  Se  Se229  1  0.57685238  0.08770029  0.19386672  1
  Se  Se230  1  0.56979146  0.09322370  0.69423596  1
  Se  Se231  1  0.57551365  0.42668912  0.18569883  1
  Se  Se232  1  0.57569736  0.42497055  0.68499594  1
  Se  Se233  1  0.59492735  0.75164344  0.19664855  1
  Se  Se234  1  0.58632689  0.74841312  0.69437455  1
  Se  Se235  1  0.91878099  0.07819721  0.20151564  1
  Se  Se236  1  0.91877583  0.07863001  0.68983577  1
  Se  Se237  1  0.91316502  0.42049568  0.19130745  1
  Se  Se238  1  0.90877700  0.42952997  0.69292444  1
  Se  Se239  1  0.91829344  0.74864270  0.19903135  1
  Se  Se240  1  0.90731459  0.75563317  0.69124448  1
  Se  Se241  1  0.08532025  0.24616186  0.18757307  1
  Se  Se242  1  0.08284540  0.23481056  0.68271641  1
  Se  Se243  1  0.08058294  0.58493720  0.19676323  1
  Se  Se244  1  0.08984074  0.57846709  0.69119801  1
  Se  Se245  1  0.08071256  0.91845837  0.20375474  1
  Se  Se246  1  0.07846708  0.92331475  0.70099478  1
  Se  Se247  1  0.41307123  0.25072942  0.20527950  1
  Se  Se248  1  0.40745854  0.25230789  0.69958305  1
  Se  Se249  1  0.41810554  0.58126988  0.20063656  1
  Se  Se250  1  0.42237639  0.57675692  0.68134414  1
  Se  Se251  1  0.42100642  0.91192656  0.19271597  1
  Se  Se252  1  0.42105682  0.90962583  0.69116138  1
  Se  Se253  1  0.76037525  0.23856161  0.19511938  1
  Se  Se254  1  0.75830588  0.24338681  0.68730283  1
  Se  Se255  1  0.75089158  0.58630122  0.19921961  1
  Se  Se256  1  0.74618603  0.59116697  0.69693771  1
  Se  Se257  1  0.75737316  0.91271119  0.18553760  1
  Se  Se258  1  0.75529632  0.91014130  0.69102647  1
