# generated using pymatgen
data_In86Cu29Se144
_symmetry_space_group_name_H-M   'P 1'
_cell_length_a   17.58247032
_cell_length_b   17.57918207
_cell_length_c   23.43239957
_cell_angle_alpha   90.03562062
_cell_angle_beta   90.00706814
_cell_angle_gamma   89.99540712
_symmetry_Int_Tables_number   1
_chemical_formula_structural   In86Cu29Se144
_chemical_formula_sum   'In86 Cu29 Se144'
_cell_volume   7242.61221919
_cell_formula_units_Z   1
loop_
 _symmetry_equiv_pos_site_id
 _symmetry_equiv_pos_as_xyz
  1  'x, y, z'
loop_
 _atom_site_type_symbol
 _atom_site_label
 _atom_site_symmetry_multiplicity
 _atom_site_fract_x
 _atom_site_fract_y
 _atom_site_fract_z
 _atom_site_occupancy
  In  In0  1  -0.00737819  0.19058617  0.11747432  1
  In  In1  1  -0.00228096  0.18207349  0.62740647  1
  In  In2  1  -0.00497924  0.47204312  0.10713855  1
  In  In3  1  0.01312259  0.49496652  0.63828258  1
  In  In4  1  -0.00745130  0.84379396  0.11910668  1
  In  In5  1  0.00295019  0.81809940  0.62959343  1
  In  In6  1  0.35643824  0.17280195  0.12138031  1
  In  In7  1  0.34810142  0.16333216  0.64159881  1
  In  In8  1  0.32406754  0.49429654  0.11607018  1
  In  In9  1  0.33287859  0.49566597  0.63550613  1
  In  In10  1  0.33158179  0.82555253  0.11705753  1
  In  In11  1  0.32453964  0.84061148  0.62715513  1
  In  In12  1  0.66242317  0.16661413  0.12199246  1
  In  In13  1  0.66273815  0.17132127  0.63180959  1
  In  In14  1  0.65534622  0.49104640  0.12178323  1
  In  In15  1  0.66323899  0.50637382  0.63226136  1
  In  In16  1  0.67391361  0.84883839  0.11334856  1
  In  In17  1  0.65949090  0.83585386  0.63407473  1
  In  In18  1  0.15773824  -0.00528137  0.38455974  1
  In  In19  1  0.17619528  -0.00904589  0.87034268  1
  In  In20  1  0.17285217  0.34264840  0.37344541  1
  In  In21  1  0.16765424  0.34454895  0.87001575  1
  In  In22  1  0.17818139  0.65408563  0.39259393  1
  In  In23  1  0.14825213  0.64438985  0.84993748  1
  In  In24  1  0.51655681  0.00744894  0.36749346  1
  In  In25  1  0.50187947  0.00216000  0.86563854  1
  In  In26  1  0.50042417  0.33140233  0.38396115  1
  In  In27  1  0.50892190  0.32068818  0.87276459  1
  In  In28  1  0.48521212  0.66938517  0.37917945  1
  In  In29  1  0.50942290  0.67440758  0.86469875  1
  In  In30  1  0.82991318  0.01943085  0.38023835  1
  In  In31  1  0.80464074  0.02238537  0.88003364  1
  In  In32  1  0.81865102  0.31780113  0.36832152  1
  In  In33  1  0.83211402  0.31715478  0.85894900  1
  In  In34  1  0.83144306  0.66758628  0.37541381  1
  In  In35  1  0.84446173  0.67475379  0.87611476  1
  In  In36  1  -0.01219370  0.16603084  0.37895506  1
  In  In37  1  -0.01821412  0.17938540  0.87381022  1
  In  In38  1  0.01322267  0.49530658  0.37934326  1
  In  In39  1  0.00896218  0.50367654  0.86680599  1
  In  In40  1  -0.00047697  0.84427057  0.38292669  1
  In  In41  1  -0.00731852  0.81889842  0.88428717  1
  In  In42  1  0.33517681  0.18430181  0.37723450  1
  In  In43  1  0.35805392  0.18325673  0.85287362  1
  In  In44  1  0.33797637  0.48955254  0.39208165  1
  In  In45  1  0.31963914  0.48931340  0.86266385  1
  In  In46  1  0.33085579  0.82170251  0.37943422  1
  In  In47  1  0.34202666  0.83871276  0.86555207  1
  In  In48  1  0.66589101  0.17207798  0.37867706  1
  In  In49  1  0.66660043  0.16727407  0.86214760  1
  In  In50  1  0.67037740  0.47632851  0.37992663  1
  In  In51  1  0.66033091  0.48701898  0.86730804  1
  In  In52  1  0.65242983  0.84510929  0.37226863  1
  In  In53  1  0.66402417  0.83369349  0.87757616  1
  In  In54  1  0.16051490  -0.00923638  0.12314888  1
  In  In55  1  0.18629909  -0.00000865  0.62329776  1
  In  In56  1  0.16158877  0.34161222  0.12546252  1
  In  In57  1  0.16405293  0.34815116  0.63791062  1
  In  In58  1  0.17910191  0.65450986  0.11892882  1
  In  In59  1  0.16816647  0.66110027  0.63346474  1
  In  In60  1  0.52189644  0.02463601  0.10508179  1
  In  In61  1  0.50192191  0.01788470  0.63916755  1
  In  In62  1  0.51672526  0.30748595  0.15006665  1
  In  In63  1  0.49610389  0.33097504  0.63385904  1
  In  In64  1  0.48378352  0.66729633  0.11276563  1
  In  In65  1  0.51046418  0.65385735  0.63442753  1
  In  In66  1  0.81946825  0.00028731  0.11461970  1
  In  In67  1  0.81956118  0.01213545  0.63338340  1
  In  In68  1  0.83788233  0.32159010  0.11956251  1
  In  In69  1  0.83340308  0.32131962  0.63599253  1
  In  In70  1  0.82762185  0.66944398  0.11328884  1
  In  In71  1  0.83877368  0.67155491  0.64148162  1
  In  In72  1  0.16759147  0.82517985  -0.00432262  1
  In  In73  1  0.49472495  0.83784716  0.50465848  1
  In  In74  1  0.17155101  0.17324181  0.50425542  1
  In  In75  1  -0.00781449  0.01133208  0.25771900  1
  In  In76  1  0.49352264  0.48907284  -0.01423239  1
  In  In77  1  0.83662462  0.49925351  -0.00866813  1
  In  In78  1  -0.00164321  -0.00186144  0.75829171  1
  In  In79  1  0.16712499  0.16709025  -0.00879230  1
  In  In80  1  0.33865375  0.00517187  0.24494708  1
  In  In81  1  0.65982893  0.65800330  0.24326527  1
  In  In82  1  0.00103941  0.66073001  0.24883083  1
  In  In83  1  0.33465911  0.65923699  0.24845113  1
  In  In84  1  0.83596170  0.49186542  0.50974485  1
  In  In85  1  0.83746307  0.83324070  0.50628926  1
  Cu  Cu86  1  0.50304075  0.83106545  0.74793309  1
  Cu  Cu87  1  0.65965725  0.00424868  -0.00816946  1
  Cu  Cu88  1  0.49731869  0.49204951  0.25964611  1
  Cu  Cu89  1  0.83167481  0.49898112  0.75294187  1
  Cu  Cu90  1  0.49865517  0.49827847  0.75321025  1
  Cu  Cu91  1  0.01399450  0.65986518  0.51022524  1
  Cu  Cu92  1  0.82185294  0.83894785  0.24256175  1
  Cu  Cu93  1  0.16482618  0.49138367  0.24877965  1
  Cu  Cu94  1  0.66323564  0.66005554  0.50797953  1
  Cu  Cu95  1  0.16074475  0.82853264  0.26124493  1
  Cu  Cu96  1  0.34406002  0.00482798  0.50649177  1
  Cu  Cu97  1  0.32964133  0.66155928  0.51147184  1
  Cu  Cu98  1  0.33598895  0.33101313  -0.00885872  1
  Cu  Cu99  1  0.65538651  0.32453278  0.50426773  1
  Cu  Cu100  1  0.66828783  0.01405358  0.50334382  1
  Cu  Cu101  1  -0.00333880  0.33682954  0.50821758  1
  Cu  Cu102  1  0.82764225  0.16608460  0.24863228  1
  Cu  Cu103  1  0.34450017  0.00245758  -0.01189280  1
  Cu  Cu104  1  0.83300154  0.83566182  0.76156948  1
  Cu  Cu105  1  0.50795796  0.84258172  0.23718004  1
  Cu  Cu106  1  0.33401577  0.33395769  0.50970874  1
  Cu  Cu107  1  0.83780245  0.48548922  0.24370149  1
  Cu  Cu108  1  0.33246237  0.67039429  -0.01380114  1
  Cu  Cu109  1  -0.01034783  0.00493517  -0.00298837  1
  Cu  Cu110  1  0.66385565  0.67032107  -0.00697558  1
  Cu  Cu111  1  0.16765837  0.16838376  0.75040874  1
  Cu  Cu112  1  0.17067285  0.17432159  0.24438172  1
  Cu  Cu113  1  0.16978363  0.83279152  0.75009913  1
  Cu  Cu114  1  0.00260175  -0.00222082  0.50532556  1
  Se  Se115  1  0.07596744  0.07891646  0.05777234  1
  Se  Se116  1  0.08150204  0.08050542  0.56476942  1
  Se  Se117  1  0.10129957  0.41992078  0.04405056  1
  Se  Se118  1  0.08315844  0.41682891  0.55944827  1
  Se  Se119  1  0.07910830  0.74393091  0.06333738  1
  Se  Se120  1  0.09310351  0.75023681  0.55925699  1
  Se  Se121  1  0.41953576  0.09092144  0.04261842  1
  Se  Se122  1  0.42152255  0.08903478  0.56215031  1
  Se  Se123  1  0.41612421  0.40577878  0.05759954  1
  Se  Se124  1  0.41669804  0.41709963  0.56356714  1
  Se  Se125  1  0.41275033  0.75367164  0.04123971  1
  Se  Se126  1  0.41567139  0.74216022  0.56645525  1
  Se  Se127  1  0.74270035  0.08765652  0.04714431  1
  Se  Se128  1  0.75119824  0.09453768  0.55796003  1
  Se  Se129  1  0.74655691  0.41326432  0.05551723  1
  Se  Se130  1  0.73891515  0.40511304  0.56419219  1
  Se  Se131  1  0.74671872  0.75349422  0.04722996  1
  Se  Se132  1  0.74543813  0.74196882  0.56377351  1
  Se  Se133  1  0.25654025  0.25214464  0.05681697  1
  Se  Se134  1  0.25609497  0.25387281  0.57261622  1
  Se  Se135  1  0.25704114  0.58318131  0.04255603  1
  Se  Se136  1  0.24861453  0.57628391  0.56368330  1
  Se  Se137  1  0.25874271  0.92734242  0.04932747  1
  Se  Se138  1  0.25486250  0.91715966  0.54709026  1
  Se  Se139  1  0.57256886  0.25171058  0.05951815  1
  Se  Se140  1  0.57351961  0.24502628  0.56128731  1
  Se  Se141  1  0.58321437  0.58657929  0.05046293  1
  Se  Se142  1  0.57879564  0.57523996  0.55544845  1
  Se  Se143  1  0.57860689  0.91445670  0.04448027  1
  Se  Se144  1  0.58907168  0.92764575  0.56057467  1
  Se  Se145  1  0.91916250  0.25930244  0.03953697  1
  Se  Se146  1  0.91057380  0.25166993  0.55511843  1
  Se  Se147  1  0.92650277  0.58818147  0.05502727  1
  Se  Se148  1  0.92106282  0.58974999  0.56655981  1
  Se  Se149  1  0.90849913  0.91838547  0.04916462  1
  Se  Se150  1  0.92227668  0.92354403  0.57046331  1
  Se  Se151  1  0.07647566  0.25688291  0.44357452  1
  Se  Se152  1  0.07631808  0.26101007  0.93842404  1
  Se  Se153  1  0.08893642  0.57107616  0.45530763  1
  Se  Se154  1  0.08429205  0.58897230  0.93859715  1
  Se  Se155  1  0.08613739  0.91043581  0.45774142  1
  Se  Se156  1  0.07690690  0.92584661  0.94193538  1
  Se  Se157  1  0.41508511  0.25056487  0.45476005  1
  Se  Se158  1  0.41924714  0.24532853  0.94228679  1
  Se  Se159  1  0.41635861  0.58606636  0.45307713  1
  Se  Se160  1  0.41039540  0.58611509  0.92744324  1
  Se  Se161  1  0.41284810  0.92600733  0.43522871  1
  Se  Se162  1  0.42474568  0.91425157  0.93830808  1
  Se  Se163  1  0.74952985  0.25040135  0.45162647  1
  Se  Se164  1  0.75925997  0.23596878  0.93267219  1
  Se  Se165  1  0.74745031  0.58538713  0.44587531  1
  Se  Se166  1  0.73894584  0.58512380  0.93444370  1
  Se  Se167  1  0.74289559  0.92205466  0.44553816  1
  Se  Se168  1  0.74849189  0.91749612  0.94593617  1
  Se  Se169  1  0.25905609  0.07914937  0.44243809  1
  Se  Se170  1  0.26174602  0.08318185  0.93156705  1
  Se  Se171  1  0.24497978  0.41125811  0.45570682  1
  Se  Se172  1  0.25108759  0.41799695  0.94528811  1
  Se  Se173  1  0.25253385  0.75034935  0.45581647  1
  Se  Se174  1  0.24955433  0.74585715  0.92531597  1
  Se  Se175  1  0.57991921  0.08724616  0.44679014  1
  Se  Se176  1  0.58200694  0.08739282  0.93457639  1
  Se  Se177  1  0.58018207  0.41864840  0.45440924  1
  Se  Se178  1  0.59916835  0.39804484  0.94576277  1
  Se  Se179  1  0.58982274  0.74524142  0.44490711  1
  Se  Se180  1  0.57526306  0.75247866  0.94506480  1
  Se  Se181  1  0.91955833  0.08213254  0.45424053  1
  Se  Se182  1  0.90938276  0.08853291  0.94224859  1
  Se  Se183  1  0.91691003  0.40715419  0.43865888  1
  Se  Se184  1  0.91802488  0.41098213  0.92703987  1
  Se  Se185  1  0.92890673  0.73634809  0.44804044  1
  Se  Se186  1  0.91530044  0.74361534  0.95775185  1
  Se  Se187  1  0.24851319  0.25323676  0.30480508  1
  Se  Se188  1  0.24776176  0.25462106  0.80348629  1
  Se  Se189  1  0.24511953  0.57212769  0.31103963  1
  Se  Se190  1  0.25826736  0.58664151  0.79327152  1
  Se  Se191  1  0.24680492  0.91409252  0.31127270  1
  Se  Se192  1  0.25653989  0.91926465  0.79582616  1
  Se  Se193  1  0.59419049  0.26703984  0.31363957  1
  Se  Se194  1  0.58181461  0.24860797  0.79279668  1
  Se  Se195  1  0.57643670  0.57803643  0.31690707  1
  Se  Se196  1  0.58818051  0.58169495  0.80148615  1
  Se  Se197  1  0.58919499  0.92422561  0.29288446  1
  Se  Se198  1  0.58677558  0.91229317  0.80241780  1
  Se  Se199  1  0.91556413  0.24469820  0.30307341  1
  Se  Se200  1  0.92936706  0.25504814  0.78913360  1
  Se  Se201  1  0.90734337  0.57035073  0.30895122  1
  Se  Se202  1  0.91365711  0.58454265  0.80512468  1
  Se  Se203  1  0.90182547  0.91064471  0.31110767  1
  Se  Se204  1  0.90767244  0.91772728  0.82345419  1
  Se  Se205  1  0.09637614  0.09548683  0.31203846  1
  Se  Se206  1  0.08972662  0.09222076  0.81515796  1
  Se  Se207  1  0.07890708  0.41154567  0.30317144  1
  Se  Se208  1  0.09359934  0.42614183  0.79628922  1
  Se  Se209  1  0.08493135  0.74580853  0.32102718  1
  Se  Se210  1  0.07971943  0.76178677  0.80576395  1
  Se  Se211  1  0.42162134  0.09570617  0.30851621  1
  Se  Se212  1  0.40850926  0.07001000  0.79545744  1
  Se  Se213  1  0.41276248  0.41504011  0.31538729  1
  Se  Se214  1  0.42389220  0.41200028  0.81011162  1
  Se  Se215  1  0.42636631  0.76382029  0.29943449  1
  Se  Se216  1  0.41681668  0.74746470  0.79726074  1
  Se  Se217  1  0.74630862  0.08590421  0.30611502  1
  Se  Se218  1  0.74079945  0.07682247  0.78984814  1
  Se  Se219  1  0.74871481  0.41229058  0.29991648  1
  Se  Se220  1  0.74797540  0.41038428  0.79926514  1
  Se  Se221  1  0.74778373  0.75404550  0.30510258  1
  Se  Se222  1  0.74958087  0.74855368  0.81085164  1
  Se  Se223  1  0.24214644  0.08911001  0.18299693  1
  Se  Se224  1  0.25016483  0.08219597  0.70019233  1
  Se  Se225  1  0.25403388  0.41597803  0.19407887  1
  Se  Se226  1  0.24452601  0.42556953  0.70888122  1
  Se  Se227  1  0.23972780  0.75592660  0.19436342  1
  Se  Se228  1  0.25337208  0.75076009  0.69699603  1
  Se  Se229  1  0.57911218  0.08611096  0.19279541  1
  Se  Se230  1  0.61386081  0.06478208  0.70223460  1
  Se  Se231  1  0.58560744  0.41921795  0.20251993  1
  Se  Se232  1  0.58306196  0.41818121  0.69801954  1
  Se  Se233  1  0.57823449  0.75104645  0.17885965  1
  Se  Se234  1  0.58968327  0.74275014  0.70104636  1
  Se  Se235  1  0.91185283  0.09075524  0.18448528  1
  Se  Se236  1  0.91561223  0.09185015  0.69661267  1
  Se  Se237  1  0.92229561  0.40641544  0.18919601  1
  Se  Se238  1  0.91308272  0.41787661  0.69553274  1
  Se  Se239  1  0.90773525  0.75610626  0.19018273  1
  Se  Se240  1  0.92107991  0.75597773  0.70860600  1
  Se  Se241  1  0.08230435  0.25214821  0.19218165  1
  Se  Se242  1  0.08422200  0.25210334  0.69846057  1
  Se  Se243  1  0.08754920  0.57199040  0.18589317  1
  Se  Se244  1  0.06717818  0.60240823  0.70086201  1
  Se  Se245  1  0.08163103  0.90930856  0.20085667  1
  Se  Se246  1  0.09008645  0.91720550  0.69001600  1
  Se  Se247  1  0.39952060  0.25789152  0.20381226  1
  Se  Se248  1  0.42740666  0.24572228  0.70999597  1
  Se  Se249  1  0.42701566  0.56982031  0.19002451  1
  Se  Se250  1  0.41629009  0.58394416  0.70163100  1
  Se  Se251  1  0.41995997  0.91538797  0.17812800  1
  Se  Se252  1  0.42196776  0.91366270  0.69114671  1
  Se  Se253  1  0.75013820  0.24867236  0.19008645  1
  Se  Se254  1  0.73187264  0.26405261  0.70260741  1
  Se  Se255  1  0.75994071  0.57148393  0.18586568  1
  Se  Se256  1  0.74917334  0.58611349  0.70103287  1
  Se  Se257  1  0.74312960  0.92633564  0.19260704  1
  Se  Se258  1  0.75735622  0.90898030  0.69598675  1
