# generated using pymatgen
data_In86Cu29Se144
_symmetry_space_group_name_H-M   'P 1'
_cell_length_a   17.57997608
_cell_length_b   17.57312465
_cell_length_c   23.44319952
_cell_angle_alpha   89.99587246
_cell_angle_beta   90.00746696
_cell_angle_gamma   89.98426388
_symmetry_Int_Tables_number   1
_chemical_formula_structural   In86Cu29Se144
_chemical_formula_sum   'In86 Cu29 Se144'
_cell_volume   7242.42709329
_cell_formula_units_Z   1
loop_
 _symmetry_equiv_pos_site_id
 _symmetry_equiv_pos_as_xyz
  1  'x, y, z'
loop_
 _atom_site_type_symbol
 _atom_site_label
 _atom_site_symmetry_multiplicity
 _atom_site_fract_x
 _atom_site_fract_y
 _atom_site_fract_z
 _atom_site_occupancy
  In  In0  1  -0.00784738  0.16282101  0.11825481  1
  In  In1  1  -0.01318425  0.15173951  0.61916651  1
  In  In2  1  -0.00033603  0.45456521  0.12360540  1
  In  In3  1  0.00153157  0.50802284  0.61974291  1
  In  In4  1  -0.00495500  0.84381338  0.13702012  1
  In  In5  1  0.00769960  0.84452499  0.61626328  1
  In  In6  1  0.33377436  0.16322314  0.11895233  1
  In  In7  1  0.33626147  0.16722634  0.63065083  1
  In  In8  1  0.32434188  0.48893908  0.10887710  1
  In  In9  1  0.34686259  0.48756963  0.63617136  1
  In  In10  1  0.33860926  0.82632813  0.12317069  1
  In  In11  1  0.33430126  0.83656499  0.62742276  1
  In  In12  1  0.66771067  0.15521952  0.11695769  1
  In  In13  1  0.67396880  0.16492969  0.63351791  1
  In  In14  1  0.66783311  0.50023588  0.11900197  1
  In  In15  1  0.66826051  0.48866577  0.62296629  1
  In  In16  1  0.67046364  0.86775030  0.11945763  1
  In  In17  1  0.68032415  0.84999124  0.61569373  1
  In  In18  1  0.14960693  0.01807498  0.39231728  1
  In  In19  1  0.17968732  0.01167734  0.86649474  1
  In  In20  1  0.15300035  0.32862448  0.37245762  1
  In  In21  1  0.17565272  0.31458109  0.89089815  1
  In  In22  1  0.17738676  0.67030948  0.37680788  1
  In  In23  1  0.17343244  0.65932870  0.87638713  1
  In  In24  1  0.50438694  -0.00526214  0.38391053  1
  In  In25  1  0.49379114  0.00976464  0.87017043  1
  In  In26  1  0.48871612  0.32335141  0.37653791  1
  In  In27  1  0.50463099  0.32970254  0.87301294  1
  In  In28  1  0.51161070  0.67730954  0.37608150  1
  In  In29  1  0.48669438  0.67831119  0.87673270  1
  In  In30  1  0.83406130  -0.00038791  0.37235831  1
  In  In31  1  0.83014197  0.01832575  0.85673646  1
  In  In32  1  0.83926083  0.32314924  0.38315661  1
  In  In33  1  0.82093204  0.32298602  0.86826698  1
  In  In34  1  0.83333981  0.66793778  0.38357577  1
  In  In35  1  0.83870039  0.66728916  0.87152868  1
  In  In36  1  0.00052851  0.16148033  0.37269463  1
  In  In37  1  0.00628140  0.16935025  0.87966608  1
  In  In38  1  -0.00577443  0.48375511  0.36888620  1
  In  In39  1  0.00576027  0.49783735  0.88324272  1
  In  In40  1  -0.02240194  0.85849451  0.38879294  1
  In  In41  1  -0.01376953  0.84594639  0.87648797  1
  In  In42  1  0.33765529  0.16162372  0.38776798  1
  In  In43  1  0.33454779  0.16657353  0.87088964  1
  In  In44  1  0.32754504  0.49572991  0.37555438  1
  In  In45  1  0.33477859  0.49992679  0.87402871  1
  In  In46  1  0.33109285  0.83673522  0.39171040  1
  In  In47  1  0.34956581  0.85137084  0.85734597  1
  In  In48  1  0.68069414  0.15255902  0.38537882  1
  In  In49  1  0.65205138  0.16625382  0.86796115  1
  In  In50  1  0.66736481  0.51044368  0.37697415  1
  In  In51  1  0.66932817  0.47816353  0.87233817  1
  In  In52  1  0.66067748  0.84405950  0.38222140  1
  In  In53  1  0.65019290  0.84535779  0.87992546  1
  In  In54  1  0.15573250  0.01048697  0.12713842  1
  In  In55  1  0.16577133  0.00070684  0.62575187  1
  In  In56  1  0.12982791  0.30337649  0.08258411  1
  In  In57  1  0.18258119  0.32508665  0.62972780  1
  In  In58  1  0.17875924  0.66748070  0.12464624  1
  In  In59  1  0.17051828  0.67329304  0.62441065  1
  In  In60  1  0.51783730  0.01354371  0.10310480  1
  In  In61  1  0.50942383  0.01159918  0.63412413  1
  In  In62  1  0.49544281  0.32542715  0.11043253  1
  In  In63  1  0.53088641  0.29383898  0.66855234  1
  In  In64  1  0.50410751  0.66826283  0.11108252  1
  In  In65  1  0.48796717  0.67030399  0.63139699  1
  In  In66  1  0.81990281  0.00978668  0.14248551  1
  In  In67  1  0.83478697  0.01073513  0.62804735  1
  In  In68  1  0.86402673  0.31419204  0.13501383  1
  In  In69  1  0.81857008  0.31729428  0.61199065  1
  In  In70  1  0.83149537  0.66132554  0.12817865  1
  In  In71  1  0.83538892  0.67079469  0.61466021  1
  In  In72  1  0.50019861  0.49802697  0.49880317  1
  In  In73  1  0.17377744  0.83724865  0.00194588  1
  In  In74  1  0.33714226  0.66860051  0.25463101  1
  In  In75  1  0.16539680  0.49588236  0.49579603  1
  In  In76  1  0.67055712  0.33170637  0.25850673  1
  In  In77  1  -0.00086894  0.33203943  0.75363732  1
  In  In78  1  0.82661668  0.83814077  0.00114638  1
  In  In79  1  0.00682771  0.67309350  0.75016281  1
  In  In80  1  0.00410276  0.66848269  0.25405807  1
  In  In81  1  0.32803152  0.00093895  0.24435199  1
  In  In82  1  0.66608644  0.67271538  0.75626172  1
  In  In83  1  0.66985765  0.67528309  0.24682312  1
  In  In84  1  0.82987798  0.48463555  0.00339528  1
  In  In85  1  0.32446587  0.33020139  0.24736031  1
  Cu  Cu86  1  0.17779917  0.49649635  0.75712850  1
  Cu  Cu87  1  0.33512829  0.66683651  -0.00494262  1
  Cu  Cu88  1  -0.00252748  0.66747022  0.49989384  1
  Cu  Cu89  1  0.83574051  0.84487843  0.74561806  1
  Cu  Cu90  1  0.66738070  0.32074856  -0.00390131  1
  Cu  Cu91  1  0.50852364  0.84645338  0.24905707  1
  Cu  Cu92  1  0.33600863  0.00426785  -0.00896999  1
  Cu  Cu93  1  0.33973466  0.33944611  -0.00991300  1
  Cu  Cu94  1  0.83837997  0.16696772  0.25525210  1
  Cu  Cu95  1  0.34392642  0.32250544  0.51083054  1
  Cu  Cu96  1  0.83628001  0.49713846  0.74107519  1
  Cu  Cu97  1  0.49709078  0.49991773  0.75572388  1
  Cu  Cu98  1  -0.00000480  0.32770056  0.49683862  1
  Cu  Cu99  1  -0.00609844  0.00244422  0.50174953  1
  Cu  Cu100  1  0.16054851  0.84593259  0.26218965  1
  Cu  Cu101  1  0.66643662  0.66124389  -0.00292178  1
  Cu  Cu102  1  0.66325293  0.32753693  0.50965649  1
  Cu  Cu103  1  -0.00329689  0.00717811  -0.00413817  1
  Cu  Cu104  1  0.33587466  -0.00218696  0.51192765  1
  Cu  Cu105  1  0.49693807  0.49955029  0.23552227  1
  Cu  Cu106  1  0.66385561  0.67256214  0.49912949  1
  Cu  Cu107  1  0.00481084  0.66185778  0.00824305  1
  Cu  Cu108  1  0.15652619  0.49072203  0.23680756  1
  Cu  Cu109  1  0.50590638  0.15673558  0.24696542  1
  Cu  Cu110  1  0.33136180  0.66931988  0.50695441  1
  Cu  Cu111  1  0.49951093  0.83849100  0.74567963  1
  Cu  Cu112  1  0.66491488  0.00958055  0.50405206  1
  Cu  Cu113  1  0.16636031  0.83384061  0.74407005  1
  Cu  Cu114  1  0.16464097  0.16402989  0.75095225  1
  Se  Se115  1  0.08553681  0.08605763  0.04919185  1
  Se  Se116  1  0.08350754  0.08183815  0.55342511  1
  Se  Se117  1  0.09795449  0.43866956  0.04565314  1
  Se  Se118  1  0.08140146  0.40471775  0.56020065  1
  Se  Se119  1  0.07742582  0.75242313  0.06463212  1
  Se  Se120  1  0.08253882  0.74549809  0.55485008  1
  Se  Se121  1  0.41729272  0.08941455  0.04628992  1
  Se  Se122  1  0.41891252  0.08355387  0.56210956  1
  Se  Se123  1  0.42455097  0.42165805  0.04526820  1
  Se  Se124  1  0.42683441  0.40517200  0.56488647  1
  Se  Se125  1  0.41616649  0.75247460  0.04759347  1
  Se  Se126  1  0.41773833  0.75253169  0.55651861  1
  Se  Se127  1  0.74927733  0.06226414  0.05640103  1
  Se  Se128  1  0.75158759  0.09019951  0.55630041  1
  Se  Se129  1  0.74548260  0.39230194  0.06542069  1
  Se  Se130  1  0.75163806  0.42028273  0.54820568  1
  Se  Se131  1  0.73987373  0.74194143  0.06140381  1
  Se  Se132  1  0.75156823  0.75532629  0.54942447  1
  Se  Se133  1  0.26321964  0.25665268  0.05030958  1
  Se  Se134  1  0.24975907  0.24145034  0.55477495  1
  Se  Se135  1  0.24864863  0.58837491  0.04825213  1
  Se  Se136  1  0.25812649  0.57647532  0.56182983  1
  Se  Se137  1  0.26154368  0.93160823  0.06227454  1
  Se  Se138  1  0.24650530  0.91310537  0.55771869  1
  Se  Se139  1  0.58246146  0.23828912  0.04979459  1
  Se  Se140  1  0.58232813  0.25056585  0.56904041  1
  Se  Se141  1  0.58309834  0.57414708  0.04795695  1
  Se  Se142  1  0.58597338  0.59153016  0.56194220  1
  Se  Se143  1  0.56960716  0.89915265  0.04580800  1
  Se  Se144  1  0.58098603  0.92609463  0.55743910  1
  Se  Se145  1  0.90476293  0.23864771  0.04769827  1
  Se  Se146  1  0.91639403  0.24463197  0.54998510  1
  Se  Se147  1  0.92106311  0.57895315  0.06227666  1
  Se  Se148  1  0.91487229  0.58018277  0.54948814  1
  Se  Se149  1  0.92450605  0.92226767  0.05754034  1
  Se  Se150  1  0.90963793  0.92061567  0.55661668  1
  Se  Se151  1  0.08364255  0.24436406  0.44545168  1
  Se  Se152  1  0.07364938  0.25501144  0.95552559  1
  Se  Se153  1  0.07526423  0.58714621  0.43604205  1
  Se  Se154  1  0.08599025  0.58716322  0.94746237  1
  Se  Se155  1  0.08280481  0.91479770  0.45426516  1
  Se  Se156  1  0.08184138  0.92480125  0.94031597  1
  Se  Se157  1  0.42698576  0.24100919  0.45449065  1
  Se  Se158  1  0.41820815  0.24873037  0.94042498  1
  Se  Se159  1  0.40795543  0.59278088  0.43958794  1
  Se  Se160  1  0.41934455  0.58193312  0.94388942  1
  Se  Se161  1  0.41994072  0.91733317  0.45484596  1
  Se  Se162  1  0.41732048  0.91684121  0.94107312  1
  Se  Se163  1  0.74774154  0.25042932  0.45107776  1
  Se  Se164  1  0.74621793  0.23893816  0.93892747  1
  Se  Se165  1  0.74669892  0.58517896  0.45022990  1
  Se  Se166  1  0.74973924  0.58350178  0.93801904  1
  Se  Se167  1  0.74724870  0.92706299  0.44714279  1
  Se  Se168  1  0.74929115  0.92924263  0.93523822  1
  Se  Se169  1  0.25427632  0.08017239  0.45521965  1
  Se  Se170  1  0.24854650  0.08913677  0.94479739  1
  Se  Se171  1  0.26179625  0.39803854  0.44481562  1
  Se  Se172  1  0.24817909  0.42239099  0.94449254  1
  Se  Se173  1  0.24412663  0.75029740  0.45478636  1
  Se  Se174  1  0.26090903  0.75561283  0.93494830  1
  Se  Se175  1  0.57823043  0.08923657  0.44954775  1
  Se  Se176  1  0.57702801  0.08477679  0.94202206  1
  Se  Se177  1  0.59067669  0.40505891  0.43892442  1
  Se  Se178  1  0.58634924  0.41091060  0.94733396  1
  Se  Se179  1  0.57829617  0.75884545  0.45171579  1
  Se  Se180  1  0.58472882  0.74512199  0.94387518  1
  Se  Se181  1  0.91423485  0.08386889  0.44278736  1
  Se  Se182  1  0.91192445  0.08245208  0.93744390  1
  Se  Se183  1  0.91789766  0.41697964  0.44852379  1
  Se  Se184  1  0.91809277  0.40122531  0.93796200  1
  Se  Se185  1  0.91260369  0.75400787  0.45094293  1
  Se  Se186  1  0.92488503  0.74082741  0.94717166  1
  Se  Se187  1  0.24752134  0.23870859  0.31388611  1
  Se  Se188  1  0.24321719  0.25048350  0.80573061  1
  Se  Se189  1  0.23701575  0.56869849  0.30050791  1
  Se  Se190  1  0.25754828  0.58893094  0.80339978  1
  Se  Se191  1  0.24965724  0.91871770  0.31867867  1
  Se  Se192  1  0.24835161  0.92005749  0.79633942  1
  Se  Se193  1  0.57843003  0.23720384  0.31246998  1
  Se  Se194  1  0.58826945  0.26266156  0.79637276  1
  Se  Se195  1  0.57209508  0.57832195  0.30134267  1
  Se  Se196  1  0.58060950  0.57899003  0.81564756  1
  Se  Se197  1  0.58766681  0.92654842  0.30673044  1
  Se  Se198  1  0.57840284  0.92029691  0.80304273  1
  Se  Se199  1  0.91966233  0.25320841  0.30623641  1
  Se  Se200  1  0.90872112  0.23516202  0.80400833  1
  Se  Se201  1  0.90790762  0.57988727  0.30950510  1
  Se  Se202  1  0.91687153  0.57235613  0.80466103  1
  Se  Se203  1  0.91901434  0.92161963  0.30174351  1
  Se  Se204  1  0.92108967  0.92588751  0.79904541  1
  Se  Se205  1  0.08770513  0.08022709  0.30599653  1
  Se  Se206  1  0.07928883  0.08484471  0.80587062  1
  Se  Se207  1  0.08002487  0.41022392  0.29761139  1
  Se  Se208  1  0.09367257  0.41770285  0.81440710  1
  Se  Se209  1  0.08481457  0.75977113  0.31934820  1
  Se  Se210  1  0.09032027  0.76316439  0.81540199  1
  Se  Se211  1  0.42057811  0.08486878  0.30909484  1
  Se  Se212  1  0.39985688  0.07431606  0.79972744  1
  Se  Se213  1  0.42227952  0.42440257  0.30380540  1
  Se  Se214  1  0.41628777  0.41382551  0.80731222  1
  Se  Se215  1  0.42537234  0.76696461  0.30930172  1
  Se  Se216  1  0.41719186  0.74830915  0.79455982  1
  Se  Se217  1  0.74903234  0.08382588  0.30281955  1
  Se  Se218  1  0.72073880  0.07390689  0.79392186  1
  Se  Se219  1  0.75804449  0.42384917  0.31600828  1
  Se  Se220  1  0.75491011  0.41506187  0.79629018  1
  Se  Se221  1  0.75285816  0.75826369  0.31532434  1
  Se  Se222  1  0.75963935  0.76725159  0.81190604  1
  Se  Se223  1  0.23918968  0.10227604  0.19405129  1
  Se  Se224  1  0.24807016  0.08230417  0.69614201  1
  Se  Se225  1  0.23919346  0.41136639  0.17989933  1
  Se  Se226  1  0.25424945  0.41060485  0.70129916  1
  Se  Se227  1  0.24146802  0.76497422  0.20072254  1
  Se  Se228  1  0.25225115  0.74845953  0.69636407  1
  Se  Se229  1  0.58531170  0.07567381  0.19016039  1
  Se  Se230  1  0.59613488  0.08328863  0.70792611  1
  Se  Se231  1  0.57846465  0.41087219  0.18692365  1
  Se  Se232  1  0.58548019  0.42612401  0.70022564  1
  Se  Se233  1  0.57790970  0.75980009  0.18496978  1
  Se  Se234  1  0.58575220  0.76017372  0.68771202  1
  Se  Se235  1  0.92145310  0.08475916  0.19870432  1
  Se  Se236  1  0.92058691  0.08311079  0.70102566  1
  Se  Se237  1  0.90030379  0.42676390  0.19956281  1
  Se  Se238  1  0.91654062  0.41775301  0.68284517  1
  Se  Se239  1  0.90404751  0.75470607  0.19793101  1
  Se  Se240  1  0.91296606  0.75692804  0.68962029  1
  Se  Se241  1  0.07239924  0.26172258  0.17752453  1
  Se  Se242  1  0.08434775  0.24262282  0.68909605  1
  Se  Se243  1  0.08223127  0.58191736  0.18232546  1
  Se  Se244  1  0.09621769  0.57354901  0.69503724  1
  Se  Se245  1  0.08445537  0.92462737  0.20038430  1
  Se  Se246  1  0.08008900  0.91737351  0.69502610  1
  Se  Se247  1  0.42616140  0.24250074  0.19215188  1
  Se  Se248  1  0.39479087  0.26736574  0.70063937  1
  Se  Se249  1  0.41470847  0.58220458  0.18167002  1
  Se  Se250  1  0.41537603  0.58482100  0.70249758  1
  Se  Se251  1  0.42495871  0.91771793  0.18515668  1
  Se  Se252  1  0.41712950  0.92303492  0.69370895  1
  Se  Se253  1  0.75207854  0.24029345  0.19292111  1
  Se  Se254  1  0.74965383  0.26190199  0.69735405  1
  Se  Se255  1  0.75338676  0.56874643  0.19676222  1
  Se  Se256  1  0.75590938  0.58639095  0.69043266  1
  Se  Se257  1  0.75848618  0.90157184  0.20107716  1
  Se  Se258  1  0.74792553  0.92515418  0.69532059  1
