# generated using pymatgen
data_In86Cu29Se144
_symmetry_space_group_name_H-M   'P 1'
_cell_length_a   17.58931996
_cell_length_b   17.59513431
_cell_length_c   23.45904884
_cell_angle_alpha   90.02340437
_cell_angle_beta   90.00016223
_cell_angle_gamma   90.01062113
_symmetry_Int_Tables_number   1
_chemical_formula_structural   In86Cu29Se144
_chemical_formula_sum   'In86 Cu29 Se144'
_cell_volume   7260.25695122
_cell_formula_units_Z   1
loop_
 _symmetry_equiv_pos_site_id
 _symmetry_equiv_pos_as_xyz
  1  'x, y, z'
loop_
 _atom_site_type_symbol
 _atom_site_label
 _atom_site_symmetry_multiplicity
 _atom_site_fract_x
 _atom_site_fract_y
 _atom_site_fract_z
 _atom_site_occupancy
  In  In0  1  0.01612729  0.17002990  0.12063930  1
  In  In1  1  -0.00108034  0.16649220  0.62916104  1
  In  In2  1  0.00090222  0.50215374  0.12333390  1
  In  In3  1  -0.00887247  0.49638806  0.63490970  1
  In  In4  1  -0.01251196  0.83255893  0.11766841  1
  In  In5  1  -0.00062122  0.83272506  0.62579751  1
  In  In6  1  0.31874856  0.17862166  0.11743833  1
  In  In7  1  0.32589173  0.18182900  0.63582752  1
  In  In8  1  0.33881993  0.49764618  0.11439930  1
  In  In9  1  0.32322907  0.50258871  0.63673276  1
  In  In10  1  0.31734056  0.82763586  0.12484681  1
  In  In11  1  0.31786628  0.83208602  0.62804554  1
  In  In12  1  0.67747806  0.16597392  0.13401271  1
  In  In13  1  0.66826734  0.15253562  0.62878966  1
  In  In14  1  0.65700442  0.49742668  0.11702372  1
  In  In15  1  0.69332863  0.49445967  0.63175550  1
  In  In16  1  0.68545947  0.82901861  0.12463835  1
  In  In17  1  0.67813538  0.81863965  0.63169224  1
  In  In18  1  0.15111417  0.01311097  0.38636889  1
  In  In19  1  0.15694822  0.01706396  0.87643984  1
  In  In20  1  0.12078932  0.34604563  0.38261197  1
  In  In21  1  0.16799429  0.33599658  0.87457572  1
  In  In22  1  0.16322766  0.66604169  0.36923837  1
  In  In23  1  0.15236823  0.65186786  0.86895227  1
  In  In24  1  0.50677957  -0.01086006  0.37210327  1
  In  In25  1  0.50159664  -0.00665242  0.87321907  1
  In  In26  1  0.50163008  0.31831603  0.37398459  1
  In  In27  1  0.49977581  0.35277199  0.87885016  1
  In  In28  1  0.49435333  0.67087662  0.37241090  1
  In  In29  1  0.49001632  0.65453986  0.86891816  1
  In  In30  1  0.82838189  0.00337991  0.38168679  1
  In  In31  1  0.83070874  -0.00508179  0.86470670  1
  In  In32  1  0.83999444  0.33858231  0.37335034  1
  In  In33  1  0.84752768  0.34004875  0.87054462  1
  In  In34  1  0.84856343  0.65365652  0.38585485  1
  In  In35  1  0.84050003  0.66522530  0.87493079  1
  In  In36  1  -0.01711212  0.18228290  0.39255862  1
  In  In37  1  0.01724441  0.17899352  0.85417151  1
  In  In38  1  -0.00949164  0.49060604  0.35503499  1
  In  In39  1  -0.00043241  0.50344788  0.87845249  1
  In  In40  1  0.00557488  0.83001284  0.38460526  1
  In  In41  1  -0.01121337  0.82190206  0.86757100  1
  In  In42  1  0.32531590  0.16504826  0.37638781  1
  In  In43  1  0.29912414  0.18220072  0.88518001  1
  In  In44  1  0.31046954  0.50011547  0.36768148  1
  In  In45  1  0.32715403  0.49591254  0.87711703  1
  In  In46  1  0.32763733  0.82062652  0.37059310  1
  In  In47  1  0.34171407  0.83046738  0.87574691  1
  In  In48  1  0.67770591  0.17571937  0.36767248  1
  In  In49  1  0.67956970  0.16097661  0.87103353  1
  In  In50  1  0.68729810  0.50233908  0.37456234  1
  In  In51  1  0.66486566  0.50708347  0.87870191  1
  In  In52  1  0.66624499  0.84098259  0.37404079  1
  In  In53  1  0.68066612  0.84157432  0.86867494  1
  In  In54  1  0.15475744  0.01282867  0.11430340  1
  In  In55  1  0.15996737  -0.00981799  0.62313115  1
  In  In56  1  0.16370482  0.32734854  0.11602344  1
  In  In57  1  0.16041070  0.32834651  0.63695501  1
  In  In58  1  0.17774154  0.65242493  0.14094818  1
  In  In59  1  0.15460926  0.67040475  0.63557141  1
  In  In60  1  0.50809451  0.01129722  0.12405988  1
  In  In61  1  0.50523861  0.00540427  0.62826827  1
  In  In62  1  0.49754222  0.34591867  0.12452592  1
  In  In63  1  0.49593696  0.32336710  0.62972097  1
  In  In64  1  0.49619391  0.65056050  0.12180267  1
  In  In65  1  0.49985659  0.66595256  0.63307077  1
  In  In66  1  0.83764850  -0.01173126  0.12403586  1
  In  In67  1  0.83523083  -0.00204949  0.62465684  1
  In  In68  1  0.82819703  0.34391525  0.12974739  1
  In  In69  1  0.85223622  0.34219633  0.61082312  1
  In  In70  1  0.84493181  0.67179976  0.11811013  1
  In  In71  1  0.83639527  0.66438955  0.62689938  1
  In  In72  1  0.00034953  0.00166316  0.24511959  1
  In  In73  1  0.66885650  0.66451254  0.24991853  1
  In  In74  1  0.49958796  0.83270670  0.49447702  1
  In  In75  1  0.49395563  0.16996424  0.00199959  1
  In  In76  1  0.50421262  0.83031286  -0.00939064  1
  In  In77  1  0.15341986  0.50103661  0.50540532  1
  In  In78  1  0.33502738  -0.00411737  0.25017536  1
  In  In79  1  0.67031158  0.33374225  0.75471142  1
  In  In80  1  0.50179668  0.16212106  0.50468044  1
  In  In81  1  0.33094174  0.33427644  0.24557424  1
  In  In82  1  0.50332099  0.50174025  0.49829731  1
  In  In83  1  0.16013095  0.83404588  -0.00327781  1
  In  In84  1  0.33453683  -0.00292321  0.75580380  1
  In  In85  1  0.84408460  0.16842752  -0.01027149  1
  Cu  Cu86  1  0.49782075  0.50149066  0.75303659  1
  Cu  Cu87  1  0.83236447  0.83472313  0.25068478  1
  Cu  Cu88  1  0.51223140  0.16544140  0.24748312  1
  Cu  Cu89  1  0.83344750  0.16259383  0.74566148  1
  Cu  Cu90  1  0.67260605  -0.00394795  0.50102507  1
  Cu  Cu91  1  0.83842501  0.17009846  0.25725223  1
  Cu  Cu92  1  0.50295553  0.83171601  0.25028132  1
  Cu  Cu93  1  0.32182143  0.00146176  0.50272251  1
  Cu  Cu94  1  0.83557578  0.83048080  0.74570463  1
  Cu  Cu95  1  0.32202699  0.33707823  0.51003340  1
  Cu  Cu96  1  0.66533622  0.33984707  0.00181711  1
  Cu  Cu97  1  0.32368595  0.67184703  0.49683947  1
  Cu  Cu98  1  0.00149871  0.66251791  -0.00184498  1
  Cu  Cu99  1  0.00272713  0.33755365  -0.00482104  1
  Cu  Cu100  1  0.16070044  0.83166497  0.25382109  1
  Cu  Cu101  1  0.16581185  0.49325469  0.75703173  1
  Cu  Cu102  1  0.16413964  0.82762693  0.75060860  1
  Cu  Cu103  1  0.16437277  0.17545945  0.25044347  1
  Cu  Cu104  1  0.00242876  0.66901598  0.50678907  1
  Cu  Cu105  1  0.67597193  -0.00478444  -0.00366750  1
  Cu  Cu106  1  0.49474525  0.16539524  0.75317829  1
  Cu  Cu107  1  0.83608256  0.49806850  0.24713242  1
  Cu  Cu108  1  0.50699820  0.82989533  0.75522306  1
  Cu  Cu109  1  0.33010358  0.66061513  -0.00192375  1
  Cu  Cu110  1  0.67538428  0.66906156  -0.00247572  1
  Cu  Cu111  1  -0.00121890  -0.00118080  0.50805528  1
  Cu  Cu112  1  0.67760479  0.66150386  0.50648753  1
  Cu  Cu113  1  0.49985392  0.49351643  0.24360308  1
  Cu  Cu114  1  0.67982839  0.33148961  0.49644728  1
  Se  Se115  1  0.07773614  0.08955819  0.04235154  1
  Se  Se116  1  0.08339937  0.08285092  0.55885006  1
  Se  Se117  1  0.08241943  0.41901223  0.05319279  1
  Se  Se118  1  0.07138588  0.40563457  0.56379032  1
  Se  Se119  1  0.08232415  0.74058813  0.06173391  1
  Se  Se120  1  0.08835289  0.75111781  0.55758101  1
  Se  Se121  1  0.40507495  0.07611565  0.06004147  1
  Se  Se122  1  0.40419447  0.07787444  0.56386948  1
  Se  Se123  1  0.41744190  0.40973853  0.04849649  1
  Se  Se124  1  0.41119847  0.41529237  0.56212846  1
  Se  Se125  1  0.40974232  0.74583977  0.05574438  1
  Se  Se126  1  0.41117584  0.74428044  0.55743562  1
  Se  Se127  1  0.75133679  0.08278788  0.05470678  1
  Se  Se128  1  0.75113362  0.08252156  0.55468087  1
  Se  Se129  1  0.75238035  0.42032963  0.05395785  1
  Se  Se130  1  0.75653743  0.42076983  0.54880084  1
  Se  Se131  1  0.75871791  0.75324671  0.04913217  1
  Se  Se132  1  0.75826346  0.75121147  0.55434322  1
  Se  Se133  1  0.24821912  0.25529981  0.04279902  1
  Se  Se134  1  0.24253572  0.25097513  0.56166955  1
  Se  Se135  1  0.24596776  0.58548060  0.05659914  1
  Se  Se136  1  0.25151827  0.58986767  0.56054202  1
  Se  Se137  1  0.25346363  0.92507745  0.05625972  1
  Se  Se138  1  0.24559623  0.90997779  0.55273029  1
  Se  Se139  1  0.59411410  0.25195651  0.06141101  1
  Se  Se140  1  0.59542883  0.25795653  0.55845251  1
  Se  Se141  1  0.58503938  0.58883195  0.04767234  1
  Se  Se142  1  0.59146001  0.58476259  0.56364269  1
  Se  Se143  1  0.59237697  0.91866195  0.05697908  1
  Se  Se144  1  0.58833748  0.91749182  0.55971886  1
  Se  Se145  1  0.92089317  0.25959292  0.05826629  1
  Se  Se146  1  0.90786702  0.23059496  0.55528908  1
  Se  Se147  1  0.91513705  0.57888762  0.05042521  1
  Se  Se148  1  0.92200003  0.58190309  0.55910961  1
  Se  Se149  1  0.93045280  0.93324285  0.05118592  1
  Se  Se150  1  0.91448474  0.91161766  0.55557960  1
  Se  Se151  1  0.09759846  0.23436264  0.44876988  1
  Se  Se152  1  0.07855269  0.25027597  0.93999536  1
  Se  Se153  1  0.07099154  0.58783280  0.43902126  1
  Se  Se154  1  0.08823559  0.57789133  0.95107953  1
  Se  Se155  1  0.08347746  0.91750712  0.45246479  1
  Se  Se156  1  0.07154028  0.91786063  0.93398016  1
  Se  Se157  1  0.40569152  0.25715458  0.44986671  1
  Se  Se158  1  0.41094216  0.25904992  0.93904037  1
  Se  Se159  1  0.40379663  0.58728757  0.44020783  1
  Se  Se160  1  0.41566682  0.57927846  0.94536203  1
  Se  Se161  1  0.40312141  0.92550668  0.43999993  1
  Se  Se162  1  0.40694391  0.92852386  0.94733073  1
  Se  Se163  1  0.75927087  0.24861625  0.44112907  1
  Se  Se164  1  0.74398191  0.26226149  0.93908207  1
  Se  Se165  1  0.75847423  0.57618221  0.45277513  1
  Se  Se166  1  0.75648493  0.58302450  0.94505132  1
  Se  Se167  1  0.75169339  0.90944726  0.44746421  1
  Se  Se168  1  0.76098554  0.91505483  0.94411576  1
  Se  Se169  1  0.24600764  0.09026412  0.44957898  1
  Se  Se170  1  0.25124777  0.07442082  0.94873192  1
  Se  Se171  1  0.24537203  0.41034624  0.44349306  1
  Se  Se172  1  0.23953180  0.42279417  0.94687867  1
  Se  Se173  1  0.24044853  0.75148094  0.44237623  1
  Se  Se174  1  0.25159595  0.74149765  0.93803983  1
  Se  Se175  1  0.59114172  0.07663547  0.44023570  1
  Se  Se176  1  0.59164314  0.07913076  0.94334526  1
  Se  Se177  1  0.59126657  0.40738062  0.43875369  1
  Se  Se178  1  0.58358975  0.42569008  0.95057525  1
  Se  Se179  1  0.59516042  0.73548991  0.44279508  1
  Se  Se180  1  0.59346632  0.74142782  0.93209554  1
  Se  Se181  1  0.91452996  0.07878994  0.45143334  1
  Se  Se182  1  0.92547213  0.08613108  0.92218034  1
  Se  Se183  1  0.93423175  0.41444503  0.43770297  1
  Se  Se184  1  0.91405501  0.42040441  0.94796865  1
  Se  Se185  1  0.91717604  0.75072922  0.45144619  1
  Se  Se186  1  0.91819501  0.74947370  0.94855072  1
  Se  Se187  1  0.24096886  0.25473287  0.31310839  1
  Se  Se188  1  0.23792976  0.24748783  0.80044524  1
  Se  Se189  1  0.25498798  0.59645101  0.29910848  1
  Se  Se190  1  0.25086573  0.58149169  0.80494390  1
  Se  Se191  1  0.23646898  0.91897803  0.31304130  1
  Se  Se192  1  0.24082985  0.90755925  0.81409272  1
  Se  Se193  1  0.58898825  0.25439437  0.30009047  1
  Se  Se194  1  0.57614810  0.24530917  0.81506980  1
  Se  Se195  1  0.57721565  0.57216265  0.30983136  1
  Se  Se196  1  0.58563529  0.58277517  0.80328845  1
  Se  Se197  1  0.58818551  0.91649292  0.29835492  1
  Se  Se198  1  0.58728698  0.91965690  0.80346235  1
  Se  Se199  1  0.92561617  0.25283730  0.30574955  1
  Se  Se200  1  0.91190901  0.25126215  0.79759898  1
  Se  Se201  1  0.91251219  0.59083226  0.29788303  1
  Se  Se202  1  0.93590718  0.59789829  0.80733883  1
  Se  Se203  1  0.91451203  0.91451565  0.31063569  1
  Se  Se204  1  0.91892984  0.91491462  0.79818039  1
  Se  Se205  1  0.08088215  0.09561331  0.30860222  1
  Se  Se206  1  0.08800065  0.07866440  0.79240282  1
  Se  Se207  1  0.10979911  0.44147992  0.30187219  1
  Se  Se208  1  0.07642357  0.41513437  0.80850636  1
  Se  Se209  1  0.07418823  0.75183961  0.30593161  1
  Se  Se210  1  0.07918959  0.74335762  0.80150344  1
  Se  Se211  1  0.42689072  0.09148756  0.30904035  1
  Se  Se212  1  0.41517651  0.09234368  0.81867872  1
  Se  Se213  1  0.42195571  0.42100748  0.31230207  1
  Se  Se214  1  0.41391444  0.41784581  0.80439455  1
  Se  Se215  1  0.41662716  0.74925260  0.29968173  1
  Se  Se216  1  0.41625021  0.74946289  0.80293802  1
  Se  Se217  1  0.75468131  0.08092306  0.30450841  1
  Se  Se218  1  0.74686515  0.07894308  0.79583541  1
  Se  Se219  1  0.75280032  0.41538605  0.30133239  1
  Se  Se220  1  0.75850823  0.43003969  0.80776670  1
  Se  Se221  1  0.75833336  0.75036230  0.31317971  1
  Se  Se222  1  0.75619538  0.74862360  0.80464716  1
  Se  Se223  1  0.24225390  0.08957895  0.19310002  1
  Se  Se224  1  0.24581931  0.08025594  0.69217296  1
  Se  Se225  1  0.24442874  0.42188172  0.18441916  1
  Se  Se226  1  0.24935298  0.41101263  0.70174438  1
  Se  Se227  1  0.25143324  0.75184866  0.20407846  1
  Se  Se228  1  0.25155658  0.74442737  0.70085536  1
  Se  Se229  1  0.59341155  0.07764851  0.19809988  1
  Se  Se230  1  0.58069942  0.08368971  0.70244038  1
  Se  Se231  1  0.58934053  0.41423409  0.19462403  1
  Se  Se232  1  0.57854185  0.42239054  0.69027629  1
  Se  Se233  1  0.57870245  0.75195310  0.18578709  1
  Se  Se234  1  0.58645956  0.74601960  0.69939344  1
  Se  Se235  1  0.91094145  0.09538044  0.18676539  1
  Se  Se236  1  0.91775888  0.07634693  0.69626692  1
  Se  Se237  1  0.92303380  0.41581056  0.19577231  1
  Se  Se238  1  0.90600108  0.41032341  0.69837073  1
  Se  Se239  1  0.91445500  0.75483575  0.19453173  1
  Se  Se240  1  0.92146796  0.74663145  0.69535931  1
  Se  Se241  1  0.08330526  0.25672913  0.19447341  1
  Se  Se242  1  0.08041328  0.24220252  0.70309172  1
  Se  Se243  1  0.05940295  0.60345131  0.19195193  1
  Se  Se244  1  0.08396374  0.57405622  0.69927015  1
  Se  Se245  1  0.09218938  0.91159225  0.18637578  1
  Se  Se246  1  0.08301918  0.91277256  0.69760274  1
  Se  Se247  1  0.42359701  0.23906005  0.18883609  1
  Se  Se248  1  0.41422986  0.25520995  0.70575784  1
  Se  Se249  1  0.41387779  0.57593324  0.19335417  1
  Se  Se250  1  0.41383772  0.58455524  0.69906221  1
  Se  Se251  1  0.42415785  0.90844035  0.18551895  1
  Se  Se252  1  0.42481071  0.90666365  0.69130802  1
  Se  Se253  1  0.75628160  0.25281297  0.20019929  1
  Se  Se254  1  0.75351971  0.24742300  0.68801946  1
  Se  Se255  1  0.75530953  0.57867475  0.18552924  1
  Se  Se256  1  0.74278364  0.59760066  0.69778212  1
  Se  Se257  1  0.75071718  0.91879087  0.19777512  1
  Se  Se258  1  0.75004936  0.91604375  0.69484761  1
