# generated using pymatgen
data_In86Cu29Se144
_symmetry_space_group_name_H-M   'P 1'
_cell_length_a   17.57657339
_cell_length_b   17.57687115
_cell_length_c   23.42551782
_cell_angle_alpha   90.00560449
_cell_angle_beta   89.99583337
_cell_angle_gamma   89.98125954
_symmetry_Int_Tables_number   1
_chemical_formula_structural   In86Cu29Se144
_chemical_formula_sum   'In86 Cu29 Se144'
_cell_volume   7237.10634423
_cell_formula_units_Z   1
loop_
 _symmetry_equiv_pos_site_id
 _symmetry_equiv_pos_as_xyz
  1  'x, y, z'
loop_
 _atom_site_type_symbol
 _atom_site_label
 _atom_site_symmetry_multiplicity
 _atom_site_fract_x
 _atom_site_fract_y
 _atom_site_fract_z
 _atom_site_occupancy
  In  In0  1  0.00014917  0.16378684  0.12364332  1
  In  In1  1  0.00263818  0.15973528  0.63512507  1
  In  In2  1  0.00640889  0.48821307  0.12643986  1
  In  In3  1  0.00166039  0.49119189  0.64155865  1
  In  In4  1  0.00228462  0.83578511  0.12388935  1
  In  In5  1  0.00946565  0.83414182  0.62395822  1
  In  In6  1  0.31432109  0.16456792  0.12140122  1
  In  In7  1  0.32230201  0.16833231  0.62715145  1
  In  In8  1  0.33734592  0.50647142  0.11210200  1
  In  In9  1  0.33961081  0.48335068  0.63144837  1
  In  In10  1  0.33636155  0.83996520  0.12120670  1
  In  In11  1  0.32086107  0.86162770  0.63791788  1
  In  In12  1  0.68488783  0.16467291  0.12231150  1
  In  In13  1  0.68018218  0.17461909  0.63322659  1
  In  In14  1  0.65459783  0.50363495  0.11989261  1
  In  In15  1  0.65893404  0.49183133  0.62765564  1
  In  In16  1  0.66724158  0.83084784  0.10950018  1
  In  In17  1  0.67028223  0.82029992  0.62514293  1
  In  In18  1  0.16377977  0.00367900  0.37485658  1
  In  In19  1  0.16368145  0.00062988  0.87628138  1
  In  In20  1  0.14999254  0.32506783  0.37995964  1
  In  In21  1  0.16404316  0.33077332  0.87392949  1
  In  In22  1  0.16549353  0.67822567  0.37420938  1
  In  In23  1  0.15160470  0.67677864  0.88175211  1
  In  In24  1  0.49384533  0.01037175  0.37362034  1
  In  In25  1  0.48557038  -0.00703116  0.87107695  1
  In  In26  1  0.51180965  0.33528606  0.37677650  1
  In  In27  1  0.50121682  0.34786726  0.86037998  1
  In  In28  1  0.48847455  0.66095864  0.37852315  1
  In  In29  1  0.50509503  0.66363674  0.88911691  1
  In  In30  1  0.83679102  -0.01359945  0.37998462  1
  In  In31  1  0.84269674  -0.00926331  0.88148227  1
  In  In32  1  0.83577543  0.33559946  0.36956874  1
  In  In33  1  0.82799575  0.32569185  0.86190802  1
  In  In34  1  0.84980994  0.67140181  0.36926141  1
  In  In35  1  0.84794088  0.66173229  0.87415559  1
  In  In36  1  0.01537005  0.17851898  0.37296627  1
  In  In37  1  -0.00147745  0.16776243  0.87347577  1
  In  In38  1  -0.00402919  0.49459359  0.36705405  1
  In  In39  1  -0.00022985  0.50742997  0.86521330  1
  In  In40  1  -0.00010806  0.83619289  0.37287913  1
  In  In41  1  0.00024297  0.83683996  0.87397539  1
  In  In42  1  0.32260790  0.15218689  0.37162880  1
  In  In43  1  0.32212729  0.15564328  0.86750818  1
  In  In44  1  0.33643217  0.51302259  0.38147273  1
  In  In45  1  0.33825727  0.48863568  0.87675058  1
  In  In46  1  0.31431636  0.84057151  0.38133870  1
  In  In47  1  0.32511299  0.83709781  0.88017997  1
  In  In48  1  0.65676934  0.17509336  0.37323120  1
  In  In49  1  0.67023860  0.18023815  0.87487610  1
  In  In50  1  0.66989510  0.48832489  0.37535613  1
  In  In51  1  0.66787683  0.48911703  0.87254655  1
  In  In52  1  0.67344404  0.84450544  0.37770128  1
  In  In53  1  0.66774801  0.82748851  0.88926489  1
  In  In54  1  0.16415388  -0.00109230  0.12538294  1
  In  In55  1  0.16619477  -0.00138344  0.62384310  1
  In  In56  1  0.15681188  0.31951271  0.11273890  1
  In  In57  1  0.16862140  0.32602291  0.62942863  1
  In  In58  1  0.15799766  0.65742810  0.11786403  1
  In  In59  1  0.15360757  0.66991333  0.62681527  1
  In  In60  1  0.49750292  -0.00925184  0.12532883  1
  In  In61  1  0.47646896  -0.00252242  0.63316730  1
  In  In62  1  0.50372324  0.34777957  0.12128892  1
  In  In63  1  0.49628254  0.34126206  0.63762862  1
  In  In64  1  0.50555501  0.66474341  0.10691135  1
  In  In65  1  0.51198510  0.66366091  0.62619919  1
  In  In66  1  0.84394692  0.01030537  0.11421269  1
  In  In67  1  0.86423006  -0.00127706  0.63256512  1
  In  In68  1  0.84418692  0.32481027  0.12807109  1
  In  In69  1  0.84558237  0.31566778  0.65790828  1
  In  In70  1  0.83898600  0.68379368  0.11687723  1
  In  In71  1  0.83915658  0.68111509  0.62345026  1
  In  In72  1  0.66914113  0.66643931  0.23526348  1
  In  In73  1  0.17000900  0.49869728  0.50655824  1
  In  In74  1  0.67164281  0.66318720  0.75813290  1
  In  In75  1  0.33240015  0.33628287  0.24082461  1
  In  In76  1  0.49520710  0.16744771  0.50644197  1
  In  In77  1  0.49925054  0.82885641  0.50357826  1
  In  In78  1  0.83463253  0.49707833  0.50421650  1
  In  In79  1  0.67449980  0.00474071  0.24632012  1
  In  In80  1  0.33747076  0.66345618  0.75691577  1
  In  In81  1  0.83208016  0.49897479  -0.00977442  1
  In  In82  1  0.84104744  0.16666842  0.51101982  1
  In  In83  1  0.66809087  0.00403707  0.75655231  1
  In  In84  1  0.49863901  0.16966124  -0.01033555  1
  In  In85  1  0.32884878  0.66965292  0.24768120  1
  Cu  Cu86  1  0.00554912  -0.00356126  0.50049025  1
  Cu  Cu87  1  0.50474220  0.49881961  0.24767664  1
  Cu  Cu88  1  0.49310126  0.16650229  0.75036629  1
  Cu  Cu89  1  0.66998175  0.33439964  -0.00603228  1
  Cu  Cu90  1  0.00140608  0.67096396  0.49841080  1
  Cu  Cu91  1  0.15925093  0.49473892  0.24335401  1
  Cu  Cu92  1  0.67210113  0.66034681  0.50374757  1
  Cu  Cu93  1  0.49752556  0.17201751  0.25235625  1
  Cu  Cu94  1  0.49138649  0.83849982  0.24590218  1
  Cu  Cu95  1  0.34057646  0.66519722  0.50579891  1
  Cu  Cu96  1  0.00065916  0.66911400  -0.00309516  1
  Cu  Cu97  1  0.00574482  -0.00150535  -0.00044563  1
  Cu  Cu98  1  0.83684654  0.49524571  0.24824137  1
  Cu  Cu99  1  0.33676391  0.33103104  0.50622458  1
  Cu  Cu100  1  0.33052028  0.33441339  -0.00498469  1
  Cu  Cu101  1  0.32870910  -0.00067777  -0.00292467  1
  Cu  Cu102  1  0.16252174  0.83920282  0.75485744  1
  Cu  Cu103  1  0.32413712  0.66755174  -0.00536204  1
  Cu  Cu104  1  0.16033445  0.16382284  0.24610349  1
  Cu  Cu105  1  0.83920685  0.83713369  0.24546411  1
  Cu  Cu106  1  0.15902679  0.83811073  0.25136899  1
  Cu  Cu107  1  0.66959443  0.33892981  0.50252294  1
  Cu  Cu108  1  0.84336829  0.84024755  0.74902602  1
  Cu  Cu109  1  0.00203572  0.32858840  -0.00208814  1
  Cu  Cu110  1  0.67073333  -0.00602591  0.50621926  1
  Cu  Cu111  1  0.16505737  0.16290416  0.75152523  1
  Cu  Cu112  1  0.66950109  0.00069073  -0.00011469  1
  Cu  Cu113  1  0.83986371  0.16794445  0.24785753  1
  Cu  Cu114  1  0.16791648  0.50016059  0.75257609  1
  Se  Se115  1  0.08597665  0.08398741  0.05474290  1
  Se  Se116  1  0.07837390  0.08391284  0.55873976  1
  Se  Se117  1  0.08362450  0.41676989  0.04857947  1
  Se  Se118  1  0.07552523  0.41200700  0.56253084  1
  Se  Se119  1  0.08249437  0.75120043  0.05323834  1
  Se  Se120  1  0.08853535  0.75249491  0.54980652  1
  Se  Se121  1  0.41244697  0.08143235  0.05594916  1
  Se  Se122  1  0.40066980  0.07314687  0.55489242  1
  Se  Se123  1  0.41725906  0.41519542  0.04796922  1
  Se  Se124  1  0.42294672  0.41295297  0.55611841  1
  Se  Se125  1  0.40788512  0.74761577  0.05241991  1
  Se  Se126  1  0.41037617  0.74806216  0.57036645  1
  Se  Se127  1  0.75555552  0.08805261  0.04533171  1
  Se  Se128  1  0.74942941  0.07205629  0.56752848  1
  Se  Se129  1  0.74908543  0.41060824  0.05896059  1
  Se  Se130  1  0.75530062  0.40369621  0.56776344  1
  Se  Se131  1  0.74186865  0.73785536  0.04668994  1
  Se  Se132  1  0.75321720  0.75135443  0.54944728  1
  Se  Se133  1  0.24868811  0.24634583  0.04457943  1
  Se  Se134  1  0.24745394  0.25044064  0.55337677  1
  Se  Se135  1  0.24352593  0.58030916  0.04779163  1
  Se  Se136  1  0.25984187  0.58788388  0.56838977  1
  Se  Se137  1  0.24708011  0.91735212  0.05424454  1
  Se  Se138  1  0.24411758  0.91130466  0.55430172  1
  Se  Se139  1  0.59040028  0.25271500  0.05611224  1
  Se  Se140  1  0.59132118  0.25492625  0.56183706  1
  Se  Se141  1  0.57852114  0.57188067  0.04264513  1
  Se  Se142  1  0.58681809  0.57914557  0.55444544  1
  Se  Se143  1  0.58012396  0.92147647  0.05082382  1
  Se  Se144  1  0.58377362  0.92312153  0.56710469  1
  Se  Se145  1  0.91759778  0.24668237  0.05232011  1
  Se  Se146  1  0.92307286  0.26279060  0.56931536  1
  Se  Se147  1  0.92229640  0.58309403  0.05666551  1
  Se  Se148  1  0.92980200  0.58637559  0.56132914  1
  Se  Se149  1  0.91883597  0.91449981  0.05154220  1
  Se  Se150  1  0.92092429  0.91371399  0.55398965  1
  Se  Se151  1  0.08379501  0.24528925  0.45644067  1
  Se  Se152  1  0.08584479  0.24494908  0.94458398  1
  Se  Se153  1  0.07896447  0.58417219  0.44009739  1
  Se  Se154  1  0.07725735  0.57834214  0.94435919  1
  Se  Se155  1  0.08529983  0.91379310  0.44299405  1
  Se  Se156  1  0.08616286  0.91271584  0.94575621  1
  Se  Se157  1  0.41098352  0.25387233  0.43695150  1
  Se  Se158  1  0.40891891  0.25731074  0.93008382  1
  Se  Se159  1  0.42348588  0.57867589  0.45623407  1
  Se  Se160  1  0.40933414  0.58065426  0.94666990  1
  Se  Se161  1  0.41329842  0.92311086  0.44325205  1
  Se  Se162  1  0.41587432  0.91498553  0.94891947  1
  Se  Se163  1  0.74728301  0.25355627  0.44440418  1
  Se  Se164  1  0.75829606  0.25335214  0.94506354  1
  Se  Se165  1  0.75160596  0.58941184  0.43633719  1
  Se  Se166  1  0.74059048  0.59276006  0.93648783  1
  Se  Se167  1  0.75478801  0.91187465  0.45399626  1
  Se  Se168  1  0.75489260  0.91451721  0.95076728  1
  Se  Se169  1  0.24131012  0.08752481  0.44640909  1
  Se  Se170  1  0.24630587  0.08522117  0.94646557  1
  Se  Se171  1  0.25755137  0.40981812  0.44077109  1
  Se  Se172  1  0.24407470  0.41728265  0.94420293  1
  Se  Se173  1  0.25390429  0.74118264  0.44952608  1
  Se  Se174  1  0.24038829  0.75577225  0.94820907  1
  Se  Se175  1  0.59299400  0.07571281  0.44646029  1
  Se  Se176  1  0.58952891  0.07465228  0.93428335  1
  Se  Se177  1  0.58386477  0.42042638  0.45003218  1
  Se  Se178  1  0.58104687  0.41163568  0.94185273  1
  Se  Se179  1  0.59231207  0.74130470  0.43928647  1
  Se  Se180  1  0.57957978  0.75289542  0.95640371  1
  Se  Se181  1  0.92307600  0.07973033  0.44243810  1
  Se  Se182  1  0.92180867  0.08222302  0.94639997  1
  Se  Se183  1  0.92565966  0.40746113  0.44426804  1
  Se  Se184  1  0.92388892  0.40767286  0.93491217  1
  Se  Se185  1  0.91706885  0.75342310  0.44486731  1
  Se  Se186  1  0.91705821  0.75230218  0.94421274  1
  Se  Se187  1  0.24286630  0.24899033  0.30401380  1
  Se  Se188  1  0.24780643  0.24981005  0.80265600  1
  Se  Se189  1  0.23921846  0.57334356  0.30619513  1
  Se  Se190  1  0.24037592  0.58200168  0.81637825  1
  Se  Se191  1  0.24658257  0.91889217  0.30385726  1
  Se  Se192  1  0.25004001  0.91921718  0.80643949  1
  Se  Se193  1  0.58365981  0.25682160  0.29945860  1
  Se  Se194  1  0.57865453  0.24611134  0.80397959  1
  Se  Se195  1  0.58167904  0.58402374  0.30711718  1
  Se  Se196  1  0.57239557  0.57638380  0.81055275  1
  Se  Se197  1  0.57772637  0.91423742  0.30559891  1
  Se  Se198  1  0.58414415  0.90655227  0.81309659  1
  Se  Se199  1  0.92017551  0.25010663  0.30566296  1
  Se  Se200  1  0.92749796  0.25510203  0.80092192  1
  Se  Se201  1  0.91903599  0.58256210  0.29871404  1
  Se  Se202  1  0.91205098  0.58356849  0.79591262  1
  Se  Se203  1  0.91736293  0.92045409  0.30244895  1
  Se  Se204  1  0.92404977  0.92490821  0.80254627  1
  Se  Se205  1  0.07913927  0.08253795  0.30334131  1
  Se  Se206  1  0.08113224  0.08051820  0.80538513  1
  Se  Se207  1  0.08506922  0.41117764  0.30381764  1
  Se  Se208  1  0.08317179  0.41543078  0.80376148  1
  Se  Se209  1  0.07939787  0.74888982  0.30257987  1
  Se  Se210  1  0.07898323  0.75069461  0.80266003  1
  Se  Se211  1  0.41395354  0.08483011  0.29968284  1
  Se  Se212  1  0.41217257  0.07812764  0.79997745  1
  Se  Se213  1  0.41832508  0.42528638  0.30813847  1
  Se  Se214  1  0.40534636  0.41740177  0.79505659  1
  Se  Se215  1  0.41802977  0.75982689  0.31098115  1
  Se  Se216  1  0.42370112  0.75271298  0.81826858  1
  Se  Se217  1  0.75907910  0.09250200  0.31372202  1
  Se  Se218  1  0.76065439  0.08888524  0.81509970  1
  Se  Se219  1  0.74962356  0.41520409  0.30104247  1
  Se  Se220  1  0.76268422  0.43137274  0.80181759  1
  Se  Se221  1  0.75173449  0.75851179  0.30252848  1
  Se  Se222  1  0.76142439  0.76279171  0.81047254  1
  Se  Se223  1  0.24826158  0.08127319  0.19687782  1
  Se  Se224  1  0.24866694  0.07942307  0.69649275  1
  Se  Se225  1  0.24295987  0.42406961  0.18014233  1
  Se  Se226  1  0.24699068  0.41394298  0.69855606  1
  Se  Se227  1  0.23814421  0.75749735  0.18864360  1
  Se  Se228  1  0.24378402  0.75365181  0.69653354  1
  Se  Se229  1  0.57810733  0.09318017  0.18832434  1
  Se  Se230  1  0.57565765  0.08797559  0.68945496  1
  Se  Se231  1  0.58936893  0.41641343  0.19603571  1
  Se  Se232  1  0.59090674  0.41053463  0.70345829  1
  Se  Se233  1  0.57088385  0.76015233  0.18516707  1
  Se  Se234  1  0.57845836  0.75691738  0.69996224  1
  Se  Se235  1  0.91723429  0.08046591  0.19436937  1
  Se  Se236  1  0.89515212  0.10684212  0.70038197  1
  Se  Se237  1  0.92229461  0.41045280  0.19743653  1
  Se  Se238  1  0.90032806  0.43414987  0.70833968  1
  Se  Se239  1  0.92018851  0.74984918  0.19422056  1
  Se  Se240  1  0.92372643  0.75387846  0.69508814  1
  Se  Se241  1  0.08124482  0.25138496  0.19276967  1
  Se  Se242  1  0.08288978  0.25035282  0.70010351  1
  Se  Se243  1  0.07842744  0.58418545  0.19376828  1
  Se  Se244  1  0.08470433  0.58529352  0.70044799  1
  Se  Se245  1  0.07773622  0.92143310  0.19584988  1
  Se  Se246  1  0.08172257  0.92113979  0.69642015  1
  Se  Se247  1  0.42258271  0.24375028  0.18217768  1
  Se  Se248  1  0.41033975  0.24798223  0.69459572  1
  Se  Se249  1  0.42555786  0.58206170  0.18910207  1
  Se  Se250  1  0.42692174  0.57603300  0.69412068  1
  Se  Se251  1  0.40714106  0.92360185  0.19726660  1
  Se  Se252  1  0.42457182  0.90495555  0.70745867  1
  Se  Se253  1  0.75213019  0.24941583  0.19705217  1
  Se  Se254  1  0.73487235  0.25519602  0.71371163  1
  Se  Se255  1  0.76371177  0.57416536  0.18207941  1
  Se  Se256  1  0.75316296  0.58620981  0.68428886  1
  Se  Se257  1  0.75516567  0.91112875  0.18338639  1
  Se  Se258  1  0.75500015  0.91391999  0.68979029  1
