# generated using pymatgen
data_In86Cu29Se144
_symmetry_space_group_name_H-M   'P 1'
_cell_length_a   17.57626262
_cell_length_b   17.57722773
_cell_length_c   23.44504356
_cell_angle_alpha   90.02054093
_cell_angle_beta   89.97394478
_cell_angle_gamma   89.99766580
_symmetry_Int_Tables_number   1
_chemical_formula_structural   In86Cu29Se144
_chemical_formula_sum   'In86 Cu29 Se144'
_cell_volume   7243.15674180
_cell_formula_units_Z   1
loop_
 _symmetry_equiv_pos_site_id
 _symmetry_equiv_pos_as_xyz
  1  'x, y, z'
loop_
 _atom_site_type_symbol
 _atom_site_label
 _atom_site_symmetry_multiplicity
 _atom_site_fract_x
 _atom_site_fract_y
 _atom_site_fract_z
 _atom_site_occupancy
  In  In0  1  0.00231399  0.16393540  0.12861033  1
  In  In1  1  0.01146232  0.17913692  0.61890071  1
  In  In2  1  -0.00994931  0.49434895  0.12237933  1
  In  In3  1  0.00364942  0.48222698  0.62831704  1
  In  In4  1  0.00796330  0.82936059  0.13071261  1
  In  In5  1  0.00017204  0.83350990  0.60577078  1
  In  In6  1  0.32471003  0.17120903  0.12104807  1
  In  In7  1  0.31024418  0.16317971  0.62664517  1
  In  In8  1  0.33347576  0.50920593  0.12490820  1
  In  In9  1  0.33492791  0.50777243  0.61949528  1
  In  In10  1  0.31937080  0.83025699  0.12806155  1
  In  In11  1  0.33276491  0.83563067  0.62140169  1
  In  In12  1  0.68548115  0.14974730  0.14261311  1
  In  In13  1  0.66094168  0.15236438  0.61890246  1
  In  In14  1  0.67862555  0.48622242  0.14086371  1
  In  In15  1  0.66715859  0.50862971  0.61572467  1
  In  In16  1  0.67490086  0.82975791  0.14423655  1
  In  In17  1  0.67472193  0.84531230  0.61042809  1
  In  In18  1  0.15529438  0.01024976  0.38137955  1
  In  In19  1  0.16790012  -0.00820526  0.88340770  1
  In  In20  1  0.15972529  0.33836230  0.37744188  1
  In  In21  1  0.15061880  0.34350342  0.87714875  1
  In  In22  1  0.16865648  0.65969919  0.38271062  1
  In  In23  1  0.17034061  0.65970673  0.87699807  1
  In  In24  1  0.49745607  -0.00747479  0.37613196  1
  In  In25  1  0.50092991  -0.00129912  0.86427682  1
  In  In26  1  0.52923651  0.34032076  0.37943140  1
  In  In27  1  0.50051120  0.33446755  0.87651569  1
  In  In28  1  0.50014708  0.66839862  0.37394241  1
  In  In29  1  0.49132956  0.67567619  0.87179571  1
  In  In30  1  0.83751355  -0.00182569  0.36898408  1
  In  In31  1  0.84282974  0.01599274  0.87336804  1
  In  In32  1  0.82596965  0.32219962  0.36961280  1
  In  In33  1  0.84746881  0.31711078  0.88606004  1
  In  In34  1  0.83279228  0.69844136  0.37541614  1
  In  In35  1  0.82553098  0.66330541  0.88252143  1
  In  In36  1  -0.00030483  0.16484598  0.37083731  1
  In  In37  1  -0.00888333  0.16588065  0.88405438  1
  In  In38  1  0.01652344  0.50503739  0.37444372  1
  In  In39  1  0.01024988  0.48858434  0.88295521  1
  In  In40  1  -0.01159778  0.84546071  0.38948438  1
  In  In41  1  0.01267502  0.85205476  0.87798557  1
  In  In42  1  0.32950722  0.15969799  0.38068377  1
  In  In43  1  0.32866804  0.15038024  0.86736387  1
  In  In44  1  0.32390800  0.51006430  0.38153947  1
  In  In45  1  0.30544628  0.49448317  0.86178088  1
  In  In46  1  0.34288168  0.82769949  0.38250930  1
  In  In47  1  0.32411769  0.82177957  0.86298084  1
  In  In48  1  0.68074765  0.18655475  0.36402776  1
  In  In49  1  0.68476989  0.16469644  0.87776816  1
  In  In50  1  0.65906204  0.49229981  0.37431840  1
  In  In51  1  0.67149055  0.50506381  0.88056430  1
  In  In52  1  0.66654873  0.83575144  0.36971738  1
  In  In53  1  0.65629451  0.82932546  0.87367189  1
  In  In54  1  0.15638516  -0.00907738  0.11351074  1
  In  In55  1  0.17195729  0.00565353  0.62186798  1
  In  In56  1  0.15059216  0.32168111  0.11802528  1
  In  In57  1  0.15786758  0.32304013  0.61972650  1
  In  In58  1  0.17289129  0.67028379  0.12389400  1
  In  In59  1  0.16896411  0.67846804  0.61533493  1
  In  In60  1  0.52144920  0.00496814  0.12927046  1
  In  In61  1  0.50617105  -0.00735402  0.62437422  1
  In  In62  1  0.50203793  0.33730063  0.13090325  1
  In  In63  1  0.49159090  0.33859789  0.61679981  1
  In  In64  1  0.49656917  0.66484304  0.13685690  1
  In  In65  1  0.48906275  0.66225157  0.61396315  1
  In  In66  1  0.83024714  0.00202446  0.13135150  1
  In  In67  1  0.82800520  -0.00095504  0.61650498  1
  In  In68  1  0.84212706  0.33305357  0.13211879  1
  In  In69  1  0.85117410  0.33534851  0.62445158  1
  In  In70  1  0.84078430  0.65723459  0.13257476  1
  In  In71  1  0.82516568  0.66820352  0.61749905  1
  In  In72  1  0.00207658  0.66351569  0.74399509  1
  In  In73  1  -0.00275062  0.67212750  0.25474614  1
  In  In74  1  0.50139168  0.16701949  0.00619053  1
  In  In75  1  0.49784299  0.50056289  -0.00191250  1
  In  In76  1  0.33565678  0.33615643  0.24838430  1
  In  In77  1  0.83393403  0.49890824  0.49460848  1
  In  In78  1  0.66299637  0.66884376  0.73761178  1
  In  In79  1  0.83923964  0.83555508  0.00352851  1
  In  In80  1  0.00444779  0.00602676  0.75035731  1
  In  In81  1  0.33744273  -0.00624710  0.25231763  1
  In  In82  1  0.32977975  0.32991115  0.74426670  1
  In  In83  1  0.66820866  0.32861102  0.74989532  1
  In  In84  1  0.49872537  0.16974448  0.49821361  1
  In  In85  1  0.49568305  0.83073605  0.00122714  1
  Cu  Cu86  1  0.32121258  0.33200931  -0.00499185  1
  Cu  Cu87  1  0.49772316  0.83939296  0.74409954  1
  Cu  Cu88  1  0.32526132  -0.00093414  0.50146654  1
  Cu  Cu89  1  0.84288687  0.48975094  0.75559280  1
  Cu  Cu90  1  0.49647183  0.50659028  0.74247261  1
  Cu  Cu91  1  0.67413560  0.00086985  0.00270462  1
  Cu  Cu92  1  0.67238221  0.65326273  0.01016150  1
  Cu  Cu93  1  0.50092893  0.15596528  0.74622108  1
  Cu  Cu94  1  -0.00516655  0.00514524  0.49760530  1
  Cu  Cu95  1  0.00135154  0.32616867  0.49635750  1
  Cu  Cu96  1  0.83472954  0.16502122  0.75174885  1
  Cu  Cu97  1  0.66283681  0.67401021  0.49376527  1
  Cu  Cu98  1  0.16790064  0.83209581  0.25258388  1
  Cu  Cu99  1  0.68111291  0.32996695  0.01287056  1
  Cu  Cu100  1  0.32225938  0.66212898  -0.00447901  1
  Cu  Cu101  1  0.33019740  -0.00471603  -0.00210630  1
  Cu  Cu102  1  0.49978737  0.82952530  0.25691795  1
  Cu  Cu103  1  0.33534541  0.67271643  0.49873271  1
  Cu  Cu104  1  0.00595371  0.66941087  0.00565218  1
  Cu  Cu105  1  0.83164580  0.50141174  0.25487180  1
  Cu  Cu106  1  0.16787233  0.50058135  0.25271459  1
  Cu  Cu107  1  0.82681928  0.83847101  0.74068000  1
  Cu  Cu108  1  -0.00334558  0.33518052  0.00483832  1
  Cu  Cu109  1  0.32978092  0.34073486  0.49983313  1
  Cu  Cu110  1  0.49822384  0.50080360  0.25557487  1
  Cu  Cu111  1  0.67179724  0.00370556  0.49121921  1
  Cu  Cu112  1  0.83953540  0.16750599  0.25016459  1
  Cu  Cu113  1  0.16241362  0.16340856  0.24788036  1
  Cu  Cu114  1  0.16974566  0.83546710  0.74569071  1
  Se  Se115  1  0.10236679  0.10474477  0.05927485  1
  Se  Se116  1  0.08163881  0.08171886  0.55407029  1
  Se  Se117  1  0.08230951  0.42187158  0.05406743  1
  Se  Se118  1  0.08212327  0.41212690  0.55016350  1
  Se  Se119  1  0.08834769  0.75397743  0.05676882  1
  Se  Se120  1  0.07298595  0.73875856  0.54384220  1
  Se  Se121  1  0.41219015  0.06857353  0.06193107  1
  Se  Se122  1  0.40851280  0.08113777  0.56108536  1
  Se  Se123  1  0.40715408  0.40581249  0.05609326  1
  Se  Se124  1  0.41640756  0.42490431  0.54864268  1
  Se  Se125  1  0.40724106  0.73559529  0.05828239  1
  Se  Se126  1  0.41911459  0.75941536  0.54948887  1
  Se  Se127  1  0.75314890  0.08469270  0.05741017  1
  Se  Se128  1  0.75150183  0.08785779  0.54666976  1
  Se  Se129  1  0.75898790  0.41989326  0.06282637  1
  Se  Se130  1  0.74871686  0.40835797  0.55923303  1
  Se  Se131  1  0.74596067  0.74588523  0.06370934  1
  Se  Se132  1  0.75229745  0.75263831  0.54579097  1
  Se  Se133  1  0.24280065  0.24697966  0.04992132  1
  Se  Se134  1  0.25022710  0.25063950  0.55008395  1
  Se  Se135  1  0.24494128  0.57861858  0.05321313  1
  Se  Se136  1  0.25127067  0.58839882  0.55067826  1
  Se  Se137  1  0.25035700  0.90939173  0.05159395  1
  Se  Se138  1  0.24276288  0.91307428  0.55315016  1
  Se  Se139  1  0.59378488  0.25141578  0.06730967  1
  Se  Se140  1  0.59147696  0.25953799  0.55689758  1
  Se  Se141  1  0.58559185  0.57901437  0.06794891  1
  Se  Se142  1  0.58343199  0.58757285  0.54813222  1
  Se  Se143  1  0.59660777  0.91331446  0.05828254  1
  Se  Se144  1  0.58367945  0.92379238  0.54498044  1
  Se  Se145  1  0.91811060  0.24929784  0.06015533  1
  Se  Se146  1  0.91506584  0.24668306  0.55014578  1
  Se  Se147  1  0.91684304  0.58782550  0.05426896  1
  Se  Se148  1  0.92161438  0.57940564  0.56331373  1
  Se  Se149  1  0.92639339  0.92382388  0.06384136  1
  Se  Se150  1  0.90942109  0.91779630  0.54621230  1
  Se  Se151  1  0.08589369  0.24334000  0.44230577  1
  Se  Se152  1  0.07777955  0.25442617  0.94659332  1
  Se  Se153  1  0.08662630  0.57812826  0.45233221  1
  Se  Se154  1  0.08354335  0.58537341  0.94711864  1
  Se  Se155  1  0.08563401  0.91966031  0.45198983  1
  Se  Se156  1  0.07860093  0.92578839  0.95662738  1
  Se  Se157  1  0.41146930  0.26371043  0.43716710  1
  Se  Se158  1  0.40910435  0.25176204  0.94053607  1
  Se  Se159  1  0.41761660  0.58715802  0.44538390  1
  Se  Se160  1  0.40547715  0.58436488  0.93506904  1
  Se  Se161  1  0.41546767  0.92094916  0.45039322  1
  Se  Se162  1  0.41183511  0.91871921  0.93604334  1
  Se  Se163  1  0.74550348  0.25558191  0.44707002  1
  Se  Se164  1  0.75492995  0.24338091  0.95406787  1
  Se  Se165  1  0.74678009  0.59317648  0.43552498  1
  Se  Se166  1  0.75601822  0.57470118  0.95458948  1
  Se  Se167  1  0.75231201  0.91644298  0.43901171  1
  Se  Se168  1  0.74582963  0.91762517  0.93795286  1
  Se  Se169  1  0.24425025  0.08690451  0.45120926  1
  Se  Se170  1  0.25158906  0.08437221  0.94694815  1
  Se  Se171  1  0.24284310  0.42045126  0.44601575  1
  Se  Se172  1  0.24297464  0.42146833  0.94478968  1
  Se  Se173  1  0.24791314  0.75325878  0.44670725  1
  Se  Se174  1  0.24732318  0.75376876  0.94277012  1
  Se  Se175  1  0.58877626  0.08581759  0.43456682  1
  Se  Se176  1  0.58758974  0.07494413  0.94196334  1
  Se  Se177  1  0.58350486  0.42807930  0.45625566  1
  Se  Se178  1  0.59725631  0.40260322  0.94857131  1
  Se  Se179  1  0.57974167  0.75810880  0.44090812  1
  Se  Se180  1  0.59156765  0.73199890  0.94834854  1
  Se  Se181  1  0.91385009  0.08568111  0.44030601  1
  Se  Se182  1  0.91484432  0.07986694  0.95373012  1
  Se  Se183  1  0.92457220  0.40878204  0.43514575  1
  Se  Se184  1  0.91382588  0.41888245  0.94927964  1
  Se  Se185  1  0.93311742  0.73394554  0.44992148  1
  Se  Se186  1  0.92854758  0.74662729  0.93906671  1
  Se  Se187  1  0.24539331  0.24263805  0.30717435  1
  Se  Se188  1  0.24385449  0.25054350  0.81269553  1
  Se  Se189  1  0.24795312  0.58647721  0.30482813  1
  Se  Se190  1  0.25401561  0.59976367  0.79812523  1
  Se  Se191  1  0.24462758  0.91317292  0.31603970  1
  Se  Se192  1  0.24565277  0.92011740  0.80436311  1
  Se  Se193  1  0.57480140  0.24889694  0.30234391  1
  Se  Se194  1  0.57573461  0.23686684  0.81024618  1
  Se  Se195  1  0.58425839  0.58388484  0.30650142  1
  Se  Se196  1  0.57954660  0.57861540  0.80715641  1
  Se  Se197  1  0.58073098  0.92098971  0.30237628  1
  Se  Se198  1  0.58693261  0.91308060  0.80010447  1
  Se  Se199  1  0.92164042  0.25348835  0.30212052  1
  Se  Se200  1  0.91881036  0.24578033  0.80598199  1
  Se  Se201  1  0.90833195  0.58229558  0.31709191  1
  Se  Se202  1  0.91254217  0.58182347  0.81259973  1
  Se  Se203  1  0.92295910  0.91035846  0.30590805  1
  Se  Se204  1  0.90932902  0.90980503  0.80561248  1
  Se  Se205  1  0.08060040  0.07807054  0.30094799  1
  Se  Se206  1  0.08883887  0.08922181  0.81663695  1
  Se  Se207  1  0.08306798  0.41542986  0.30128869  1
  Se  Se208  1  0.08964041  0.43147093  0.80160695  1
  Se  Se209  1  0.08806369  0.75656563  0.31650130  1
  Se  Se210  1  0.08517886  0.75957366  0.80656357  1
  Se  Se211  1  0.42183005  0.09174914  0.30894447  1
  Se  Se212  1  0.41272385  0.07535655  0.79647296  1
  Se  Se213  1  0.41872792  0.42044905  0.31678002  1
  Se  Se214  1  0.42396945  0.42285655  0.80563789  1
  Se  Se215  1  0.41086621  0.74772235  0.30467859  1
  Se  Se216  1  0.41791543  0.74996958  0.79516668  1
  Se  Se217  1  0.75332278  0.08642646  0.30326362  1
  Se  Se218  1  0.74941996  0.07989268  0.80135051  1
  Se  Se219  1  0.74741303  0.41565089  0.30554062  1
  Se  Se220  1  0.75622297  0.41499056  0.81488209  1
  Se  Se221  1  0.74368724  0.74980307  0.29928802  1
  Se  Se222  1  0.75553358  0.75252235  0.80418523  1
  Se  Se223  1  0.24623180  0.08240287  0.19127373  1
  Se  Se224  1  0.24048888  0.08224991  0.70056758  1
  Se  Se225  1  0.24094731  0.41935035  0.18706343  1
  Se  Se226  1  0.24502155  0.41997420  0.68380057  1
  Se  Se227  1  0.25004203  0.74518749  0.20166717  1
  Se  Se228  1  0.24983939  0.75140417  0.69082969  1
  Se  Se229  1  0.57745445  0.09294296  0.20422648  1
  Se  Se230  1  0.58827221  0.07570071  0.69511727  1
  Se  Se231  1  0.58046286  0.41409484  0.20399696  1
  Se  Se232  1  0.58043788  0.42347608  0.68914519  1
  Se  Se233  1  0.58294757  0.74482412  0.20305517  1
  Se  Se234  1  0.57666172  0.76118038  0.67967739  1
  Se  Se235  1  0.92027109  0.08090196  0.19772942  1
  Se  Se236  1  0.91303412  0.08850891  0.68636505  1
  Se  Se237  1  0.91997808  0.42120421  0.20249215  1
  Se  Se238  1  0.92529065  0.40588318  0.70398495  1
  Se  Se239  1  0.90454185  0.76380090  0.19707634  1
  Se  Se240  1  0.91009624  0.75751325  0.68558585  1
  Se  Se241  1  0.07997203  0.25301370  0.19983591  1
  Se  Se242  1  0.08735448  0.24659942  0.69738172  1
  Se  Se243  1  0.08484953  0.58072104  0.19170574  1
  Se  Se244  1  0.09389307  0.57846139  0.68521454  1
  Se  Se245  1  0.09037053  0.91666828  0.19640156  1
  Se  Se246  1  0.08110680  0.90724461  0.68661135  1
  Se  Se247  1  0.42138042  0.23754515  0.19149771  1
  Se  Se248  1  0.42489754  0.23906155  0.68634882  1
  Se  Se249  1  0.41117388  0.58027907  0.20206565  1
  Se  Se250  1  0.41335065  0.59002817  0.69246374  1
  Se  Se251  1  0.42761900  0.90654878  0.18661659  1
  Se  Se252  1  0.41208687  0.92172930  0.69197793  1
  Se  Se253  1  0.75351040  0.25520925  0.20101565  1
  Se  Se254  1  0.75577589  0.24167196  0.68713908  1
  Se  Se255  1  0.74988241  0.58736665  0.20234146  1
  Se  Se256  1  0.76301306  0.56901697  0.69364125  1
  Se  Se257  1  0.73691533  0.93566577  0.20133317  1
  Se  Se258  1  0.74465574  0.92240104  0.68983753  1
