# generated using pymatgen
data_In86Cu29Se144
_symmetry_space_group_name_H-M   'P 1'
_cell_length_a   17.58637228
_cell_length_b   17.58485683
_cell_length_c   23.44457182
_cell_angle_alpha   89.99492817
_cell_angle_beta   90.00173803
_cell_angle_gamma   89.97478832
_symmetry_Int_Tables_number   1
_chemical_formula_structural   In86Cu29Se144
_chemical_formula_sum   'In86 Cu29 Se144'
_cell_volume   7250.32309537
_cell_formula_units_Z   1
loop_
 _symmetry_equiv_pos_site_id
 _symmetry_equiv_pos_as_xyz
  1  'x, y, z'
loop_
 _atom_site_type_symbol
 _atom_site_label
 _atom_site_symmetry_multiplicity
 _atom_site_fract_x
 _atom_site_fract_y
 _atom_site_fract_z
 _atom_site_occupancy
  In  In0  1  -0.00365579  0.16372455  0.11128064  1
  In  In1  1  0.00743900  0.18725545  0.62929883  1
  In  In2  1  0.00758457  0.50904851  0.11865110  1
  In  In3  1  -0.00072707  0.49900991  0.62661110  1
  In  In4  1  -0.01507175  0.81558489  0.12113862  1
  In  In5  1  -0.00455087  0.81720783  0.62583899  1
  In  In6  1  0.34997173  0.18268855  0.12175115  1
  In  In7  1  0.32968640  0.16947058  0.62369070  1
  In  In8  1  0.33253453  0.50230101  0.12696335  1
  In  In9  1  0.33981706  0.49923994  0.60687930  1
  In  In10  1  0.32253519  0.82179892  0.11940186  1
  In  In11  1  0.33618433  0.83272459  0.61672044  1
  In  In12  1  0.64671956  0.14505661  0.09911884  1
  In  In13  1  0.67889709  0.16698476  0.62789264  1
  In  In14  1  0.66504856  0.49668381  0.11356287  1
  In  In15  1  0.66302490  0.50700438  0.62866231  1
  In  In16  1  0.67257342  0.84236220  0.11366963  1
  In  In17  1  0.64844989  0.81286254  0.61923473  1
  In  In18  1  0.15877183  -0.00426151  0.37512214  1
  In  In19  1  0.17269371  -0.00409437  0.88519119  1
  In  In20  1  0.18054135  0.33813119  0.37349691  1
  In  In21  1  0.15384437  0.34854997  0.88358223  1
  In  In22  1  0.16904267  0.66338669  0.37493983  1
  In  In23  1  0.15641444  0.67594241  0.88058177  1
  In  In24  1  0.49789549  -0.01239130  0.37143918  1
  In  In25  1  0.51771025  -0.00487423  0.89693799  1
  In  In26  1  0.49778283  0.34652370  0.37880829  1
  In  In27  1  0.50851901  0.32568949  0.88043994  1
  In  In28  1  0.49890127  0.67542625  0.37656491  1
  In  In29  1  0.50318542  0.65720485  0.87910044  1
  In  In30  1  0.82831437  0.00098325  0.36533777  1
  In  In31  1  0.81683566  0.00308162  0.89398933  1
  In  In32  1  0.83932062  0.33663557  0.37700594  1
  In  In33  1  0.83416623  0.34667777  0.86848833  1
  In  In34  1  0.82643095  0.65848152  0.37422391  1
  In  In35  1  0.83461941  0.66201268  0.87184788  1
  In  In36  1  0.00000364  0.16634334  0.37190078  1
  In  In37  1  -0.01303315  0.18184135  0.88692017  1
  In  In38  1  -0.00659658  0.51048743  0.38198972  1
  In  In39  1  -0.00409076  0.51002161  0.86899351  1
  In  In40  1  0.01598766  0.83459609  0.37554605  1
  In  In41  1  0.00020272  0.82612837  0.87812157  1
  In  In42  1  0.33273679  0.17113982  0.36292856  1
  In  In43  1  0.34120153  0.16280166  0.88772951  1
  In  In44  1  0.33007772  0.50108187  0.37590328  1
  In  In45  1  0.33317342  0.49502347  0.88306690  1
  In  In46  1  0.34258336  0.82169371  0.37538436  1
  In  In47  1  0.33631467  0.82923023  0.88439141  1
  In  In48  1  0.66932414  0.15877642  0.36829207  1
  In  In49  1  0.65994652  0.17724255  0.88330117  1
  In  In50  1  0.66772457  0.50258609  0.38684155  1
  In  In51  1  0.67136695  0.49940698  0.86779689  1
  In  In52  1  0.65743752  0.83111069  0.37294708  1
  In  In53  1  0.67057689  0.82704436  0.88546893  1
  In  In54  1  0.15911099  -0.00746752  0.11761575  1
  In  In55  1  0.17689908  0.00057573  0.62203856  1
  In  In56  1  0.17902053  0.34664584  0.11839035  1
  In  In57  1  0.15610643  0.33930043  0.62612207  1
  In  In58  1  0.16379352  0.66489731  0.12622389  1
  In  In59  1  0.16283091  0.65803048  0.61892683  1
  In  In60  1  0.51345117  0.00336883  0.11691308  1
  In  In61  1  0.51166105  -0.01830349  0.62159158  1
  In  In62  1  0.48963841  0.32670102  0.12228240  1
  In  In63  1  0.49332649  0.34681660  0.62467879  1
  In  In64  1  0.49242635  0.65615097  0.11640715  1
  In  In65  1  0.50853263  0.67288211  0.62242798  1
  In  In66  1  0.81035419  -0.01737265  0.10318966  1
  In  In67  1  0.83035153  0.00716596  0.62968328  1
  In  In68  1  0.83017757  0.33372236  0.11316235  1
  In  In69  1  0.80353818  0.37934778  0.66660161  1
  In  In70  1  0.84346177  0.67487197  0.11966181  1
  In  In71  1  0.85396800  0.64188869  0.65139252  1
  In  In72  1  0.33731816  0.00087024  0.24362189  1
  In  In73  1  0.49870524  0.16657516  0.49228527  1
  In  In74  1  0.66207665  0.32885406  0.24585227  1
  In  In75  1  -0.00048659  0.33373612  0.25057955  1
  In  In76  1  -0.00005343  -0.00523838  0.76077807  1
  In  In77  1  0.83412193  0.17244802  0.50940356  1
  In  In78  1  0.66770366  0.67044230  0.24718221  1
  In  In79  1  0.33616652  0.66696308  0.75211084  1
  In  In80  1  0.32962391  0.33384482  0.74792001  1
  In  In81  1  0.33946906  0.00174467  0.74592841  1
  In  In82  1  0.82536366  0.82355869  0.50075244  1
  In  In83  1  -0.00216374  -0.00409427  0.24625467  1
  In  In84  1  0.16655317  0.17054415  0.49907706  1
  In  In85  1  0.66868200  -0.00595670  0.75824321  1
  Cu  Cu86  1  0.00361394  0.66476782  0.50474825  1
  Cu  Cu87  1  0.50512714  0.50088261  0.74920812  1
  Cu  Cu88  1  0.16155325  0.50783068  0.74954447  1
  Cu  Cu89  1  0.82478096  0.82982072  0.75602463  1
  Cu  Cu90  1  0.00406003  -0.00672968  -0.00254503  1
  Cu  Cu91  1  0.67415861  0.34477963  -0.00705334  1
  Cu  Cu92  1  0.83887993  0.17567431  0.75591510  1
  Cu  Cu93  1  0.33658082  -0.00720853  0.49732432  1
  Cu  Cu94  1  0.50739223  0.16302082  0.75931920  1
  Cu  Cu95  1  0.16926955  0.50489663  0.24719347  1
  Cu  Cu96  1  0.33477239  0.66817980  0.49421884  1
  Cu  Cu97  1  0.16132901  0.17614727  0.76370695  1
  Cu  Cu98  1  0.16399860  0.82986727  0.75298323  1
  Cu  Cu99  1  0.66990372  0.33743569  0.50887677  1
  Cu  Cu100  1  0.66627104  0.66228087  -0.00336785  1
  Cu  Cu101  1  -0.00169388  -0.00522790  0.49828763  1
  Cu  Cu102  1  0.17272804  0.17508503  0.23881700  1
  Cu  Cu103  1  -0.00338745  0.66385408  -0.00262407  1
  Cu  Cu104  1  0.00207560  0.33890797  -0.00491818  1
  Cu  Cu105  1  0.33379983  0.33521119  0.00260899  1
  Cu  Cu106  1  -0.00367608  0.34713955  0.50370391  1
  Cu  Cu107  1  0.82206001  0.15627290  0.23948371  1
  Cu  Cu108  1  0.83518676  0.50232443  0.25036128  1
  Cu  Cu109  1  0.32718139  0.66269986  0.00149127  1
  Cu  Cu110  1  0.67191107  0.65893247  0.50531896  1
  Cu  Cu111  1  0.50086821  0.83098865  0.24708999  1
  Cu  Cu112  1  0.17082113  0.82116666  0.25036526  1
  Cu  Cu113  1  0.49113884  0.50373131  0.25034208  1
  Cu  Cu114  1  0.33220265  0.00017963  0.00801666  1
  Se  Se115  1  0.08577689  0.08135527  0.04822177  1
  Se  Se116  1  0.07286108  0.08064378  0.56047465  1
  Se  Se117  1  0.08458879  0.41881602  0.05245941  1
  Se  Se118  1  0.08758835  0.42539670  0.55309567  1
  Se  Se119  1  0.08050983  0.74521603  0.05444671  1
  Se  Se120  1  0.08601632  0.75310085  0.55386376  1
  Se  Se121  1  0.41829594  0.08509487  0.05602828  1
  Se  Se122  1  0.41187068  0.07433671  0.55996671  1
  Se  Se123  1  0.41611139  0.42056490  0.05633420  1
  Se  Se124  1  0.41920779  0.40955473  0.54435129  1
  Se  Se125  1  0.41329923  0.74725021  0.05119149  1
  Se  Se126  1  0.41901556  0.74697359  0.55219931  1
  Se  Se127  1  0.77325839  0.10688930  0.05263325  1
  Se  Se128  1  0.73924474  0.07044482  0.55304988  1
  Se  Se129  1  0.75892606  0.42710573  0.04575988  1
  Se  Se130  1  0.75204342  0.41707646  0.56586116  1
  Se  Se131  1  0.74884602  0.74439585  0.05217069  1
  Se  Se132  1  0.75648292  0.72955623  0.57021541  1
  Se  Se133  1  0.25141881  0.24895073  0.05471845  1
  Se  Se134  1  0.25567331  0.26309407  0.55707038  1
  Se  Se135  1  0.24530584  0.58011376  0.05704588  1
  Se  Se136  1  0.25077642  0.58599928  0.54818541  1
  Se  Se137  1  0.24567339  0.91117402  0.05177679  1
  Se  Se138  1  0.24838782  0.91484750  0.55100240  1
  Se  Se139  1  0.59193333  0.26829992  0.05415636  1
  Se  Se140  1  0.58801148  0.25030637  0.56139927  1
  Se  Se141  1  0.57972642  0.57877881  0.04771235  1
  Se  Se142  1  0.57954731  0.57940466  0.55397480  1
  Se  Se143  1  0.57853992  0.91109974  0.04626718  1
  Se  Se144  1  0.59020337  0.90888954  0.54881794  1
  Se  Se145  1  0.91808120  0.25436384  0.04657248  1
  Se  Se146  1  0.91735913  0.26832248  0.56512402  1
  Se  Se147  1  0.91351201  0.58036063  0.05156677  1
  Se  Se148  1  0.91688785  0.58672172  0.55985497  1
  Se  Se149  1  0.91959722  0.91093860  0.05103902  1
  Se  Se150  1  0.91714338  0.92064861  0.56094716  1
  Se  Se151  1  0.07030196  0.26131400  0.44131383  1
  Se  Se152  1  0.08931841  0.24855423  0.94974434  1
  Se  Se153  1  0.08619280  0.58393733  0.44777291  1
  Se  Se154  1  0.08200013  0.58127705  0.94452404  1
  Se  Se155  1  0.08872732  0.91519431  0.45114011  1
  Se  Se156  1  0.08606337  0.90780900  0.94552336  1
  Se  Se157  1  0.40237077  0.25612028  0.44045173  1
  Se  Se158  1  0.42158882  0.25234273  0.95144284  1
  Se  Se159  1  0.41936782  0.58537820  0.44118597  1
  Se  Se160  1  0.41392178  0.58199141  0.94821588  1
  Se  Se161  1  0.42025522  0.90975842  0.44467457  1
  Se  Se162  1  0.41380161  0.91845936  0.95117552  1
  Se  Se163  1  0.74083718  0.25565668  0.44186231  1
  Se  Se164  1  0.75633475  0.26015031  0.93979569  1
  Se  Se165  1  0.75906077  0.57919680  0.45251608  1
  Se  Se166  1  0.75013592  0.58075682  0.94126754  1
  Se  Se167  1  0.74680150  0.92091404  0.43953299  1
  Se  Se168  1  0.73232828  0.92121027  0.95772656  1
  Se  Se169  1  0.25867839  0.07780730  0.43839325  1
  Se  Se170  1  0.25075152  0.08381663  0.95198561  1
  Se  Se171  1  0.24451966  0.42327464  0.44641736  1
  Se  Se172  1  0.24734081  0.41859176  0.95208190  1
  Se  Se173  1  0.24892473  0.75227197  0.44316980  1
  Se  Se174  1  0.24639742  0.75030756  0.94878859  1
  Se  Se175  1  0.59021423  0.07252441  0.43998496  1
  Se  Se176  1  0.58615776  0.09619353  0.95650060  1
  Se  Se177  1  0.58573316  0.41527419  0.45138150  1
  Se  Se178  1  0.58478088  0.42319610  0.94035785  1
  Se  Se179  1  0.59294097  0.74285980  0.44721958  1
  Se  Se180  1  0.57809580  0.74622065  0.94861242  1
  Se  Se181  1  0.91915632  0.07807558  0.44157858  1
  Se  Se182  1  0.91908717  0.07994710  0.94910935  1
  Se  Se183  1  0.90948686  0.42337476  0.44775972  1
  Se  Se184  1  0.91968324  0.42242872  0.94036732  1
  Se  Se185  1  0.92481511  0.74364684  0.44046545  1
  Se  Se186  1  0.91183845  0.74771999  0.94460806  1
  Se  Se187  1  0.25005227  0.25595877  0.29718045  1
  Se  Se188  1  0.25069204  0.24942034  0.81972694  1
  Se  Se189  1  0.25292724  0.58550439  0.30362733  1
  Se  Se190  1  0.24483520  0.57909035  0.81251112  1
  Se  Se191  1  0.24594448  0.91232517  0.30683652  1
  Se  Se192  1  0.24822405  0.91141459  0.80703526  1
  Se  Se193  1  0.57362235  0.24639869  0.31193097  1
  Se  Se194  1  0.58891174  0.25384327  0.80390178  1
  Se  Se195  1  0.58185078  0.57560517  0.30893421  1
  Se  Se196  1  0.58373572  0.58615861  0.80306060  1
  Se  Se197  1  0.58367810  0.91454353  0.29920022  1
  Se  Se198  1  0.57457740  0.90837998  0.81516279  1
  Se  Se199  1  0.90094472  0.23664509  0.30210468  1
  Se  Se200  1  0.92413932  0.25814577  0.80554601  1
  Se  Se201  1  0.91613384  0.58440578  0.30490195  1
  Se  Se202  1  0.91541086  0.58811545  0.79706905  1
  Se  Se203  1  0.91332902  0.90420875  0.30820850  1
  Se  Se204  1  0.89799599  0.91585351  0.81761745  1
  Se  Se205  1  0.09462151  0.09416645  0.30069448  1
  Se  Se206  1  0.08638954  0.08876981  0.81962677  1
  Se  Se207  1  0.08708519  0.42584722  0.30945240  1
  Se  Se208  1  0.08337609  0.42124815  0.80399692  1
  Se  Se209  1  0.08300560  0.74447164  0.30484731  1
  Se  Se210  1  0.07826402  0.74804009  0.80301126  1
  Se  Se211  1  0.42927710  0.08916138  0.30320731  1
  Se  Se212  1  0.42794473  0.08023862  0.81583151  1
  Se  Se213  1  0.41373212  0.41753161  0.30540778  1
  Se  Se214  1  0.42230156  0.42082112  0.80827374  1
  Se  Se215  1  0.41873034  0.74625052  0.29918434  1
  Se  Se216  1  0.42410390  0.75682343  0.81112710  1
  Se  Se217  1  0.74144093  0.07462112  0.29495999  1
  Se  Se218  1  0.75726662  0.09204930  0.81233014  1
  Se  Se219  1  0.75226120  0.42217656  0.30827151  1
  Se  Se220  1  0.75137885  0.41947917  0.79387697  1
  Se  Se221  1  0.75824536  0.75897507  0.30719579  1
  Se  Se222  1  0.74254065  0.74781672  0.80934751  1
  Se  Se223  1  0.24549450  0.08641592  0.18191128  1
  Se  Se224  1  0.23735709  0.09804181  0.69854505  1
  Se  Se225  1  0.25214787  0.41738545  0.19813234  1
  Se  Se226  1  0.24689026  0.43212460  0.68928175  1
  Se  Se227  1  0.25440240  0.74045724  0.19644269  1
  Se  Se228  1  0.24557180  0.75542578  0.68980533  1
  Se  Se229  1  0.58571282  0.08808380  0.18871637  1
  Se  Se230  1  0.57901469  0.08325945  0.69206898  1
  Se  Se231  1  0.57597853  0.42741304  0.19043912  1
  Se  Se232  1  0.58252839  0.41307533  0.69530697  1
  Se  Se233  1  0.57811853  0.75277665  0.18253080  1
  Se  Se234  1  0.58245454  0.74412151  0.70114308  1
  Se  Se235  1  0.91193407  0.08318888  0.18329907  1
  Se  Se236  1  0.91826367  0.09326440  0.69591364  1
  Se  Se237  1  0.91024013  0.42025964  0.18847350  1
  Se  Se238  1  0.94122962  0.39971418  0.69666767  1
  Se  Se239  1  0.91491819  0.74338433  0.20033886  1
  Se  Se240  1  0.91869825  0.75414543  0.70630196  1
  Se  Se241  1  0.08358257  0.24881043  0.18280479  1
  Se  Se242  1  0.08741370  0.25928002  0.70430145  1
  Se  Se243  1  0.07928839  0.58405373  0.19731009  1
  Se  Se244  1  0.08006910  0.58989560  0.69454885  1
  Se  Se245  1  0.08880721  0.90158673  0.19102254  1
  Se  Se246  1  0.08901967  0.91434949  0.69083700  1
  Se  Se247  1  0.41848159  0.25487638  0.20171896  1
  Se  Se248  1  0.42541566  0.23778281  0.69483177  1
  Se  Se249  1  0.41317677  0.58951003  0.19587785  1
  Se  Se250  1  0.41817974  0.57386092  0.68834333  1
  Se  Se251  1  0.42146211  0.90800243  0.18300991  1
  Se  Se252  1  0.42643856  0.90246759  0.69392701  1
  Se  Se253  1  0.75001502  0.24500590  0.18208248  1
  Se  Se254  1  0.74738179  0.24887577  0.70247154  1
  Se  Se255  1  0.75238979  0.57550887  0.18743062  1
  Se  Se256  1  0.74590946  0.57658258  0.70473664  1
  Se  Se257  1  0.75267173  0.91368741  0.18916672  1
  Se  Se258  1  0.75294766  0.90808484  0.69012871  1
