# generated using pymatgen
data_In86Cu29Se144
_symmetry_space_group_name_H-M   'P 1'
_cell_length_a   17.57920654
_cell_length_b   17.57953829
_cell_length_c   23.44037416
_cell_angle_alpha   90.01148712
_cell_angle_beta   90.00585975
_cell_angle_gamma   89.99896059
_symmetry_Int_Tables_number   1
_chemical_formula_structural   In86Cu29Se144
_chemical_formula_sum   'In86 Cu29 Se144'
_cell_volume   7243.88024458
_cell_formula_units_Z   1
loop_
 _symmetry_equiv_pos_site_id
 _symmetry_equiv_pos_as_xyz
  1  'x, y, z'
loop_
 _atom_site_type_symbol
 _atom_site_label
 _atom_site_symmetry_multiplicity
 _atom_site_fract_x
 _atom_site_fract_y
 _atom_site_fract_z
 _atom_site_occupancy
  In  In0  1  0.00226284  0.15766395  0.13220380  1
  In  In1  1  -0.00421458  0.16619995  0.62412808  1
  In  In2  1  -0.00987550  0.48714478  0.11552797  1
  In  In3  1  -0.00740437  0.50468686  0.63446403  1
  In  In4  1  -0.00200837  0.84716844  0.12380750  1
  In  In5  1  0.00257803  0.83679803  0.64050331  1
  In  In6  1  0.33876954  0.17065228  0.11799941  1
  In  In7  1  0.32949519  0.18025898  0.62133456  1
  In  In8  1  0.34458264  0.50846766  0.11593707  1
  In  In9  1  0.34240685  0.51148356  0.62498121  1
  In  In10  1  0.33605892  0.81965997  0.12563833  1
  In  In11  1  0.33639077  0.80852329  0.63145075  1
  In  In12  1  0.65939028  0.16666997  0.13155830  1
  In  In13  1  0.67059400  0.14890055  0.62529340  1
  In  In14  1  0.67334261  0.49777904  0.11216353  1
  In  In15  1  0.67052896  0.50599611  0.62812903  1
  In  In16  1  0.66864870  0.83498717  0.11732672  1
  In  In17  1  0.65889198  0.83811580  0.62818424  1
  In  In18  1  0.16572866  0.01517232  0.37855999  1
  In  In19  1  0.16413825  0.01367135  0.87790039  1
  In  In20  1  0.14660165  0.32944440  0.37050106  1
  In  In21  1  0.16117793  0.34060650  0.88209372  1
  In  In22  1  0.17639649  0.65863653  0.37319614  1
  In  In23  1  0.15380120  0.65876648  0.86430640  1
  In  In24  1  0.49980725  -0.00761193  0.36973098  1
  In  In25  1  0.50861247  -0.01426328  0.88340899  1
  In  In26  1  0.51453130  0.34199762  0.37667792  1
  In  In27  1  0.49704099  0.34259395  0.88656866  1
  In  In28  1  0.49877357  0.67611326  0.38202116  1
  In  In29  1  0.50582980  0.66363570  0.87179071  1
  In  In30  1  0.84714448  0.02585081  0.34808266  1
  In  In31  1  0.82244245  -0.00660639  0.86968598  1
  In  In32  1  0.83494825  0.32486271  0.38084777  1
  In  In33  1  0.84429939  0.33265976  0.87359211  1
  In  In34  1  0.82098468  0.66409253  0.37998749  1
  In  In35  1  0.83323097  0.66773313  0.87556701  1
  In  In36  1  -0.00178229  0.16884355  0.37528041  1
  In  In37  1  0.00265971  0.17583015  0.86934409  1
  In  In38  1  -0.00833869  0.48219675  0.37042943  1
  In  In39  1  -0.00048285  0.49956996  0.87602252  1
  In  In40  1  -0.01565447  0.83751064  0.37559468  1
  In  In41  1  -0.01093887  0.82171624  0.86416718  1
  In  In42  1  0.32619877  0.15561307  0.37864098  1
  In  In43  1  0.33110791  0.16947236  0.88494691  1
  In  In44  1  0.33750229  0.51839932  0.37085235  1
  In  In45  1  0.33241710  0.50596431  0.87785285  1
  In  In46  1  0.35524432  0.83300419  0.37200048  1
  In  In47  1  0.34786137  0.83034182  0.87725387  1
  In  In48  1  0.68136143  0.17059132  0.36740010  1
  In  In49  1  0.67038226  0.15503235  0.87548658  1
  In  In50  1  0.66710808  0.49322134  0.38537594  1
  In  In51  1  0.65015033  0.51864096  0.88881280  1
  In  In52  1  0.65510672  0.83923932  0.37498955  1
  In  In53  1  0.66751337  0.83095353  0.87454781  1
  In  In54  1  0.15047498  0.00277929  0.12327568  1
  In  In55  1  0.15046043  -0.00189072  0.62424857  1
  In  In56  1  0.15609012  0.32462660  0.11597160  1
  In  In57  1  0.16513873  0.31941089  0.62351228  1
  In  In58  1  0.18130656  0.66730023  0.12262665  1
  In  In59  1  0.17274836  0.66877047  0.64424466  1
  In  In60  1  0.51201154  0.00635792  0.12191052  1
  In  In61  1  0.51880841  -0.00357361  0.62458114  1
  In  In62  1  0.50647313  0.32949645  0.11421376  1
  In  In63  1  0.48784997  0.34384705  0.62483383  1
  In  In64  1  0.49929785  0.66434900  0.11878016  1
  In  In65  1  0.50064656  0.66690866  0.62794650  1
  In  In66  1  0.84167457  -0.00312704  0.12965731  1
  In  In67  1  0.83181873  0.00060062  0.62553426  1
  In  In68  1  0.83488664  0.34734773  0.13031684  1
  In  In69  1  0.84246219  0.34031710  0.62206125  1
  In  In70  1  0.82773059  0.66056430  0.11466148  1
  In  In71  1  0.84383141  0.65607110  0.63389420  1
  In  In72  1  0.50183675  0.16934038  0.49955582  1
  In  In73  1  0.33336025  0.33600697  0.23613219  1
  In  In74  1  0.33214174  -0.00444995  0.75247493  1
  In  In75  1  0.16533897  0.49491221  0.49674317  1
  In  In76  1  0.16423344  0.83541945  -0.00261198  1
  In  In77  1  0.66868612  0.33895871  0.75007966  1
  In  In78  1  0.67367159  0.33094880  0.24585832  1
  In  In79  1  0.82829141  0.17266969  0.00215573  1
  In  In80  1  0.81953226  0.83625270  0.50023021  1
  In  In81  1  0.33664345  -0.00019382  0.24958083  1
  In  In82  1  0.66629617  0.66227747  0.24149551  1
  In  In83  1  0.16728533  0.83285936  0.51201863  1
  In  In84  1  0.33023928  0.33974270  0.75823030  1
  In  In85  1  0.00238110  0.66743229  0.25474468  1
  Cu  Cu86  1  0.67301603  -0.00136992  0.49609327  1
  Cu  Cu87  1  0.16943534  0.83832801  0.24699927  1
  Cu  Cu88  1  0.33536345  0.00167093  0.00063637  1
  Cu  Cu89  1  0.83610099  0.16084700  0.74981260  1
  Cu  Cu90  1  0.00055905  0.66531197  -0.00762760  1
  Cu  Cu91  1  0.66885278  0.33632519  0.50427604  1
  Cu  Cu92  1  0.16585018  0.50236011  0.24747255  1
  Cu  Cu93  1  0.16233289  0.16891781  0.24948677  1
  Cu  Cu94  1  0.33710948  0.66470085  -0.00327518  1
  Cu  Cu95  1  0.33972413  0.66814667  0.50179459  1
  Cu  Cu96  1  0.82628913  0.83247078  0.74997046  1
  Cu  Cu97  1  0.83398305  0.50299403  0.75479064  1
  Cu  Cu98  1  -0.00502725  0.00526247  0.49798418  1
  Cu  Cu99  1  0.00359149  0.33282273  -0.00330099  1
  Cu  Cu100  1  0.50064950  0.50635501  0.24568961  1
  Cu  Cu101  1  0.66407467  -0.00399980  -0.00286758  1
  Cu  Cu102  1  0.33361932  0.33483851  0.00078004  1
  Cu  Cu103  1  0.33607083  -0.00447548  0.49848520  1
  Cu  Cu104  1  0.50410700  0.16185611  0.75605130  1
  Cu  Cu105  1  0.83257560  0.83572830  0.24508887  1
  Cu  Cu106  1  0.66328307  0.66026757  0.50495864  1
  Cu  Cu107  1  -0.00531824  0.32714215  0.49839259  1
  Cu  Cu108  1  -0.00155507  0.65593300  0.50873468  1
  Cu  Cu109  1  -0.00760045  0.00465150  0.00119265  1
  Cu  Cu110  1  0.32785666  0.33886409  0.49938692  1
  Cu  Cu111  1  0.66672944  0.67132947  -0.00371008  1
  Cu  Cu112  1  0.15589271  0.16337035  0.74830383  1
  Cu  Cu113  1  0.50641849  0.82946798  0.75446946  1
  Cu  Cu114  1  0.16200182  0.49241490  0.75462469  1
  Se  Se115  1  0.07894940  0.08803156  0.05100559  1
  Se  Se116  1  0.08049766  0.08509028  0.55266231  1
  Se  Se117  1  0.08723256  0.41991569  0.04799133  1
  Se  Se118  1  0.07486418  0.40990892  0.55945822  1
  Se  Se119  1  0.07585370  0.74402345  0.05980190  1
  Se  Se120  1  0.07606287  0.73808008  0.56710984  1
  Se  Se121  1  0.42110523  0.08316378  0.05400441  1
  Se  Se122  1  0.41420966  0.07780175  0.56251195  1
  Se  Se123  1  0.42150714  0.41666164  0.05124613  1
  Se  Se124  1  0.41013876  0.42255683  0.55150907  1
  Se  Se125  1  0.41771732  0.75038002  0.04977769  1
  Se  Se126  1  0.42337121  0.75260393  0.55368442  1
  Se  Se127  1  0.74444370  0.07442332  0.05949867  1
  Se  Se128  1  0.75525140  0.08113175  0.55026452  1
  Se  Se129  1  0.75699127  0.40980361  0.05095145  1
  Se  Se130  1  0.74996540  0.41986574  0.55913302  1
  Se  Se131  1  0.75271095  0.75253683  0.04939826  1
  Se  Se132  1  0.74620154  0.73954754  0.56533015  1
  Se  Se133  1  0.25020825  0.24838730  0.05157367  1
  Se  Se134  1  0.24627123  0.24965141  0.54656311  1
  Se  Se135  1  0.25079453  0.58271412  0.04870888  1
  Se  Se136  1  0.24620811  0.59457768  0.55719241  1
  Se  Se137  1  0.25391469  0.92232242  0.06250713  1
  Se  Se138  1  0.26257170  0.92183083  0.56804199  1
  Se  Se139  1  0.59876310  0.24934562  0.05417174  1
  Se  Se140  1  0.58838580  0.25628561  0.56629891  1
  Se  Se141  1  0.58624769  0.58530873  0.05124654  1
  Se  Se142  1  0.57919359  0.57901568  0.55893539  1
  Se  Se143  1  0.57904544  0.91367665  0.05048481  1
  Se  Se144  1  0.58871054  0.91561623  0.54808283  1
  Se  Se145  1  0.92554987  0.25506596  0.06132940  1
  Se  Se146  1  0.91080826  0.24551515  0.55359240  1
  Se  Se147  1  0.91874158  0.58277899  0.04952001  1
  Se  Se148  1  0.91143254  0.57300926  0.55649484  1
  Se  Se149  1  0.91162281  0.91645037  0.05089859  1
  Se  Se150  1  0.92505853  0.91410404  0.55769001  1
  Se  Se151  1  0.08357864  0.24664107  0.44791385  1
  Se  Se152  1  0.08492631  0.24473275  0.94586433  1
  Se  Se153  1  0.07377437  0.58662613  0.43822496  1
  Se  Se154  1  0.08709488  0.58140033  0.94417159  1
  Se  Se155  1  0.07774616  0.91862158  0.44367799  1
  Se  Se156  1  0.07055494  0.92246498  0.93893764  1
  Se  Se157  1  0.41028833  0.25918498  0.43793301  1
  Se  Se158  1  0.41883670  0.24938661  0.95017231  1
  Se  Se159  1  0.42051201  0.58305337  0.44785109  1
  Se  Se160  1  0.42317969  0.58261747  0.94433493  1
  Se  Se161  1  0.42339132  0.91703167  0.44712250  1
  Se  Se162  1  0.41726209  0.91320330  0.95219998  1
  Se  Se163  1  0.74415742  0.24854348  0.44866454  1
  Se  Se164  1  0.74182624  0.25892780  0.93775038  1
  Se  Se165  1  0.74986423  0.57969172  0.45219863  1
  Se  Se166  1  0.75523216  0.58574994  0.94862010  1
  Se  Se167  1  0.75473658  0.92991746  0.42845866  1
  Se  Se168  1  0.75055014  0.91380444  0.94548413  1
  Se  Se169  1  0.24871967  0.08290834  0.45513273  1
  Se  Se170  1  0.24786614  0.08465203  0.95186342  1
  Se  Se171  1  0.25411648  0.41195801  0.42942413  1
  Se  Se172  1  0.25278899  0.41865233  0.94568667  1
  Se  Se173  1  0.25548100  0.74890561  0.44358184  1
  Se  Se174  1  0.25107189  0.74229084  0.93785058  1
  Se  Se175  1  0.58934173  0.08076018  0.43778992  1
  Se  Se176  1  0.58213782  0.08391503  0.94664181  1
  Se  Se177  1  0.57929594  0.41891220  0.45637131  1
  Se  Se178  1  0.58647628  0.41751816  0.95241967  1
  Se  Se179  1  0.59047447  0.75034570  0.44927325  1
  Se  Se180  1  0.58043526  0.75204217  0.94320499  1
  Se  Se181  1  0.91148234  0.08088830  0.43913715  1
  Se  Se182  1  0.91447386  0.08348466  0.93716673  1
  Se  Se183  1  0.91279359  0.41602929  0.44894924  1
  Se  Se184  1  0.91745081  0.41629341  0.94672471  1
  Se  Se185  1  0.92041839  0.74085987  0.44888211  1
  Se  Se186  1  0.91646762  0.75311465  0.94514430  1
  Se  Se187  1  0.24851778  0.24781685  0.30624676  1
  Se  Se188  1  0.24002809  0.24100386  0.80897362  1
  Se  Se189  1  0.25221704  0.58616049  0.29572980  1
  Se  Se190  1  0.24844533  0.57724657  0.80344353  1
  Se  Se191  1  0.24578185  0.91357652  0.31482897  1
  Se  Se192  1  0.24585715  0.91268192  0.81848435  1
  Se  Se193  1  0.57623729  0.24604671  0.30580984  1
  Se  Se194  1  0.57807049  0.24994881  0.81310092  1
  Se  Se195  1  0.58230119  0.57672898  0.31155076  1
  Se  Se196  1  0.59111260  0.58436006  0.80263024  1
  Se  Se197  1  0.57348579  0.90672060  0.30034686  1
  Se  Se198  1  0.58704115  0.91852410  0.80453434  1
  Se  Se199  1  0.91998302  0.25664516  0.30836992  1
  Se  Se200  1  0.91587857  0.25083724  0.79865409  1
  Se  Se201  1  0.90572460  0.58006314  0.30984495  1
  Se  Se202  1  0.92003082  0.58611131  0.80711551  1
  Se  Se203  1  0.92082715  0.91608627  0.29671219  1
  Se  Se204  1  0.91159339  0.91710860  0.80153442  1
  Se  Se205  1  0.08240176  0.08411114  0.30478866  1
  Se  Se206  1  0.07661292  0.07974807  0.80351129  1
  Se  Se207  1  0.08144797  0.41761895  0.29673174  1
  Se  Se208  1  0.07827351  0.40966831  0.80657490  1
  Se  Se209  1  0.09241025  0.76159376  0.31475554  1
  Se  Se210  1  0.08740904  0.75616372  0.79953471  1
  Se  Se211  1  0.42370468  0.09617959  0.30727894  1
  Se  Se212  1  0.41987615  0.08536179  0.81504504  1
  Se  Se213  1  0.42237618  0.42156570  0.30494611  1
  Se  Se214  1  0.42836359  0.42829029  0.80788065  1
  Se  Se215  1  0.41492191  0.73701271  0.30385346  1
  Se  Se216  1  0.41881288  0.74724261  0.80349215  1
  Se  Se217  1  0.72620572  0.06961216  0.29510643  1
  Se  Se218  1  0.74652173  0.08107929  0.79917014  1
  Se  Se219  1  0.75459795  0.42183369  0.31141013  1
  Se  Se220  1  0.75277409  0.42563875  0.81536464  1
  Se  Se221  1  0.75386212  0.75599603  0.30577359  1
  Se  Se222  1  0.74792170  0.74690049  0.80501109  1
  Se  Se223  1  0.24430712  0.09027490  0.18927964  1
  Se  Se224  1  0.24708429  0.09198187  0.69029562  1
  Se  Se225  1  0.24152437  0.42670685  0.18070153  1
  Se  Se226  1  0.24331629  0.42128200  0.68740821  1
  Se  Se227  1  0.25022093  0.74967041  0.19907371  1
  Se  Se228  1  0.24209314  0.76558524  0.70760889  1
  Se  Se229  1  0.58914314  0.07605445  0.20056323  1
  Se  Se230  1  0.58560097  0.08078017  0.70044909  1
  Se  Se231  1  0.58036022  0.42430174  0.18815153  1
  Se  Se232  1  0.57130078  0.42615302  0.69437727  1
  Se  Se233  1  0.57689444  0.75667295  0.18884433  1
  Se  Se234  1  0.58748998  0.74738112  0.69708145  1
  Se  Se235  1  0.91729237  0.08048520  0.20018740  1
  Se  Se236  1  0.91920482  0.07853952  0.69404246  1
  Se  Se237  1  0.92537440  0.41868570  0.19888751  1
  Se  Se238  1  0.91409293  0.41525162  0.70135814  1
  Se  Se239  1  0.91171850  0.75034032  0.18777461  1
  Se  Se240  1  0.91566077  0.74937590  0.70094234  1
  Se  Se241  1  0.08198068  0.25306466  0.19504019  1
  Se  Se242  1  0.07733533  0.25101768  0.69507388  1
  Se  Se243  1  0.08574974  0.58300370  0.18625214  1
  Se  Se244  1  0.08202401  0.58082046  0.70164745  1
  Se  Se245  1  0.08152524  0.91897234  0.19834174  1
  Se  Se246  1  0.09199830  0.91719581  0.70289838  1
  Se  Se247  1  0.43150977  0.24229657  0.19073501  1
  Se  Se248  1  0.42281577  0.24334980  0.69775351  1
  Se  Se249  1  0.41645136  0.58775799  0.19276807  1
  Se  Se250  1  0.40465087  0.59944280  0.69696766  1
  Se  Se251  1  0.42235917  0.91227460  0.18737752  1
  Se  Se252  1  0.42717450  0.91049826  0.69105392  1
  Se  Se253  1  0.76674032  0.23874441  0.19203920  1
  Se  Se254  1  0.75471566  0.24326569  0.68980244  1
  Se  Se255  1  0.76077811  0.56913760  0.19065628  1
  Se  Se256  1  0.74949142  0.58470596  0.70140518  1
  Se  Se257  1  0.74778694  0.91423498  0.19029471  1
  Se  Se258  1  0.74821972  0.91824515  0.69342733  1
