# generated using pymatgen
data_In86Cu29Se144
_symmetry_space_group_name_H-M   'P 1'
_cell_length_a   17.57554613
_cell_length_b   17.57868773
_cell_length_c   23.43985071
_cell_angle_alpha   90.01488445
_cell_angle_beta   90.02038297
_cell_angle_gamma   90.00438358
_symmetry_Int_Tables_number   1
_chemical_formula_structural   In86Cu29Se144
_chemical_formula_sum   'In86 Cu29 Se144'
_cell_volume   7241.85922432
_cell_formula_units_Z   1
loop_
 _symmetry_equiv_pos_site_id
 _symmetry_equiv_pos_as_xyz
  1  'x, y, z'
loop_
 _atom_site_type_symbol
 _atom_site_label
 _atom_site_symmetry_multiplicity
 _atom_site_fract_x
 _atom_site_fract_y
 _atom_site_fract_z
 _atom_site_occupancy
  In  In0  1  -0.01088916  0.16648093  0.12492759  1
  In  In1  1  0.01225317  0.15073118  0.63376184  1
  In  In2  1  -0.00785984  0.49176720  0.10943734  1
  In  In3  1  -0.00465388  0.51529561  0.64318224  1
  In  In4  1  0.01613136  0.83165809  0.12694454  1
  In  In5  1  -0.00110836  0.83567307  0.62187428  1
  In  In6  1  0.34514213  0.14532223  0.12480379  1
  In  In7  1  0.32158494  0.17994421  0.63386449  1
  In  In8  1  0.34328821  0.51159859  0.12012565  1
  In  In9  1  0.31072021  0.50000177  0.63509891  1
  In  In10  1  0.32268845  0.84693240  0.13010030  1
  In  In11  1  0.33319437  0.83277180  0.61555877  1
  In  In12  1  0.67051283  0.16999794  0.12174991  1
  In  In13  1  0.65526394  0.16062823  0.62739160  1
  In  In14  1  0.66364486  0.49328354  0.11560497  1
  In  In15  1  0.68290202  0.49907842  0.62575851  1
  In  In16  1  0.67728198  0.83939999  0.13161055  1
  In  In17  1  0.66857315  0.83119263  0.62442616  1
  In  In18  1  0.16822163  -0.00358879  0.37930692  1
  In  In19  1  0.15633037  0.00146652  0.87701712  1
  In  In20  1  0.15652816  0.34019449  0.37681144  1
  In  In21  1  0.18002159  0.34662568  0.85702099  1
  In  In22  1  0.17694519  0.67549720  0.37316105  1
  In  In23  1  0.15727486  0.67305785  0.87496472  1
  In  In24  1  0.49269101  -0.00084754  0.36649148  1
  In  In25  1  0.51478053  -0.00867197  0.88008792  1
  In  In26  1  0.50013944  0.31967143  0.36797932  1
  In  In27  1  0.49922782  0.33959331  0.88839228  1
  In  In28  1  0.50662934  0.68028301  0.37300948  1
  In  In29  1  0.49775912  0.65065756  0.87521824  1
  In  In30  1  0.82942471  -0.00126407  0.37376505  1
  In  In31  1  0.84254770  0.00637795  0.87137723  1
  In  In32  1  0.83081100  0.34412916  0.37303057  1
  In  In33  1  0.83279314  0.32456076  0.88594274  1
  In  In34  1  0.83880427  0.66258250  0.38200617  1
  In  In35  1  0.83247675  0.65953733  0.86488311  1
  In  In36  1  0.01657522  0.16218184  0.38352332  1
  In  In37  1  -0.00854139  0.16327275  0.87019859  1
  In  In38  1  -0.00917735  0.49502409  0.37564641  1
  In  In39  1  0.00410638  0.49827146  0.87010029  1
  In  In40  1  -0.01101749  0.84784732  0.39323395  1
  In  In41  1  0.01335784  0.83657285  0.85828101  1
  In  In42  1  0.33906298  0.15745947  0.37363104  1
  In  In43  1  0.32728236  0.17440016  0.88055054  1
  In  In44  1  0.31991074  0.50415121  0.36304557  1
  In  In45  1  0.34272306  0.49181871  0.88391963  1
  In  In46  1  0.33553664  0.83798592  0.37777110  1
  In  In47  1  0.32633495  0.82729487  0.87817303  1
  In  In48  1  0.66173362  0.16541131  0.36371686  1
  In  In49  1  0.67810138  0.16494926  0.88964443  1
  In  In50  1  0.68074656  0.50343716  0.36467190  1
  In  In51  1  0.66023716  0.50233834  0.88399666  1
  In  In52  1  0.65788438  0.84024962  0.38104796  1
  In  In53  1  0.67765979  0.83764883  0.86507010  1
  In  In54  1  0.18053412  -0.01167600  0.13222877  1
  In  In55  1  0.13519087  -0.02137280  0.60140745  1
  In  In56  1  0.15356543  0.33484356  0.11848151  1
  In  In57  1  0.16511030  0.33279587  0.63782164  1
  In  In58  1  0.17580091  0.67895471  0.11599531  1
  In  In59  1  0.13913518  0.68059271  0.64473272  1
  In  In60  1  0.49471105  0.01207827  0.12782459  1
  In  In61  1  0.51211314  -0.00043432  0.62653750  1
  In  In62  1  0.52713904  0.35157761  0.10076587  1
  In  In63  1  0.48840544  0.32401599  0.62882359  1
  In  In64  1  0.49211140  0.64640808  0.12718269  1
  In  In65  1  0.49384106  0.68007023  0.62599151  1
  In  In66  1  0.82443150  0.00799723  0.13706414  1
  In  In67  1  0.85282773  -0.02188133  0.63464434  1
  In  In68  1  0.82527392  0.32884880  0.11098430  1
  In  In69  1  0.83303618  0.34992276  0.62332586  1
  In  In70  1  0.84109387  0.66241933  0.12108861  1
  In  In71  1  0.83438222  0.66769209  0.62486652  1
  In  In72  1  0.66179330  0.66719888  0.24576269  1
  In  In73  1  0.16129009  0.16614595  -0.00155562  1
  In  In74  1  0.33396800  0.66458408  0.75000788  1
  In  In75  1  0.49629268  0.83022388  0.00097119  1
  In  In76  1  0.84233993  0.83107615  -0.00020586  1
  In  In77  1  0.33993157  0.33031572  0.24111080  1
  In  In78  1  0.32681593  0.00504687  0.75327243  1
  In  In79  1  0.50205237  0.50568898  0.49618572  1
  In  In80  1  0.49642461  0.16262203  0.49868494  1
  In  In81  1  -0.00917169  0.33018178  0.24461665  1
  In  In82  1  0.83611996  0.16026727  0.50429022  1
  In  In83  1  0.15874397  0.51065930  0.51270245  1
  In  In84  1  0.66788560  0.33351223  0.75761227  1
  In  In85  1  0.00177760  0.66697546  0.25287464  1
  Cu  Cu86  1  0.67061911  0.00688479  0.00512505  1
  Cu  Cu87  1  0.67081561  0.33785536  0.49460719  1
  Cu  Cu88  1  0.32936053  0.32983720  0.00017523  1
  Cu  Cu89  1  0.49351210  0.83561986  0.25257186  1
  Cu  Cu90  1  0.33477907  0.67190780  0.49822304  1
  Cu  Cu91  1  0.82609684  0.16540023  0.75295648  1
  Cu  Cu92  1  0.00200320  0.66304708  -0.00569209  1
  Cu  Cu93  1  -0.00312930  0.33182850  0.50079701  1
  Cu  Cu94  1  0.16997996  0.84130391  0.25380330  1
  Cu  Cu95  1  0.67103692  -0.00882798  0.50203508  1
  Cu  Cu96  1  0.66268976  0.66302696  -0.00478628  1
  Cu  Cu97  1  0.50993749  0.17121833  0.23949105  1
  Cu  Cu98  1  -0.00426985  0.00015510  -0.00258142  1
  Cu  Cu99  1  0.15634582  0.16010905  0.75127086  1
  Cu  Cu100  1  0.33495162  0.00388957  0.49608176  1
  Cu  Cu101  1  0.67321932  0.66844048  0.49976478  1
  Cu  Cu102  1  0.50865331  0.83533220  0.74793244  1
  Cu  Cu103  1  0.17250736  0.15826416  0.25569868  1
  Cu  Cu104  1  0.32890551  0.66249889  -0.00159434  1
  Cu  Cu105  1  0.83415791  0.16571290  0.24921341  1
  Cu  Cu106  1  0.50363214  0.49419561  0.75846239  1
  Cu  Cu107  1  0.00012217  0.66622866  0.50793365  1
  Cu  Cu108  1  0.00257442  0.33689492  -0.00966628  1
  Cu  Cu109  1  0.50075984  0.16434029  0.75368899  1
  Cu  Cu110  1  0.83391259  0.83739388  0.25893117  1
  Cu  Cu111  1  0.83803068  0.50613026  0.75117420  1
  Cu  Cu112  1  0.16542410  0.51108400  0.23963479  1
  Cu  Cu113  1  0.83385995  0.82800566  0.74472596  1
  Cu  Cu114  1  0.32284972  0.33970737  0.50901467  1
  Se  Se115  1  0.07782237  0.07476893  0.06218409  1
  Se  Se116  1  0.08296370  0.09489905  0.54777277  1
  Se  Se117  1  0.08713659  0.41909118  0.04344964  1
  Se  Se118  1  0.07234052  0.41253081  0.56552667  1
  Se  Se119  1  0.08046885  0.75012292  0.04887198  1
  Se  Se120  1  0.08803486  0.74910391  0.55598772  1
  Se  Se121  1  0.41633616  0.07257269  0.04647524  1
  Se  Se122  1  0.40797659  0.08099007  0.56591278  1
  Se  Se123  1  0.41141527  0.41716255  0.05121077  1
  Se  Se124  1  0.40987149  0.42048458  0.56168746  1
  Se  Se125  1  0.40724737  0.74279638  0.06269313  1
  Se  Se126  1  0.42231677  0.75499498  0.54792336  1
  Se  Se127  1  0.76072127  0.08501013  0.05621733  1
  Se  Se128  1  0.74421855  0.07350110  0.56486878  1
  Se  Se129  1  0.75893318  0.42783913  0.04732809  1
  Se  Se130  1  0.75238597  0.42181023  0.54724947  1
  Se  Se131  1  0.74128917  0.74377290  0.05635961  1
  Se  Se132  1  0.75415267  0.75171672  0.55495373  1
  Se  Se133  1  0.25475578  0.24897381  0.06355352  1
  Se  Se134  1  0.24114093  0.25479222  0.55987102  1
  Se  Se135  1  0.24562260  0.57887127  0.05268305  1
  Se  Se136  1  0.25425863  0.60290516  0.56510313  1
  Se  Se137  1  0.23859692  0.90747408  0.05210908  1
  Se  Se138  1  0.25290296  0.91975220  0.54981119  1
  Se  Se139  1  0.57759070  0.23311652  0.04969947  1
  Se  Se140  1  0.58873066  0.26057187  0.55528758  1
  Se  Se141  1  0.57985623  0.58433728  0.05165929  1
  Se  Se142  1  0.59029973  0.59036287  0.56148805  1
  Se  Se143  1  0.59204277  0.91857498  0.05989566  1
  Se  Se144  1  0.58173959  0.91279447  0.55457447  1
  Se  Se145  1  0.92517484  0.25292095  0.04981606  1
  Se  Se146  1  0.92073893  0.25331638  0.56526935  1
  Se  Se147  1  0.91284335  0.58395594  0.04524397  1
  Se  Se148  1  0.92027484  0.57849420  0.56000674  1
  Se  Se149  1  0.92198403  0.92276075  0.06544404  1
  Se  Se150  1  0.91700182  0.91491606  0.54995910  1
  Se  Se151  1  0.08847921  0.25572814  0.45083189  1
  Se  Se152  1  0.08305183  0.25552182  0.93142405  1
  Se  Se153  1  0.07592258  0.59153991  0.43801151  1
  Se  Se154  1  0.08610142  0.57914937  0.94245878  1
  Se  Se155  1  0.09845538  0.90696916  0.45038083  1
  Se  Se156  1  0.07394513  0.91424183  0.94261621  1
  Se  Se157  1  0.40404145  0.26209553  0.44596415  1
  Se  Se158  1  0.41556821  0.24689328  0.95007255  1
  Se  Se159  1  0.40542013  0.58833129  0.43557372  1
  Se  Se160  1  0.42074651  0.58041102  0.95249870  1
  Se  Se161  1  0.42268153  0.92235923  0.44498838  1
  Se  Se162  1  0.40761718  0.92175962  0.94205820  1
  Se  Se163  1  0.74517130  0.24735699  0.43966007  1
  Se  Se164  1  0.73900052  0.26336636  0.95707240  1
  Se  Se165  1  0.74823594  0.57957010  0.44495884  1
  Se  Se166  1  0.75378710  0.58861329  0.94242515  1
  Se  Se167  1  0.75468227  0.91281189  0.44554323  1
  Se  Se168  1  0.74784707  0.92248742  0.94446589  1
  Se  Se169  1  0.25183270  0.08855754  0.44449873  1
  Se  Se170  1  0.25443718  0.07246246  0.94455450  1
  Se  Se171  1  0.25005928  0.42295140  0.44569321  1
  Se  Se172  1  0.24660645  0.41026031  0.94397098  1
  Se  Se173  1  0.24989688  0.75609739  0.44717036  1
  Se  Se174  1  0.24563790  0.74698398  0.94741825  1
  Se  Se175  1  0.59212895  0.07588409  0.44176516  1
  Se  Se176  1  0.58271834  0.08258074  0.95021216  1
  Se  Se177  1  0.58517727  0.41091212  0.43462444  1
  Se  Se178  1  0.59039578  0.41365383  0.95378294  1
  Se  Se179  1  0.58371842  0.74989601  0.45044412  1
  Se  Se180  1  0.58996168  0.74914973  0.93536991  1
  Se  Se181  1  0.92608249  0.07261269  0.44474796  1
  Se  Se182  1  0.91380209  0.08734131  0.94765505  1
  Se  Se183  1  0.91364663  0.41570356  0.44838209  1
  Se  Se184  1  0.91670765  0.42199184  0.94184947  1
  Se  Se185  1  0.91484070  0.74668236  0.45231550  1
  Se  Se186  1  0.92531116  0.74647205  0.93256153  1
  Se  Se187  1  0.24539338  0.25159275  0.31033320  1
  Se  Se188  1  0.24873859  0.23814463  0.80067475  1
  Se  Se189  1  0.24504380  0.59328532  0.29551125  1
  Se  Se190  1  0.25332886  0.57871062  0.81687788  1
  Se  Se191  1  0.25633481  0.92250934  0.30722668  1
  Se  Se192  1  0.23987554  0.90828899  0.80871070  1
  Se  Se193  1  0.58919783  0.25588791  0.29459193  1
  Se  Se194  1  0.57911663  0.24332363  0.81666484  1
  Se  Se195  1  0.57287500  0.57712299  0.30674415  1
  Se  Se196  1  0.58829470  0.58109542  0.80492739  1
  Se  Se197  1  0.58311290  0.91573645  0.30374780  1
  Se  Se198  1  0.58922193  0.92100205  0.80090296  1
  Se  Se199  1  0.91465400  0.23963663  0.31551156  1
  Se  Se200  1  0.90620999  0.25130939  0.80640486  1
  Se  Se201  1  0.90486036  0.57309707  0.30287978  1
  Se  Se202  1  0.92855898  0.58844353  0.79911111  1
  Se  Se203  1  0.92217109  0.91798996  0.30930917  1
  Se  Se204  1  0.91149587  0.91366782  0.80215735  1
  Se  Se205  1  0.08522672  0.07969368  0.30825288  1
  Se  Se206  1  0.07413936  0.07601173  0.80407498  1
  Se  Se207  1  0.08661068  0.42885530  0.30002213  1
  Se  Se208  1  0.06925247  0.40273548  0.80048064  1
  Se  Se209  1  0.08353166  0.76337384  0.31246015  1
  Se  Se210  1  0.08578623  0.74138322  0.79360085  1
  Se  Se211  1  0.42394085  0.09359938  0.29758418  1
  Se  Se212  1  0.42274418  0.08488881  0.81663353  1
  Se  Se213  1  0.42142185  0.42152475  0.30718750  1
  Se  Se214  1  0.42064444  0.41112227  0.81013903  1
  Se  Se215  1  0.41335075  0.75092598  0.30613703  1
  Se  Se216  1  0.42759419  0.75708393  0.80945992  1
  Se  Se217  1  0.75048963  0.08134723  0.30243523  1
  Se  Se218  1  0.74552795  0.08506977  0.81037510  1
  Se  Se219  1  0.74493317  0.40661488  0.29855512  1
  Se  Se220  1  0.75816593  0.42586000  0.81298991  1
  Se  Se221  1  0.75279128  0.75082890  0.31262784  1
  Se  Se222  1  0.74949741  0.74551796  0.79837441  1
  Se  Se223  1  0.25635986  0.08059000  0.19890406  1
  Se  Se224  1  0.23435333  0.08128907  0.68734617  1
  Se  Se225  1  0.24128710  0.41949687  0.18615562  1
  Se  Se226  1  0.26219139  0.40059812  0.70484232  1
  Se  Se227  1  0.24552447  0.75403918  0.19632777  1
  Se  Se228  1  0.24857219  0.76333599  0.69447340  1
  Se  Se229  1  0.59311039  0.08135615  0.19238313  1
  Se  Se230  1  0.58400496  0.08045602  0.70278053  1
  Se  Se231  1  0.57827387  0.42274369  0.18839320  1
  Se  Se232  1  0.57890731  0.41851051  0.68911237  1
  Se  Se233  1  0.57020379  0.75872878  0.18614424  1
  Se  Se234  1  0.58644194  0.74665987  0.69541765  1
  Se  Se235  1  0.92202834  0.08224507  0.20070605  1
  Se  Se236  1  0.91140714  0.08418728  0.69828791  1
  Se  Se237  1  0.90652751  0.42242395  0.18605372  1
  Se  Se238  1  0.91577513  0.41524618  0.70021448  1
  Se  Se239  1  0.90905145  0.75962355  0.19337866  1
  Se  Se240  1  0.92137307  0.74764751  0.69261566  1
  Se  Se241  1  0.09269128  0.23880133  0.19453095  1
  Se  Se242  1  0.07479064  0.25006694  0.70154481  1
  Se  Se243  1  0.07967004  0.58267979  0.17945017  1
  Se  Se244  1  0.12329297  0.55021869  0.69168759  1
  Se  Se245  1  0.08271926  0.92014782  0.19980532  1
  Se  Se246  1  0.07867894  0.92122084  0.69159735  1
  Se  Se247  1  0.43026328  0.24887128  0.17744244  1
  Se  Se248  1  0.41442955  0.24768193  0.70458790  1
  Se  Se249  1  0.40796708  0.58290075  0.20297214  1
  Se  Se250  1  0.42639215  0.57173074  0.69112798  1
  Se  Se251  1  0.41732520  0.92127675  0.19454518  1
  Se  Se252  1  0.41949620  0.91273835  0.69258723  1
  Se  Se253  1  0.75811990  0.24966135  0.19075673  1
  Se  Se254  1  0.75234637  0.24675367  0.68814332  1
  Se  Se255  1  0.75399347  0.57962128  0.18765945  1
  Se  Se256  1  0.75154823  0.58598286  0.69748298  1
  Se  Se257  1  0.74839840  0.91965951  0.20652199  1
  Se  Se258  1  0.74721547  0.91529599  0.69617390  1
