# generated using pymatgen
data_In86Cu29Se144
_symmetry_space_group_name_H-M   'P 1'
_cell_length_a   17.57517109
_cell_length_b   17.57692333
_cell_length_c   23.43492335
_cell_angle_alpha   89.99694440
_cell_angle_beta   90.00846766
_cell_angle_gamma   89.99777443
_symmetry_Int_Tables_number   1
_chemical_formula_structural   In86Cu29Se144
_chemical_formula_sum   'In86 Cu29 Se144'
_cell_volume   7239.45630844
_cell_formula_units_Z   1
loop_
 _symmetry_equiv_pos_site_id
 _symmetry_equiv_pos_as_xyz
  1  'x, y, z'
loop_
 _atom_site_type_symbol
 _atom_site_label
 _atom_site_symmetry_multiplicity
 _atom_site_fract_x
 _atom_site_fract_y
 _atom_site_fract_z
 _atom_site_occupancy
  In  In0  1  0.00078665  0.17020213  0.14430250  1
  In  In1  1  -0.00014862  0.17006324  0.61895748  1
  In  In2  1  0.00373274  0.48655442  0.12776566  1
  In  In3  1  -0.00030953  0.50147126  0.61827615  1
  In  In4  1  0.01420093  0.81955526  0.12902251  1
  In  In5  1  -0.00660951  0.83934867  0.64428232  1
  In  In6  1  0.32969895  0.16949996  0.13163579  1
  In  In7  1  0.34519342  0.17623232  0.61397776  1
  In  In8  1  0.34185121  0.50728879  0.12252590  1
  In  In9  1  0.32798604  0.50170143  0.62450866  1
  In  In10  1  0.31794908  0.83905797  0.12663474  1
  In  In11  1  0.32551768  0.81713627  0.63121485  1
  In  In12  1  0.67563174  0.16762052  0.13224576  1
  In  In13  1  0.67016566  0.16815235  0.62274681  1
  In  In14  1  0.66148385  0.50232006  0.12951396  1
  In  In15  1  0.65980613  0.49429429  0.61845247  1
  In  In16  1  0.66481001  0.83687085  0.12553586  1
  In  In17  1  0.68013190  0.84899934  0.61834515  1
  In  In18  1  0.15972741  0.01579070  0.37780636  1
  In  In19  1  0.15212864  0.00572003  0.87482122  1
  In  In20  1  0.16031860  0.34118740  0.37934086  1
  In  In21  1  0.17640490  0.34196050  0.86361514  1
  In  In22  1  0.16158822  0.62682411  0.37813975  1
  In  In23  1  0.16523264  0.66324971  0.87316779  1
  In  In24  1  0.49888950  0.00144260  0.38560988  1
  In  In25  1  0.50317328  -0.00789555  0.86439766  1
  In  In26  1  0.51281382  0.32217927  0.38326664  1
  In  In27  1  0.51003035  0.34309729  0.86860266  1
  In  In28  1  0.49207872  0.66848865  0.38061908  1
  In  In29  1  0.48567877  0.66176727  0.86538808  1
  In  In30  1  0.85010057  -0.00784511  0.38332843  1
  In  In31  1  0.84334516  -0.00131963  0.85391771  1
  In  In32  1  0.83049427  0.33577212  0.37874957  1
  In  In33  1  0.83198807  0.33743721  0.86014627  1
  In  In34  1  0.85885625  0.65244151  0.40724963  1
  In  In35  1  0.84214101  0.66343250  0.86439713  1
  In  In36  1  0.00327595  0.16537746  0.37895934  1
  In  In37  1  -0.00204209  0.16561566  0.86163895  1
  In  In38  1  0.00586835  0.49751439  0.38691495  1
  In  In39  1  0.01429469  0.50875630  0.86268033  1
  In  In40  1  -0.01048309  0.82516930  0.38210892  1
  In  In41  1  0.02126150  0.84619650  0.85210754  1
  In  In42  1  0.33337477  0.16957386  0.38650442  1
  In  In43  1  0.31739564  0.17320306  0.87083445  1
  In  In44  1  0.32289047  0.50914604  0.37969158  1
  In  In45  1  0.33211323  0.50072735  0.87353172  1
  In  In46  1  0.34084926  0.82707782  0.38082967  1
  In  In47  1  0.32800761  0.81345301  0.86160491  1
  In  In48  1  0.65886315  0.18232234  0.38203186  1
  In  In49  1  0.67137562  0.16971472  0.86248191  1
  In  In50  1  0.67779638  0.48002660  0.38581563  1
  In  In51  1  0.66788398  0.49006902  0.86995214  1
  In  In52  1  0.66952843  0.82918582  0.38652700  1
  In  In53  1  0.65853747  0.83727632  0.86009831  1
  In  In54  1  0.16576475  -0.01003497  0.12762795  1
  In  In55  1  0.14189051  -0.00407658  0.63045755  1
  In  In56  1  0.15168917  0.33698428  0.12840604  1
  In  In57  1  0.16725929  0.33701342  0.62051619  1
  In  In58  1  0.17685288  0.67511153  0.12096315  1
  In  In59  1  0.17390704  0.66504449  0.63722109  1
  In  In60  1  0.51315128  -0.00188653  0.12713219  1
  In  In61  1  0.51482144  0.01543095  0.61497747  1
  In  In62  1  0.48679559  0.34673225  0.13201026  1
  In  In63  1  0.49795196  0.33847506  0.62311584  1
  In  In64  1  0.50599693  0.64950978  0.12719088  1
  In  In65  1  0.48708199  0.65692143  0.61814297  1
  In  In66  1  0.83401422  0.01216280  0.12964615  1
  In  In67  1  0.83290389  0.00186921  0.62843948  1
  In  In68  1  0.84279878  0.33429369  0.14205049  1
  In  In69  1  0.83447107  0.33200671  0.61875586  1
  In  In70  1  0.82373038  0.66260064  0.12786857  1
  In  In71  1  0.85384540  0.68179096  0.60414671  1
  In  In72  1  0.84201849  0.83490836  -0.01280022  1
  In  In73  1  0.32737066  0.00470401  0.25748609  1
  In  In74  1  0.83536425  0.16991376  -0.00099192  1
  In  In75  1  0.15785841  0.17263098  0.00801115  1
  In  In76  1  0.48410368  0.81541926  -0.01560748  1
  In  In77  1  0.84096738  0.49653376  0.00306723  1
  In  In78  1  0.67718044  0.67111785  0.73816308  1
  In  In79  1  0.16552337  0.83016310  0.50915064  1
  In  In80  1  0.33703080  0.00734837  0.74385991  1
  In  In81  1  0.67232629  0.65906049  0.25529368  1
  In  In82  1  0.66535073  0.00736815  0.25448637  1
  In  In83  1  0.00220553  0.65824110  0.26249581  1
  In  In84  1  0.32758469  0.33859018  0.25790861  1
  In  In85  1  0.49211898  0.17110072  0.00891165  1
  Cu  Cu86  1  0.65449403  -0.00409434  -0.01082378  1
  Cu  Cu87  1  0.33213487  -0.00307881  0.50275772  1
  Cu  Cu88  1  0.66489321  0.33072496  0.50422933  1
  Cu  Cu89  1  0.83308603  0.49444731  0.73621586  1
  Cu  Cu90  1  0.32657670  0.66465884  0.50328197  1
  Cu  Cu91  1  0.66838192  0.65949363  -0.00033098  1
  Cu  Cu92  1  0.50407612  0.17492798  0.74110001  1
  Cu  Cu93  1  0.33704473  0.34270689  -0.00327083  1
  Cu  Cu94  1  0.33308134  0.34164606  0.50011263  1
  Cu  Cu95  1  0.83572388  0.16852728  0.25938841  1
  Cu  Cu96  1  0.33095228  0.66094425  -0.00520747  1
  Cu  Cu97  1  0.49434099  0.50140359  0.74388828  1
  Cu  Cu98  1  0.16756170  0.49435706  0.74700946  1
  Cu  Cu99  1  0.00084673  0.33237663  0.50064247  1
  Cu  Cu100  1  -0.00160603  0.00187523  0.50739547  1
  Cu  Cu101  1  0.32664167  -0.00914127  0.00116790  1
  Cu  Cu102  1  0.83475505  0.16941037  0.73950199  1
  Cu  Cu103  1  0.16449688  0.83294300  0.25166714  1
  Cu  Cu104  1  0.01387238  0.66247608  -0.00302029  1
  Cu  Cu105  1  0.50803875  0.83967139  0.73844991  1
  Cu  Cu106  1  0.65576104  0.66637715  0.50338094  1
  Cu  Cu107  1  0.49355989  0.82982811  0.25675241  1
  Cu  Cu108  1  0.00333852  0.33634096  -0.00256032  1
  Cu  Cu109  1  0.50399027  0.49770552  0.25323384  1
  Cu  Cu110  1  0.67354206  0.00214022  0.49927401  1
  Cu  Cu111  1  -0.00041831  -0.01070948  -0.00270371  1
  Cu  Cu112  1  0.16613706  0.17280865  0.74161012  1
  Cu  Cu113  1  0.66073359  0.34056148  -0.00051962  1
  Cu  Cu114  1  0.83458721  0.82828060  0.26274347  1
  Se  Se115  1  0.06758672  0.07627165  0.06253410  1
  Se  Se116  1  0.08860775  0.08586537  0.55264664  1
  Se  Se117  1  0.08638136  0.41964040  0.05019190  1
  Se  Se118  1  0.08573079  0.41892082  0.54963729  1
  Se  Se119  1  0.09038931  0.75308941  0.04985970  1
  Se  Se120  1  0.07761496  0.74830739  0.57292963  1
  Se  Se121  1  0.40438548  0.06780360  0.06290995  1
  Se  Se122  1  0.42017793  0.08475551  0.54743226  1
  Se  Se123  1  0.42208157  0.42235038  0.05148440  1
  Se  Se124  1  0.41529340  0.42361292  0.55551606  1
  Se  Se125  1  0.40912316  0.74027513  0.06305159  1
  Se  Se126  1  0.40903556  0.75206266  0.55383706  1
  Se  Se127  1  0.73645724  0.07322886  0.05167982  1
  Se  Se128  1  0.75448121  0.08416005  0.55520304  1
  Se  Se129  1  0.74917494  0.40800693  0.06291842  1
  Se  Se130  1  0.75051427  0.41736237  0.55162032  1
  Se  Se131  1  0.74535080  0.74856999  0.05259699  1
  Se  Se132  1  0.74398499  0.75061113  0.55025749  1
  Se  Se133  1  0.25901586  0.26234354  0.05897041  1
  Se  Se134  1  0.25078266  0.25351340  0.55081935  1
  Se  Se135  1  0.25122351  0.58211558  0.05450260  1
  Se  Se136  1  0.24127924  0.58524817  0.55762663  1
  Se  Se137  1  0.23790863  0.91028343  0.05072797  1
  Se  Se138  1  0.25357034  0.92426059  0.56813500  1
  Se  Se139  1  0.59001903  0.25855643  0.06511255  1
  Se  Se140  1  0.57995068  0.24918361  0.55758649  1
  Se  Se141  1  0.58594865  0.57708782  0.05209386  1
  Se  Se142  1  0.57440117  0.57781282  0.55163347  1
  Se  Se143  1  0.57827437  0.90884996  0.04684014  1
  Se  Se144  1  0.58555677  0.91833813  0.54959626  1
  Se  Se145  1  0.92571418  0.25599188  0.06134726  1
  Se  Se146  1  0.91421828  0.24723372  0.54858747  1
  Se  Se147  1  0.92704523  0.59436469  0.06089830  1
  Se  Se148  1  0.90704067  0.56927761  0.54712234  1
  Se  Se149  1  0.91797140  0.91800699  0.06402738  1
  Se  Se150  1  0.92283279  0.91645756  0.56471946  1
  Se  Se151  1  0.08640086  0.24978771  0.44752698  1
  Se  Se152  1  0.07770444  0.25374415  0.93450195  1
  Se  Se153  1  0.05294920  0.61213045  0.44937664  1
  Se  Se154  1  0.09004254  0.57289314  0.94486703  1
  Se  Se155  1  0.07906746  0.92128781  0.44557344  1
  Se  Se156  1  0.08314886  0.91015528  0.94176764  1
  Se  Se157  1  0.41766908  0.25289388  0.45205039  1
  Se  Se158  1  0.41028338  0.25441631  0.93799178  1
  Se  Se159  1  0.41280614  0.58305860  0.44983779  1
  Se  Se160  1  0.41940702  0.58208133  0.94332574  1
  Se  Se161  1  0.41571841  0.91354429  0.45009389  1
  Se  Se162  1  0.40287840  0.92178793  0.93185171  1
  Se  Se163  1  0.75232383  0.25003713  0.45137737  1
  Se  Se164  1  0.74282282  0.26084050  0.93951434  1
  Se  Se165  1  0.74084303  0.58447901  0.44989074  1
  Se  Se166  1  0.75183613  0.58498094  0.93901521  1
  Se  Se167  1  0.75601577  0.91564091  0.44802830  1
  Se  Se168  1  0.74398125  0.92409632  0.93094270  1
  Se  Se169  1  0.24936534  0.08164464  0.45032729  1
  Se  Se170  1  0.24997722  0.08115773  0.94699912  1
  Se  Se171  1  0.24556458  0.42214290  0.44897330  1
  Se  Se172  1  0.24762433  0.41678264  0.94255808  1
  Se  Se173  1  0.24480230  0.74063987  0.44022580  1
  Se  Se174  1  0.25141285  0.74738616  0.94148478  1
  Se  Se175  1  0.58712029  0.08516850  0.44788751  1
  Se  Se176  1  0.57776185  0.08654344  0.93691913  1
  Se  Se177  1  0.57888896  0.41649599  0.45370180  1
  Se  Se178  1  0.58068781  0.42465993  0.94557996  1
  Se  Se179  1  0.57474720  0.75234926  0.44866327  1
  Se  Se180  1  0.59329358  0.73679947  0.93184039  1
  Se  Se181  1  0.91885869  0.08612458  0.45170320  1
  Se  Se182  1  0.92136620  0.07431563  0.93809761  1
  Se  Se183  1  0.91493783  0.41545134  0.44958392  1
  Se  Se184  1  0.92316144  0.41139269  0.93414483  1
  Se  Se185  1  0.91124746  0.76686225  0.46312032  1
  Se  Se186  1  0.93163590  0.73924181  0.93585045  1
  Se  Se187  1  0.24160992  0.24305573  0.31457309  1
  Se  Se188  1  0.25268629  0.25385496  0.79352742  1
  Se  Se189  1  0.25384068  0.58502771  0.30019356  1
  Se  Se190  1  0.24815882  0.57951874  0.80336259  1
  Se  Se191  1  0.24171212  0.90993418  0.31722726  1
  Se  Se192  1  0.25097591  0.92434847  0.81133059  1
  Se  Se193  1  0.58459807  0.25136179  0.30314597  1
  Se  Se194  1  0.58663535  0.25590436  0.79965833  1
  Se  Se195  1  0.58155195  0.57546515  0.31757692  1
  Se  Se196  1  0.58317364  0.58157412  0.80133032  1
  Se  Se197  1  0.57817064  0.90941646  0.31229458  1
  Se  Se198  1  0.58903802  0.92701813  0.78909926  1
  Se  Se199  1  0.91849891  0.25205547  0.31250458  1
  Se  Se200  1  0.91666872  0.25208516  0.79655364  1
  Se  Se201  1  0.90410898  0.57417384  0.31747263  1
  Se  Se202  1  0.91305120  0.57305464  0.79654679  1
  Se  Se203  1  0.92432173  0.91313151  0.30667625  1
  Se  Se204  1  0.92428971  0.91594741  0.78868578  1
  Se  Se205  1  0.07240954  0.07788553  0.30463013  1
  Se  Se206  1  0.08684635  0.08597712  0.79597499  1
  Se  Se207  1  0.09977270  0.44271412  0.31274890  1
  Se  Se208  1  0.07949898  0.40907396  0.79650403  1
  Se  Se209  1  0.09288870  0.75240050  0.31810381  1
  Se  Se210  1  0.06223471  0.72078909  0.80645314  1
  Se  Se211  1  0.42287854  0.09122409  0.31303109  1
  Se  Se212  1  0.42486158  0.09903981  0.80803944  1
  Se  Se213  1  0.42411507  0.42121866  0.31763739  1
  Se  Se214  1  0.41675026  0.41871201  0.80414462  1
  Se  Se215  1  0.41050648  0.74399011  0.30485659  1
  Se  Se216  1  0.42624483  0.75516232  0.79189675  1
  Se  Se217  1  0.75655355  0.08547784  0.31931137  1
  Se  Se218  1  0.75236658  0.08537330  0.79596305  1
  Se  Se219  1  0.73992241  0.40343049  0.30574507  1
  Se  Se220  1  0.74609693  0.41842204  0.79321388  1
  Se  Se221  1  0.75932425  0.74440178  0.32071466  1
  Se  Se222  1  0.76262164  0.76236220  0.80197815  1
  Se  Se223  1  0.23489260  0.09187185  0.19567892  1
  Se  Se224  1  0.24630535  0.09127391  0.68103008  1
  Se  Se225  1  0.24834996  0.42329944  0.18770564  1
  Se  Se226  1  0.25239299  0.41253862  0.69380286  1
  Se  Se227  1  0.25080032  0.75229131  0.19960807  1
  Se  Se228  1  0.24744176  0.75235619  0.70856251  1
  Se  Se229  1  0.57054415  0.09789390  0.19768447  1
  Se  Se230  1  0.58747072  0.08653271  0.69499652  1
  Se  Se231  1  0.58474513  0.41440798  0.19797529  1
  Se  Se232  1  0.58154987  0.41901175  0.69475726  1
  Se  Se233  1  0.57912928  0.75434875  0.19597665  1
  Se  Se234  1  0.58062077  0.75276947  0.67837571  1
  Se  Se235  1  0.91483443  0.08068305  0.20518106  1
  Se  Se236  1  0.92348520  0.08609445  0.69196578  1
  Se  Se237  1  0.92741831  0.41776859  0.20487730  1
  Se  Se238  1  0.92092362  0.41232584  0.68742063  1
  Se  Se239  1  0.90947995  0.74915833  0.19591263  1
  Se  Se240  1  0.91013725  0.73773968  0.69556912  1
  Se  Se241  1  0.08595855  0.25646299  0.20411628  1
  Se  Se242  1  0.08159409  0.25430097  0.68844274  1
  Se  Se243  1  0.08733040  0.58668034  0.18726109  1
  Se  Se244  1  0.08206933  0.57567844  0.69404901  1
  Se  Se245  1  0.08005979  0.91411352  0.19848531  1
  Se  Se246  1  0.09879478  0.90191449  0.70695252  1
  Se  Se247  1  0.42092032  0.24360303  0.19949800  1
  Se  Se248  1  0.41429275  0.25419685  0.69269938  1
  Se  Se249  1  0.42034386  0.58140924  0.20059169  1
  Se  Se250  1  0.40891938  0.58667994  0.69601676  1
  Se  Se251  1  0.42141547  0.91480813  0.19366816  1
  Se  Se252  1  0.42434282  0.91945151  0.68039433  1
  Se  Se253  1  0.75293911  0.24881080  0.20295480  1
  Se  Se254  1  0.74925508  0.25524429  0.69163491  1
  Se  Se255  1  0.76470644  0.56468380  0.19901560  1
  Se  Se256  1  0.75963215  0.58000204  0.67648485  1
  Se  Se257  1  0.75681198  0.90766973  0.19790712  1
  Se  Se258  1  0.75008297  0.92000911  0.69790066  1
