# generated using pymatgen
data_In86Cu29Se144
_symmetry_space_group_name_H-M   'P 1'
_cell_length_a   17.57663179
_cell_length_b   17.57652863
_cell_length_c   23.42950605
_cell_angle_alpha   89.97630283
_cell_angle_beta   89.98126790
_cell_angle_gamma   90.01330257
_symmetry_Int_Tables_number   1
_chemical_formula_structural   In86Cu29Se144
_chemical_formula_sum   'In86 Cu29 Se144'
_cell_volume   7238.22070545
_cell_formula_units_Z   1
loop_
 _symmetry_equiv_pos_site_id
 _symmetry_equiv_pos_as_xyz
  1  'x, y, z'
loop_
 _atom_site_type_symbol
 _atom_site_label
 _atom_site_symmetry_multiplicity
 _atom_site_fract_x
 _atom_site_fract_y
 _atom_site_fract_z
 _atom_site_occupancy
  In  In0  1  -0.00936803  0.15883932  0.12665634  1
  In  In1  1  -0.00814848  0.15051744  0.60623555  1
  In  In2  1  0.00778086  0.51571921  0.11696152  1
  In  In3  1  0.00888617  0.50395160  0.62740302  1
  In  In4  1  -0.01140013  0.82799323  0.12931466  1
  In  In5  1  -0.00197210  0.83446847  0.63143215  1
  In  In6  1  0.34303207  0.15705144  0.13644662  1
  In  In7  1  0.33200479  0.17475688  0.61836181  1
  In  In8  1  0.33716440  0.49872112  0.13415378  1
  In  In9  1  0.33353558  0.49954593  0.61915166  1
  In  In10  1  0.33189586  0.83405602  0.13590396  1
  In  In11  1  0.32454854  0.82146092  0.62186808  1
  In  In12  1  0.66263014  0.17522551  0.13382993  1
  In  In13  1  0.66186738  0.15014781  0.62334706  1
  In  In14  1  0.66197024  0.49833016  0.12619061  1
  In  In15  1  0.66674955  0.51559153  0.62277138  1
  In  In16  1  0.68885815  0.81761997  0.14138360  1
  In  In17  1  0.67179765  0.82997290  0.62889981  1
  In  In18  1  0.17174967  0.00512826  0.37505768  1
  In  In19  1  0.15678893  0.00692723  0.86913226  1
  In  In20  1  0.17785063  0.32640369  0.37893044  1
  In  In21  1  0.17477141  0.35009687  0.87414500  1
  In  In22  1  0.15328135  0.66201785  0.37190878  1
  In  In23  1  0.15617660  0.64691427  0.86026253  1
  In  In24  1  0.49911807  -0.00016994  0.36776638  1
  In  In25  1  0.51624189  -0.00658575  0.88309733  1
  In  In26  1  0.49954375  0.35197793  0.36455909  1
  In  In27  1  0.49213512  0.33718237  0.88638191  1
  In  In28  1  0.49021719  0.63873656  0.34662278  1
  In  In29  1  0.49231827  0.65750041  0.87163954  1
  In  In30  1  0.84150074  0.01019345  0.37082468  1
  In  In31  1  0.83147287  -0.01007189  0.87405098  1
  In  In32  1  0.81976606  0.32782316  0.36927127  1
  In  In33  1  0.84440092  0.34366879  0.87952206  1
  In  In34  1  0.83164542  0.66084419  0.35426484  1
  In  In35  1  0.83107732  0.67371296  0.88137842  1
  In  In36  1  0.00958016  0.14995818  0.38860757  1
  In  In37  1  0.00454476  0.16323861  0.87069003  1
  In  In38  1  0.00293506  0.51365561  0.37394875  1
  In  In39  1  -0.00871328  0.52426203  0.89329040  1
  In  In40  1  -0.00758259  0.83523540  0.36626816  1
  In  In41  1  -0.01270442  0.81791350  0.87090500  1
  In  In42  1  0.31993128  0.15823914  0.37025672  1
  In  In43  1  0.33325490  0.18040678  0.87667418  1
  In  In44  1  0.33117823  0.50123976  0.37025357  1
  In  In45  1  0.32216977  0.51542148  0.89059861  1
  In  In46  1  0.33517735  0.83742525  0.36782685  1
  In  In47  1  0.34726828  0.82182881  0.87654921  1
  In  In48  1  0.66878454  0.17640207  0.37079300  1
  In  In49  1  0.67335352  0.14873023  0.88021627  1
  In  In50  1  0.65599751  0.48305416  0.34587454  1
  In  In51  1  0.65398121  0.51087970  0.88581392  1
  In  In52  1  0.67340696  0.82462521  0.35568405  1
  In  In53  1  0.67825105  0.84219099  0.87518854  1
  In  In54  1  0.16245139  -0.00246617  0.13493319  1
  In  In55  1  0.15725860  -0.00875376  0.61652522  1
  In  In56  1  0.16700711  0.35150038  0.12553801  1
  In  In57  1  0.16775162  0.33834411  0.61398426  1
  In  In58  1  0.17198452  0.66337473  0.13120452  1
  In  In59  1  0.17234811  0.65542917  0.63335856  1
  In  In60  1  0.49953074  0.00656863  0.13234228  1
  In  In61  1  0.50769080  0.00647515  0.62691082  1
  In  In62  1  0.50502279  0.33549229  0.13248321  1
  In  In63  1  0.48598184  0.33726117  0.62056112  1
  In  In64  1  0.50655283  0.64703145  0.13704630  1
  In  In65  1  0.50956677  0.65777615  0.62573224  1
  In  In66  1  0.84716131  -0.01780918  0.14263431  1
  In  In67  1  0.83239459  -0.00305292  0.62305040  1
  In  In68  1  0.81666520  0.34162964  0.13186087  1
  In  In69  1  0.84674790  0.33104082  0.62057512  1
  In  In70  1  0.82679751  0.66000951  0.12490980  1
  In  In71  1  0.82915210  0.67223366  0.63316870  1
  In  In72  1  0.83200585  0.49542239  0.49182531  1
  In  In73  1  0.50308406  0.82853451  0.48195271  1
  In  In74  1  0.00406632  0.33452112  0.75078213  1
  In  In75  1  0.82608259  0.17546424  0.00596479  1
  In  In76  1  0.16861949  0.17476723  -0.00524067  1
  In  In77  1  0.33624023  -0.00782211  0.74633607  1
  In  In78  1  0.66556929  0.33059773  0.75355924  1
  In  In79  1  0.49529159  0.17187902  0.49830526  1
  In  In80  1  0.16492090  0.83255342  0.49314724  1
  In  In81  1  0.33075659  0.33649212  0.74448766  1
  In  In82  1  0.50866937  0.82766775  0.00859651  1
  In  In83  1  0.16138668  0.82416158  0.00147442  1
  In  In84  1  0.83505218  0.83268820  0.49866959  1
  In  In85  1  -0.00156528  0.33093452  0.24700536  1
  Cu  Cu86  1  0.00062359  0.34779845  0.00393276  1
  Cu  Cu87  1  0.65915113  0.33674072  0.00829887  1
  Cu  Cu88  1  0.50832620  0.82548969  0.75299166  1
  Cu  Cu89  1  0.83033722  0.51145757  0.75675372  1
  Cu  Cu90  1  0.83582119  0.83445677  0.75300892  1
  Cu  Cu91  1  0.49696167  0.50182787  0.74989058  1
  Cu  Cu92  1  0.33883742  0.65833462  0.49540916  1
  Cu  Cu93  1  0.49704882  0.17462499  0.25419389  1
  Cu  Cu94  1  0.49325518  0.84215204  0.24891851  1
  Cu  Cu95  1  0.66751667  0.00489675  0.00873128  1
  Cu  Cu96  1  0.16715493  0.50217404  0.24967937  1
  Cu  Cu97  1  0.16135236  0.82929663  0.25183736  1
  Cu  Cu98  1  0.16818121  0.16813117  0.25573187  1
  Cu  Cu99  1  0.83606632  0.15922513  0.25298365  1
  Cu  Cu100  1  0.34299920  0.33191126  0.01022486  1
  Cu  Cu101  1  0.33449363  0.34281200  0.49291468  1
  Cu  Cu102  1  0.50788847  0.15531030  0.75665035  1
  Cu  Cu103  1  0.66261362  0.33861663  0.48948968  1
  Cu  Cu104  1  0.00046020  0.66476836  0.50061266  1
  Cu  Cu105  1  0.00414392  0.33014072  0.49742731  1
  Cu  Cu106  1  0.16878278  0.83104094  0.74568833  1
  Cu  Cu107  1  0.66008361  0.65666654  0.48968880  1
  Cu  Cu108  1  0.15519826  0.16141696  0.74111860  1
  Cu  Cu109  1  0.66831640  0.66775684  0.00697613  1
  Cu  Cu110  1  0.33714457  0.00540191  0.00989144  1
  Cu  Cu111  1  0.33620035  0.65855174  0.00669350  1
  Cu  Cu112  1  0.67047618  -0.00318403  0.49904609  1
  Cu  Cu113  1  0.82957260  0.15645501  0.74433037  1
  Cu  Cu114  1  -0.00578402  -0.00460180  0.00233518  1
  Se  Se115  1  0.08070956  0.07833441  0.05509430  1
  Se  Se116  1  0.10193350  0.09117638  0.54884301  1
  Se  Se117  1  0.09161467  0.42773038  0.05080527  1
  Se  Se118  1  0.07753833  0.42132434  0.55153738  1
  Se  Se119  1  0.07301926  0.73748113  0.06250686  1
  Se  Se120  1  0.07998914  0.74554172  0.56028372  1
  Se  Se121  1  0.42247521  0.08847899  0.05786401  1
  Se  Se122  1  0.41102814  0.07358879  0.55720471  1
  Se  Se123  1  0.42151871  0.41909785  0.06307613  1
  Se  Se124  1  0.41964932  0.42292098  0.54704559  1
  Se  Se125  1  0.41243492  0.74253042  0.06681177  1
  Se  Se126  1  0.41771128  0.74367124  0.55259922  1
  Se  Se127  1  0.75139218  0.08048102  0.06991057  1
  Se  Se128  1  0.75104591  0.08105252  0.55273070  1
  Se  Se129  1  0.74815129  0.42009952  0.05404097  1
  Se  Se130  1  0.74208493  0.40970018  0.55938320  1
  Se  Se131  1  0.75292889  0.75439659  0.05445126  1
  Se  Se132  1  0.73911967  0.73618851  0.55162897  1
  Se  Se133  1  0.25491316  0.25207384  0.06503544  1
  Se  Se134  1  0.25503875  0.25679823  0.54826996  1
  Se  Se135  1  0.25292894  0.57887215  0.06278782  1
  Se  Se136  1  0.24959308  0.58635087  0.55340576  1
  Se  Se137  1  0.25203415  0.92093524  0.06012729  1
  Se  Se138  1  0.26127350  0.91934374  0.55254043  1
  Se  Se139  1  0.58060477  0.24786569  0.05902849  1
  Se  Se140  1  0.59022047  0.25926155  0.55918587  1
  Se  Se141  1  0.58117967  0.58319672  0.05463018  1
  Se  Se142  1  0.57881111  0.57717680  0.54711125  1
  Se  Se143  1  0.59289643  0.91932146  0.06899750  1
  Se  Se144  1  0.58730385  0.91476984  0.55509244  1
  Se  Se145  1  0.92330477  0.26397880  0.06283352  1
  Se  Se146  1  0.91417956  0.24858069  0.54578235  1
  Se  Se147  1  0.90553899  0.57820484  0.05382636  1
  Se  Se148  1  0.91311050  0.58816143  0.55878947  1
  Se  Se149  1  0.91263955  0.91467462  0.05729370  1
  Se  Se150  1  0.92956015  0.92166374  0.55380491  1
  Se  Se151  1  0.08999719  0.24772227  0.44635900  1
  Se  Se152  1  0.07254487  0.26595576  0.93854929  1
  Se  Se153  1  0.08628071  0.58104173  0.45091408  1
  Se  Se154  1  0.10060996  0.58602923  0.94992311  1
  Se  Se155  1  0.07155477  0.92177182  0.43833587  1
  Se  Se156  1  0.07738341  0.92097161  0.94033175  1
  Se  Se157  1  0.41315930  0.26037157  0.43255490  1
  Se  Se158  1  0.41719666  0.24413997  0.95294618  1
  Se  Se159  1  0.42311469  0.58249275  0.43665576  1
  Se  Se160  1  0.42554474  0.58120010  0.95281200  1
  Se  Se161  1  0.40676106  0.92929985  0.44195698  1
  Se  Se162  1  0.41285266  0.91989957  0.94937272  1
  Se  Se163  1  0.74856563  0.24954634  0.44727938  1
  Se  Se164  1  0.73878384  0.26356011  0.94007028  1
  Se  Se165  1  0.74595541  0.58292046  0.42885240  1
  Se  Se166  1  0.74918555  0.58526053  0.94887786  1
  Se  Se167  1  0.74165797  0.91408231  0.43554283  1
  Se  Se168  1  0.74941397  0.92298945  0.95163584  1
  Se  Se169  1  0.24532186  0.08857051  0.44838273  1
  Se  Se170  1  0.25768964  0.07393837  0.94044879  1
  Se  Se171  1  0.24704270  0.42575034  0.44349814  1
  Se  Se172  1  0.25747166  0.41054625  0.95295100  1
  Se  Se173  1  0.25930805  0.74086894  0.43734418  1
  Se  Se174  1  0.26008954  0.74042886  0.94447745  1
  Se  Se175  1  0.58728172  0.07855793  0.44191088  1
  Se  Se176  1  0.58319124  0.08524097  0.95433855  1
  Se  Se177  1  0.58801199  0.42672307  0.43541946  1
  Se  Se178  1  0.57730464  0.41965761  0.95172935  1
  Se  Se179  1  0.58807582  0.73512956  0.42332211  1
  Se  Se180  1  0.59057299  0.74386838  0.93895836  1
  Se  Se181  1  0.90868131  0.08257569  0.45133208  1
  Se  Se182  1  0.91950354  0.08538347  0.94489612  1
  Se  Se183  1  0.92500930  0.40572623  0.43344014  1
  Se  Se184  1  0.91122310  0.42756791  0.95375858  1
  Se  Se185  1  0.91752935  0.73671820  0.43752293  1
  Se  Se186  1  0.91367249  0.75504892  0.95116944  1
  Se  Se187  1  0.25477480  0.25514564  0.30070595  1
  Se  Se188  1  0.23419627  0.24238933  0.80283415  1
  Se  Se189  1  0.24567870  0.58844389  0.30492224  1
  Se  Se190  1  0.26229605  0.57951784  0.80379156  1
  Se  Se191  1  0.24392633  0.91623989  0.30384477  1
  Se  Se192  1  0.24669896  0.90716971  0.81257304  1
  Se  Se193  1  0.58292070  0.25814545  0.30485431  1
  Se  Se194  1  0.57746220  0.24292838  0.81738822  1
  Se  Se195  1  0.61666139  0.60701017  0.29264652  1
  Se  Se196  1  0.58357273  0.58140191  0.80366302  1
  Se  Se197  1  0.58408709  0.91840554  0.30092454  1
  Se  Se198  1  0.58466108  0.91500974  0.80576080  1
  Se  Se199  1  0.91958965  0.23797862  0.31326727  1
  Se  Se200  1  0.90419383  0.24183783  0.80580696  1
  Se  Se201  1  0.91952777  0.57296539  0.29675924  1
  Se  Se202  1  0.91545443  0.58953954  0.81169053  1
  Se  Se203  1  0.90793136  0.91723622  0.30143081  1
  Se  Se204  1  0.92181639  0.91838660  0.80451139  1
  Se  Se205  1  0.08330161  0.08361353  0.30597027  1
  Se  Se206  1  0.07317633  0.07929892  0.79553037  1
  Se  Se207  1  0.08945756  0.41679633  0.31005173  1
  Se  Se208  1  0.07866766  0.42982642  0.81425724  1
  Se  Se209  1  0.07463351  0.74659337  0.30255943  1
  Se  Se210  1  0.08635578  0.75233638  0.80401468  1
  Se  Se211  1  0.41448666  0.08572739  0.30387753  1
  Se  Se212  1  0.41866283  0.08219499  0.81484694  1
  Se  Se213  1  0.42467728  0.44040651  0.29552926  1
  Se  Se214  1  0.41802490  0.42100723  0.81003378  1
  Se  Se215  1  0.41522688  0.75177318  0.30046758  1
  Se  Se216  1  0.41747214  0.74422107  0.79978242  1
  Se  Se217  1  0.74476665  0.08329920  0.30603660  1
  Se  Se218  1  0.75111115  0.07657572  0.80442037  1
  Se  Se219  1  0.76859792  0.42019101  0.29472519  1
  Se  Se220  1  0.75272102  0.42427254  0.81285066  1
  Se  Se221  1  0.78475095  0.77478857  0.29181219  1
  Se  Se222  1  0.75054477  0.75182585  0.80623872  1
  Se  Se223  1  0.24736356  0.08140396  0.19983479  1
  Se  Se224  1  0.24806486  0.08655524  0.68788264  1
  Se  Se225  1  0.25076129  0.41436726  0.20217821  1
  Se  Se226  1  0.23574962  0.42642756  0.69164675  1
  Se  Se227  1  0.25016310  0.74812226  0.20146835  1
  Se  Se228  1  0.25463543  0.74494116  0.69884875  1
  Se  Se229  1  0.58047348  0.09041493  0.20172591  1
  Se  Se230  1  0.59101280  0.07454542  0.70261541  1
  Se  Se231  1  0.60006458  0.40513797  0.19926815  1
  Se  Se232  1  0.57628459  0.41900334  0.69007397  1
  Se  Se233  1  0.57067756  0.75942221  0.19124427  1
  Se  Se234  1  0.58830274  0.74447001  0.69409574  1
  Se  Se235  1  0.92587468  0.07843970  0.20415707  1
  Se  Se236  1  0.91833827  0.08293427  0.68853851  1
  Se  Se237  1  0.91865754  0.42497913  0.18562608  1
  Se  Se238  1  0.90580922  0.42732103  0.69567008  1
  Se  Se239  1  0.89688470  0.75274279  0.19673162  1
  Se  Se240  1  0.91789104  0.74963653  0.69927355  1
  Se  Se241  1  0.09248276  0.24154583  0.18635892  1
  Se  Se242  1  0.08218016  0.24656209  0.68100278  1
  Se  Se243  1  0.08165330  0.58469729  0.19830837  1
  Se  Se244  1  0.07078515  0.59400185  0.69886162  1
  Se  Se245  1  0.07734550  0.91013686  0.19595300  1
  Se  Se246  1  0.08632979  0.91809257  0.69612782  1
  Se  Se247  1  0.41344950  0.25571814  0.19943368  1
  Se  Se248  1  0.42835280  0.23620169  0.69591623  1
  Se  Se249  1  0.41865893  0.57585415  0.20822881  1
  Se  Se250  1  0.41615600  0.57969565  0.68982866  1
  Se  Se251  1  0.40853335  0.92801214  0.19884113  1
  Se  Se252  1  0.42862632  0.90131157  0.68658354  1
  Se  Se253  1  0.75494155  0.24765737  0.20303901  1
  Se  Se254  1  0.75472745  0.24474986  0.68741458  1
  Se  Se255  1  0.72500100  0.59958991  0.19444937  1
  Se  Se256  1  0.74461904  0.58708294  0.69931459  1
  Se  Se257  1  0.72533067  0.94114290  0.19426564  1
  Se  Se258  1  0.75320697  0.91540750  0.69488022  1
