# generated using pymatgen
data_In86Cu29Se144
_symmetry_space_group_name_H-M   'P 1'
_cell_length_a   17.56987789
_cell_length_b   17.57427608
_cell_length_c   23.42398410
_cell_angle_alpha   89.99512166
_cell_angle_beta   90.01514604
_cell_angle_gamma   89.99666345
_symmetry_Int_Tables_number   1
_chemical_formula_structural   In86Cu29Se144
_chemical_formula_sum   'In86 Cu29 Se144'
_cell_volume   7232.80796932
_cell_formula_units_Z   1
loop_
 _symmetry_equiv_pos_site_id
 _symmetry_equiv_pos_as_xyz
  1  'x, y, z'
loop_
 _atom_site_type_symbol
 _atom_site_label
 _atom_site_symmetry_multiplicity
 _atom_site_fract_x
 _atom_site_fract_y
 _atom_site_fract_z
 _atom_site_occupancy
  In  In0  1  0.00921959  0.16406544  0.12505823  1
  In  In1  1  -0.01061726  0.16675372  0.63238513  1
  In  In2  1  -0.01336220  0.51255965  0.12719994  1
  In  In3  1  -0.00370085  0.50452477  0.61640783  1
  In  In4  1  -0.00384403  0.81091360  0.10363318  1
  In  In5  1  0.01296329  0.83582124  0.63354166  1
  In  In6  1  0.32875840  0.15757883  0.10908032  1
  In  In7  1  0.34993324  0.17040202  0.63077530  1
  In  In8  1  0.35076642  0.50600444  0.12639522  1
  In  In9  1  0.33491648  0.49934097  0.62478293  1
  In  In10  1  0.33488335  0.82771366  0.12453097  1
  In  In11  1  0.32920620  0.81966490  0.62628335  1
  In  In12  1  0.66477487  0.17854684  0.11838806  1
  In  In13  1  0.65402552  0.16209105  0.63426333  1
  In  In14  1  0.66701414  0.49847065  0.12307053  1
  In  In15  1  0.67566602  0.50956467  0.62154739  1
  In  In16  1  0.65495149  0.82634304  0.11147394  1
  In  In17  1  0.65556205  0.84151245  0.63425165  1
  In  In18  1  0.18722932  -0.01467450  0.37312364  1
  In  In19  1  0.16699231  0.00935083  0.88618118  1
  In  In20  1  0.17425775  0.34872046  0.36882753  1
  In  In21  1  0.16818514  0.31876130  0.88429180  1
  In  In22  1  0.15980390  0.66525801  0.35701368  1
  In  In23  1  0.18276192  0.66137194  0.87555743  1
  In  In24  1  0.48093011  -0.00718317  0.36727117  1
  In  In25  1  0.51605318  -0.02290701  0.91021165  1
  In  In26  1  0.51310499  0.33254724  0.36939546  1
  In  In27  1  0.49811436  0.35192940  0.88579222  1
  In  In28  1  0.49771996  0.66719625  0.37396802  1
  In  In29  1  0.50245766  0.66513910  0.87740234  1
  In  In30  1  0.84024823  0.00126175  0.37168586  1
  In  In31  1  0.81932805  -0.01635365  0.87215276  1
  In  In32  1  0.84427648  0.34927429  0.36187524  1
  In  In33  1  0.83977488  0.34617791  0.88744693  1
  In  In34  1  0.81949207  0.65202606  0.36381047  1
  In  In35  1  0.82294296  0.68305279  0.89078258  1
  In  In36  1  -0.01401081  0.16484150  0.36706005  1
  In  In37  1  0.01844361  0.16823833  0.88444291  1
  In  In38  1  0.00202781  0.50199324  0.36671102  1
  In  In39  1  -0.00760626  0.49542132  0.88708291  1
  In  In40  1  0.01990418  0.82425414  0.36620402  1
  In  In41  1  -0.01303285  0.84076944  0.88824352  1
  In  In42  1  0.34581132  0.15686902  0.37017689  1
  In  In43  1  0.32926716  0.16663872  0.88109133  1
  In  In44  1  0.32536144  0.50698086  0.38095103  1
  In  In45  1  0.34473820  0.51254200  0.86771860  1
  In  In46  1  0.33447441  0.84303214  0.36032788  1
  In  In47  1  0.34712912  0.82633110  0.88654071  1
  In  In48  1  0.64673742  0.17368345  0.36756466  1
  In  In49  1  0.66451855  0.14532979  0.88385659  1
  In  In50  1  0.66634071  0.50327335  0.37402822  1
  In  In51  1  0.65313852  0.50933335  0.88492168  1
  In  In52  1  0.66490113  0.81561635  0.37054517  1
  In  In53  1  0.66568910  0.83070837  0.88102740  1
  In  In54  1  0.17654779  0.00279389  0.11130686  1
  In  In55  1  0.16532255  -0.01519362  0.63200551  1
  In  In56  1  0.16167650  0.31784148  0.12638731  1
  In  In57  1  0.16310281  0.34895709  0.62441332  1
  In  In58  1  0.15547367  0.68576710  0.13807068  1
  In  In59  1  0.17587776  0.66754327  0.62611229  1
  In  In60  1  0.48047701  -0.02288297  0.09682706  1
  In  In61  1  0.50368167  0.00210090  0.62819466  1
  In  In62  1  0.51478568  0.34063157  0.10707551  1
  In  In63  1  0.48970720  0.32725506  0.63048591  1
  In  In64  1  0.50097485  0.66819003  0.12808530  1
  In  In65  1  0.50034461  0.66600471  0.62628138  1
  In  In66  1  0.84074400  -0.00713158  0.11708148  1
  In  In67  1  0.83112674  -0.00110751  0.64038444  1
  In  In68  1  0.81691918  0.34857461  0.12516663  1
  In  In69  1  0.82604422  0.34347992  0.62721127  1
  In  In70  1  0.83312347  0.65522070  0.11929864  1
  In  In71  1  0.83242746  0.65441081  0.62394901  1
  In  In72  1  0.50049561  0.17071902  0.50332000  1
  In  In73  1  0.33794610  0.00073044  0.76086944  1
  In  In74  1  0.83153134  0.82681416  0.49698754  1
  In  In75  1  0.16613191  0.17111626  0.49203610  1
  In  In76  1  0.33561728  0.33197332  0.24475862  1
  In  In77  1  -0.00167477  0.66863800  0.75436098  1
  In  In78  1  0.83627514  0.16566849  0.00188149  1
  In  In79  1  0.66483326  0.32813378  0.75349802  1
  In  In80  1  0.00972248  -0.00520292  0.23985980  1
  In  In81  1  0.82481342  0.17966746  0.50816944  1
  In  In82  1  0.16515492  0.50656129  0.00854667  1
  In  In83  1  0.00471262  0.33211043  0.76204519  1
  In  In84  1  0.17531009  0.82470064  0.49781167  1
  In  In85  1  0.66475921  0.00629902  0.23452203  1
  Cu  Cu86  1  0.34206720  0.66541407  0.00222910  1
  Cu  Cu87  1  0.50354814  0.83517846  0.24087596  1
  Cu  Cu88  1  0.33287962  0.34023152  0.50331661  1
  Cu  Cu89  1  0.00148879  -0.00310951  0.00050843  1
  Cu  Cu90  1  0.16323394  0.49868167  0.24599760  1
  Cu  Cu91  1  0.17014892  0.15748861  0.24293835  1
  Cu  Cu92  1  0.17036861  0.16374436  0.75794702  1
  Cu  Cu93  1  0.50690093  0.50015207  0.24886494  1
  Cu  Cu94  1  0.49965231  0.50417255  0.75082997  1
  Cu  Cu95  1  0.83718852  0.15571053  0.76080710  1
  Cu  Cu96  1  0.00273747  0.34944637  0.49136765  1
  Cu  Cu97  1  0.82719514  0.83265505  0.75918291  1
  Cu  Cu98  1  0.67435922  0.34424498  0.49401981  1
  Cu  Cu99  1  0.82996656  0.50329931  0.75420886  1
  Cu  Cu100  1  0.00325925  -0.00129447  0.50869595  1
  Cu  Cu101  1  0.50253172  0.83141866  0.76146326  1
  Cu  Cu102  1  -0.00142934  0.66119563  0.48974991  1
  Cu  Cu103  1  0.82792510  0.50269013  0.24638873  1
  Cu  Cu104  1  0.32716057  0.34109253  0.00231753  1
  Cu  Cu105  1  0.65869269  0.66573736  0.49688802  1
  Cu  Cu106  1  0.83967897  0.82154943  0.24049886  1
  Cu  Cu107  1  0.82688394  0.17956957  0.24558633  1
  Cu  Cu108  1  0.49330689  0.16572947  0.23798540  1
  Cu  Cu109  1  0.66349662  0.66501192  0.00370909  1
  Cu  Cu110  1  0.17654091  0.49680010  0.75066857  1
  Cu  Cu111  1  0.16254468  0.83788245  0.75826554  1
  Cu  Cu112  1  0.65911971  -0.00779461  0.50318461  1
  Cu  Cu113  1  0.49935887  0.16022919  0.76317159  1
  Cu  Cu114  1  0.33607816  0.66137532  0.50012451  1
  Se  Se115  1  0.08234699  0.08550678  0.05017974  1
  Se  Se116  1  0.08218657  0.08326498  0.56423917  1
  Se  Se117  1  0.07826380  0.41503260  0.06767168  1
  Se  Se118  1  0.08628267  0.42582434  0.55046203  1
  Se  Se119  1  0.10607956  0.74895179  0.04658199  1
  Se  Se120  1  0.07314347  0.74044328  0.55660821  1
  Se  Se121  1  0.43673993  0.10139495  0.04619372  1
  Se  Se122  1  0.40868599  0.07494533  0.55648206  1
  Se  Se123  1  0.41664970  0.42253651  0.05019857  1
  Se  Se124  1  0.42209235  0.41461737  0.55781226  1
  Se  Se125  1  0.42532124  0.75141897  0.05468385  1
  Se  Se126  1  0.41486780  0.74692268  0.55557939  1
  Se  Se127  1  0.74245153  0.07421736  0.05738177  1
  Se  Se128  1  0.74016353  0.07514039  0.56266492  1
  Se  Se129  1  0.72951528  0.40714122  0.04749249  1
  Se  Se130  1  0.75664880  0.42351432  0.55185473  1
  Se  Se131  1  0.75260320  0.74709130  0.05324099  1
  Se  Se132  1  0.73960609  0.74549793  0.56110662  1
  Se  Se133  1  0.24458651  0.25216099  0.05013298  1
  Se  Se134  1  0.25663058  0.25262224  0.56122462  1
  Se  Se135  1  0.25956694  0.59379783  0.06530588  1
  Se  Se136  1  0.24965518  0.58291714  0.55554038  1
  Se  Se137  1  0.27162298  0.92243916  0.05039888  1
  Se  Se138  1  0.25803064  0.92162869  0.55826565  1
  Se  Se139  1  0.57932414  0.24043322  0.04074048  1
  Se  Se140  1  0.59831695  0.26214707  0.55907991  1
  Se  Se141  1  0.57968171  0.58310469  0.05759144  1
  Se  Se142  1  0.58150630  0.58198640  0.55606400  1
  Se  Se143  1  0.59253756  0.92025934  0.04034070  1
  Se  Se144  1  0.57498775  0.91282775  0.55698459  1
  Se  Se145  1  0.91545572  0.25441650  0.06812178  1
  Se  Se146  1  0.92890409  0.26915135  0.55897195  1
  Se  Se147  1  0.91530972  0.57875428  0.04575442  1
  Se  Se148  1  0.91345264  0.58496090  0.54720136  1
  Se  Se149  1  0.91467113  0.90957430  0.04551488  1
  Se  Se150  1  0.91951103  0.91761992  0.56391424  1
  Se  Se151  1  0.07192095  0.25907318  0.43233119  1
  Se  Se152  1  0.06970246  0.26653475  0.95522454  1
  Se  Se153  1  0.08742643  0.58671259  0.43463069  1
  Se  Se154  1  0.08023813  0.59350236  0.94175300  1
  Se  Se155  1  0.07983638  0.92221085  0.44330741  1
  Se  Se156  1  0.08830049  0.91447928  0.94856581  1
  Se  Se157  1  0.40981281  0.25983059  0.43968476  1
  Se  Se158  1  0.40825686  0.26258843  0.94317514  1
  Se  Se159  1  0.42060598  0.58013297  0.44531145  1
  Se  Se160  1  0.42164853  0.57948496  0.94751759  1
  Se  Se161  1  0.41035621  0.91188245  0.44021835  1
  Se  Se162  1  0.38876443  0.93347928  0.95698627  1
  Se  Se163  1  0.74520693  0.25591343  0.43233576  1
  Se  Se164  1  0.74529769  0.25085521  0.93888868  1
  Se  Se165  1  0.74788073  0.58534160  0.44642131  1
  Se  Se166  1  0.74858515  0.58266102  0.95013608  1
  Se  Se167  1  0.74443627  0.92382792  0.43844543  1
  Se  Se168  1  0.74950860  0.91175678  0.95104959  1
  Se  Se169  1  0.26267362  0.07560528  0.44452477  1
  Se  Se170  1  0.24062367  0.09891524  0.95342247  1
  Se  Se171  1  0.24631855  0.41833079  0.44928069  1
  Se  Se172  1  0.25302915  0.42434440  0.93825517  1
  Se  Se173  1  0.25914125  0.73882579  0.43254599  1
  Se  Se174  1  0.25439798  0.74514275  0.94910510  1
  Se  Se175  1  0.58373056  0.07545996  0.43960998  1
  Se  Se176  1  0.56202733  0.10333837  0.95833457  1
  Se  Se177  1  0.58152347  0.41808391  0.44279280  1
  Se  Se178  1  0.59721775  0.41031831  0.95566430  1
  Se  Se179  1  0.57844958  0.75308374  0.44572641  1
  Se  Se180  1  0.58001530  0.74824802  0.94941367  1
  Se  Se181  1  0.91961427  0.08107430  0.45058875  1
  Se  Se182  1  0.91984134  0.07387896  0.93679662  1
  Se  Se183  1  0.91389790  0.42733271  0.43978340  1
  Se  Se184  1  0.92169097  0.41511352  0.96113623  1
  Se  Se185  1  0.92200856  0.74538172  0.43001765  1
  Se  Se186  1  0.92583232  0.74189507  0.95452643  1
  Se  Se187  1  0.24656599  0.23877713  0.30736261  1
  Se  Se188  1  0.25147347  0.25088331  0.80768385  1
  Se  Se189  1  0.25148118  0.57533416  0.30035869  1
  Se  Se190  1  0.25723789  0.58843906  0.79708792  1
  Se  Se191  1  0.24168649  0.91073815  0.29044085  1
  Se  Se192  1  0.24732865  0.91067132  0.81883408  1
  Se  Se193  1  0.57670344  0.25072879  0.28970051  1
  Se  Se194  1  0.57881409  0.24523127  0.82027543  1
  Se  Se195  1  0.58466939  0.58674619  0.30509155  1
  Se  Se196  1  0.58448822  0.58381142  0.80501734  1
  Se  Se197  1  0.58477833  0.91550120  0.30446343  1
  Se  Se198  1  0.57624741  0.91934631  0.81884205  1
  Se  Se199  1  0.91900942  0.25458318  0.29660039  1
  Se  Se200  1  0.90969456  0.24270672  0.81849260  1
  Se  Se201  1  0.91740324  0.58429028  0.29822778  1
  Se  Se202  1  0.90946683  0.58141036  0.81589545  1
  Se  Se203  1  0.91386095  0.90722789  0.30270474  1
  Se  Se204  1  0.91829120  0.91401716  0.80646721  1
  Se  Se205  1  0.09159656  0.08291991  0.31177331  1
  Se  Se206  1  0.08532068  0.08189880  0.80913547  1
  Se  Se207  1  0.08172779  0.41265282  0.29808182  1
  Se  Se208  1  0.09469442  0.42740594  0.81662812  1
  Se  Se209  1  0.09606486  0.76105525  0.28775831  1
  Se  Se210  1  0.08511044  0.75500927  0.81785675  1
  Se  Se211  1  0.41469327  0.08039284  0.29216153  1
  Se  Se212  1  0.42964373  0.07634293  0.82728747  1
  Se  Se213  1  0.41994455  0.42220345  0.30852000  1
  Se  Se214  1  0.42075970  0.41635340  0.80382661  1
  Se  Se215  1  0.42437549  0.75522936  0.30203981  1
  Se  Se216  1  0.41513681  0.74693647  0.80853850  1
  Se  Se217  1  0.75257728  0.09154785  0.30658854  1
  Se  Se218  1  0.74276120  0.07611372  0.80508205  1
  Se  Se219  1  0.74334788  0.41922097  0.30094166  1
  Se  Se220  1  0.75205763  0.42096521  0.81315827  1
  Se  Se221  1  0.74975578  0.74755498  0.29625972  1
  Se  Se222  1  0.74587725  0.74630748  0.80925094  1
  Se  Se223  1  0.25444126  0.08149656  0.18734585  1
  Se  Se224  1  0.24833535  0.08691007  0.69272239  1
  Se  Se225  1  0.24469112  0.42130673  0.18538084  1
  Se  Se226  1  0.25549383  0.41182307  0.69556944  1
  Se  Se227  1  0.27100875  0.73268184  0.19498525  1
  Se  Se228  1  0.24058212  0.75521679  0.70058852  1
  Se  Se229  1  0.56847688  0.08496457  0.17422001  1
  Se  Se230  1  0.57835228  0.07875673  0.70508494  1
  Se  Se231  1  0.57994525  0.41383420  0.19091832  1
  Se  Se232  1  0.58133515  0.42109796  0.69072861  1
  Se  Se233  1  0.59060331  0.75157334  0.19393907  1
  Se  Se234  1  0.57897926  0.74996189  0.69936625  1
  Se  Se235  1  0.90613123  0.08907296  0.19208987  1
  Se  Se236  1  0.92302985  0.07802288  0.70464069  1
  Se  Se237  1  0.91108233  0.41849528  0.19347619  1
  Se  Se238  1  0.91572963  0.42384301  0.69749574  1
  Se  Se239  1  0.92169457  0.74206531  0.18506687  1
  Se  Se240  1  0.90604635  0.75793712  0.69163784  1
  Se  Se241  1  0.08087418  0.24464651  0.20178789  1
  Se  Se242  1  0.09163144  0.24495603  0.69414897  1
  Se  Se243  1  0.07955407  0.58455284  0.19576051  1
  Se  Se244  1  0.08675879  0.57416849  0.69349671  1
  Se  Se245  1  0.08473293  0.90984854  0.17031027  1
  Se  Se246  1  0.07807444  0.92309641  0.70809804  1
  Se  Se247  1  0.41930604  0.25103388  0.17614644  1
  Se  Se248  1  0.42068046  0.24681860  0.70835242  1
  Se  Se249  1  0.42137598  0.58645726  0.20192420  1
  Se  Se250  1  0.41488275  0.58410713  0.69435304  1
  Se  Se251  1  0.42122264  0.91993872  0.18811593  1
  Se  Se252  1  0.42021211  0.90747320  0.69612307  1
  Se  Se253  1  0.73921785  0.25740847  0.19376136  1
  Se  Se254  1  0.76276499  0.23763028  0.69506041  1
  Se  Se255  1  0.74498311  0.58543721  0.19297456  1
  Se  Se256  1  0.74875250  0.58661071  0.69982884  1
  Se  Se257  1  0.75708647  0.90635269  0.18599537  1
  Se  Se258  1  0.74390662  0.91671216  0.70382949  1
