# generated using pymatgen
data_In86Cu29Se144
_symmetry_space_group_name_H-M   'P 1'
_cell_length_a   17.59448728
_cell_length_b   17.59668022
_cell_length_c   23.46248357
_cell_angle_alpha   89.98442258
_cell_angle_beta   90.00328716
_cell_angle_gamma   90.01508762
_symmetry_Int_Tables_number   1
_chemical_formula_structural   In86Cu29Se144
_chemical_formula_sum   'In86 Cu29 Se144'
_cell_volume   7264.09151446
_cell_formula_units_Z   1
loop_
 _symmetry_equiv_pos_site_id
 _symmetry_equiv_pos_as_xyz
  1  'x, y, z'
loop_
 _atom_site_type_symbol
 _atom_site_label
 _atom_site_symmetry_multiplicity
 _atom_site_fract_x
 _atom_site_fract_y
 _atom_site_fract_z
 _atom_site_occupancy
  In  In0  1  0.00126708  0.15833034  0.12505093  1
  In  In1  1  -0.00345054  0.15888541  0.61466925  1
  In  In2  1  0.01378030  0.51373661  0.10611596  1
  In  In3  1  0.00618776  0.51467247  0.61940951  1
  In  In4  1  0.01375388  0.82322838  0.14574762  1
  In  In5  1  -0.00018820  0.83477168  0.63130654  1
  In  In6  1  0.32140525  0.14692455  0.11971139  1
  In  In7  1  0.33761736  0.17071595  0.62089628  1
  In  In8  1  0.33121970  0.49960453  0.11279125  1
  In  In9  1  0.31441902  0.49852229  0.62835035  1
  In  In10  1  0.34161675  0.84201834  0.11781499  1
  In  In11  1  0.34232203  0.82354246  0.62439480  1
  In  In12  1  0.65925126  0.16013480  0.12029754  1
  In  In13  1  0.66381737  0.17014348  0.61755585  1
  In  In14  1  0.67160647  0.50410378  0.11387645  1
  In  In15  1  0.67803391  0.50119086  0.62890924  1
  In  In16  1  0.66692967  0.84555955  0.12469137  1
  In  In17  1  0.65451005  0.83120435  0.62779950  1
  In  In18  1  0.17436305  0.00220460  0.35869557  1
  In  In19  1  0.16024414  0.00504586  0.88542949  1
  In  In20  1  0.16292563  0.33209816  0.38207105  1
  In  In21  1  0.17347165  0.32797738  0.88079837  1
  In  In22  1  0.14496614  0.67159331  0.37847529  1
  In  In23  1  0.15296728  0.67364945  0.88718558  1
  In  In24  1  0.49903533  0.00068142  0.37462895  1
  In  In25  1  0.50190981  -0.00136438  0.88258462  1
  In  In26  1  0.48525916  0.32355816  0.37427268  1
  In  In27  1  0.48551709  0.34598250  0.87535696  1
  In  In28  1  0.51377403  0.67111372  0.37762568  1
  In  In29  1  0.50205773  0.66427299  0.87540017  1
  In  In30  1  0.84709434  0.01446383  0.36579424  1
  In  In31  1  0.84898236  -0.00344499  0.87767605  1
  In  In32  1  0.84211232  0.32878960  0.38323500  1
  In  In33  1  0.83089056  0.33212165  0.88235656  1
  In  In34  1  0.84847536  0.65536440  0.38236319  1
  In  In35  1  0.82821591  0.66326032  0.86929504  1
  In  In36  1  0.01781185  0.14146515  0.39894679  1
  In  In37  1  0.00556096  0.15791977  0.88493233  1
  In  In38  1  0.00104321  0.50531457  0.38419341  1
  In  In39  1  -0.01122219  0.51334810  0.88861479  1
  In  In40  1  0.01219290  0.83527095  0.36075156  1
  In  In41  1  0.00092860  0.83826351  0.87304123  1
  In  In42  1  0.33491531  0.15917496  0.37849615  1
  In  In43  1  0.32733559  0.17432562  0.88026292  1
  In  In44  1  0.32631583  0.48539330  0.37397052  1
  In  In45  1  0.34230963  0.49077566  0.87684973  1
  In  In46  1  0.32621791  0.85482824  0.37230637  1
  In  In47  1  0.33260983  0.82950819  0.88464827  1
  In  In48  1  0.67699285  0.15519547  0.38066767  1
  In  In49  1  0.66490318  0.16920312  0.88309565  1
  In  In50  1  0.67809874  0.51350687  0.37547358  1
  In  In51  1  0.65104048  0.51556685  0.87601666  1
  In  In52  1  0.65382144  0.83611363  0.37589215  1
  In  In53  1  0.66414473  0.82147690  0.87257088  1
  In  In54  1  0.16745873  -0.00103046  0.13080378  1
  In  In55  1  0.15194170  0.00175140  0.62156637  1
  In  In56  1  0.16340096  0.32725669  0.11996089  1
  In  In57  1  0.16916914  0.33339852  0.62543784  1
  In  In58  1  0.15694789  0.66754898  0.11538775  1
  In  In59  1  0.16712936  0.65560455  0.62521066  1
  In  In60  1  0.49858990  -0.00023280  0.12402354  1
  In  In61  1  0.49736272  -0.00151046  0.61809417  1
  In  In62  1  0.49527991  0.33026197  0.11460241  1
  In  In63  1  0.50376728  0.32377650  0.62879390  1
  In  In64  1  0.49856910  0.66708634  0.11120292  1
  In  In65  1  0.50067764  0.67925222  0.62931667  1
  In  In66  1  0.82685247  0.00032828  0.13208377  1
  In  In67  1  0.84003007  0.01205142  0.61903580  1
  In  In68  1  0.83807352  0.33458931  0.11635295  1
  In  In69  1  0.82717627  0.33617265  0.61941725  1
  In  In70  1  0.85855359  0.67071767  0.11686815  1
  In  In71  1  0.84544913  0.65884199  0.63215119  1
  In  In72  1  0.33281140  0.66161507  0.75722277  1
  In  In73  1  0.32821095  0.32404077  0.24716397  1
  In  In74  1  -0.00150794  0.32572465  0.24459794  1
  In  In75  1  0.83813690  0.83773818  0.49645752  1
  In  In76  1  0.67226075  -0.00236043  0.75099431  1
  In  In77  1  0.50003440  0.49570042  0.50092579  1
  In  In78  1  0.33163154  -0.00373084  0.74516153  1
  In  In79  1  0.00192561  0.33812017  0.74971341  1
  In  In80  1  0.83163391  0.83489741  -0.00025753  1
  In  In81  1  0.67520145  0.67607910  0.24388643  1
  In  In82  1  0.66967823  0.33079486  0.25638231  1
  In  In83  1  0.32502377  0.67346643  0.24909865  1
  In  In84  1  0.17046310  0.83459555  0.49737787  1
  In  In85  1  0.66286073  0.34024411  0.74934759  1
  Cu  Cu86  1  0.66305452  0.00246284  0.00522861  1
  Cu  Cu87  1  0.83164750  0.83398794  0.25215666  1
  Cu  Cu88  1  -0.00456071  0.33855432  0.50550374  1
  Cu  Cu89  1  0.66087427  0.33463232  0.50077740  1
  Cu  Cu90  1  0.84822036  0.50543816  0.24961522  1
  Cu  Cu91  1  0.49351674  0.84212719  0.24974393  1
  Cu  Cu92  1  0.33667086  0.66638489  0.50258506  1
  Cu  Cu93  1  0.83793743  0.83259199  0.75126885  1
  Cu  Cu94  1  0.33488800  0.00218269  0.49570795  1
  Cu  Cu95  1  0.66405677  0.00141558  0.49880462  1
  Cu  Cu96  1  0.83268589  0.16494296  0.25034348  1
  Cu  Cu97  1  0.49822073  0.15365097  0.24827491  1
  Cu  Cu98  1  0.00545607  0.32755409  -0.00027924  1
  Cu  Cu99  1  0.15850575  0.50405887  0.24568909  1
  Cu  Cu100  1  -0.00022096  -0.00188249  0.00746514  1
  Cu  Cu101  1  0.83481622  0.50648029  0.75230814  1
  Cu  Cu102  1  0.34059464  0.33267534  -0.00102774  1
  Cu  Cu103  1  0.66856228  0.33093536  -0.00288550  1
  Cu  Cu104  1  0.32600998  0.67006086  -0.00311337  1
  Cu  Cu105  1  0.49318308  0.16834494  0.74911414  1
  Cu  Cu106  1  0.66443063  0.66427899  -0.00530361  1
  Cu  Cu107  1  0.67301010  0.67113069  0.50094965  1
  Cu  Cu108  1  0.16306459  0.16361159  0.75963508  1
  Cu  Cu109  1  0.84364502  0.16281348  0.74763193  1
  Cu  Cu110  1  0.50406217  0.50131721  0.23772667  1
  Cu  Cu111  1  0.32728176  0.32706806  0.50094064  1
  Cu  Cu112  1  0.33306557  0.00374597  0.00208176  1
  Cu  Cu113  1  0.16064881  0.50062616  0.75285241  1
  Cu  Cu114  1  0.16150322  0.83401911  0.75428508  1
  Se  Se115  1  0.08843496  0.08147376  0.05607193  1
  Se  Se116  1  0.08829483  0.08664388  0.54710527  1
  Se  Se117  1  0.09072232  0.41330396  0.04887190  1
  Se  Se118  1  0.08287724  0.41657658  0.55997472  1
  Se  Se119  1  0.06419214  0.75283698  0.05751491  1
  Se  Se120  1  0.08163015  0.74736484  0.56011936  1
  Se  Se121  1  0.42201546  0.08581168  0.05258997  1
  Se  Se122  1  0.41674053  0.08446056  0.55250563  1
  Se  Se123  1  0.42308730  0.42311384  0.04795529  1
  Se  Se124  1  0.40763807  0.40938063  0.56157231  1
  Se  Se125  1  0.41461733  0.75232318  0.04771162  1
  Se  Se126  1  0.42290918  0.74978687  0.55046441  1
  Se  Se127  1  0.75215803  0.08081240  0.05659378  1
  Se  Se128  1  0.74711306  0.08459570  0.55269699  1
  Se  Se129  1  0.75183674  0.41516047  0.04949991  1
  Se  Se130  1  0.74426793  0.41947736  0.55164415  1
  Se  Se131  1  0.74195383  0.74136130  0.06105720  1
  Se  Se132  1  0.75186336  0.75084739  0.56225511  1
  Se  Se133  1  0.25907327  0.25253026  0.05695504  1
  Se  Se134  1  0.24377400  0.24503347  0.55539520  1
  Se  Se135  1  0.24534573  0.58486892  0.05043974  1
  Se  Se136  1  0.25053605  0.58306066  0.55132712  1
  Se  Se137  1  0.24821879  0.92163096  0.05547231  1
  Se  Se138  1  0.26086220  0.92272682  0.56260335  1
  Se  Se139  1  0.58469099  0.24908064  0.05144667  1
  Se  Se140  1  0.57655452  0.24997756  0.55045462  1
  Se  Se141  1  0.58041301  0.57904367  0.04723737  1
  Se  Se142  1  0.58894784  0.58889929  0.55893199  1
  Se  Se143  1  0.57951508  0.91422446  0.05294188  1
  Se  Se144  1  0.58500656  0.91600526  0.55363285  1
  Se  Se145  1  0.92289814  0.24565045  0.05551783  1
  Se  Se146  1  0.91165754  0.25134197  0.55520155  1
  Se  Se147  1  0.90180501  0.56814236  0.04718343  1
  Se  Se148  1  0.91228216  0.58432577  0.55250079  1
  Se  Se149  1  0.91900108  0.91632312  0.06623059  1
  Se  Se150  1  0.93142087  0.92522424  0.55501495  1
  Se  Se151  1  0.07886574  0.25518633  0.45227107  1
  Se  Se152  1  0.09041286  0.24388941  0.94834965  1
  Se  Se153  1  0.09804695  0.57313164  0.45018132  1
  Se  Se154  1  0.08938878  0.57517266  0.95353110  1
  Se  Se155  1  0.08415323  0.92246836  0.43580091  1
  Se  Se156  1  0.07804020  0.91499524  0.94875602  1
  Se  Se157  1  0.41339766  0.24527948  0.44923215  1
  Se  Se158  1  0.42258342  0.24864971  0.94468702  1
  Se  Se159  1  0.41210967  0.58575126  0.43667966  1
  Se  Se160  1  0.41144222  0.58861741  0.94269388  1
  Se  Se161  1  0.41805410  0.91545628  0.44550978  1
  Se  Se162  1  0.41493205  0.91830446  0.94863150  1
  Se  Se163  1  0.74548261  0.25376190  0.44541033  1
  Se  Se164  1  0.75516792  0.24342640  0.95051712  1
  Se  Se165  1  0.75602941  0.58477838  0.45165476  1
  Se  Se166  1  0.74979578  0.58272394  0.94218072  1
  Se  Se167  1  0.74622919  0.92540026  0.43657566  1
  Se  Se168  1  0.73985973  0.92491948  0.93864744  1
  Se  Se169  1  0.24518228  0.07535904  0.44100742  1
  Se  Se170  1  0.24945536  0.08728071  0.94853737  1
  Se  Se171  1  0.24746600  0.41518813  0.44976851  1
  Se  Se172  1  0.25507995  0.41527289  0.94692033  1
  Se  Se173  1  0.25998013  0.74323569  0.43580631  1
  Se  Se174  1  0.24011790  0.75805526  0.95156545  1
  Se  Se175  1  0.57950561  0.08468147  0.44528282  1
  Se  Se176  1  0.58127656  0.08546491  0.94928412  1
  Se  Se177  1  0.58802128  0.41180979  0.43204100  1
  Se  Se178  1  0.58746006  0.41184576  0.93924787  1
  Se  Se179  1  0.58483367  0.75279151  0.45203457  1
  Se  Se180  1  0.58020891  0.75126517  0.94638078  1
  Se  Se181  1  0.90023966  0.08938314  0.45073028  1
  Se  Se182  1  0.91524684  0.08095018  0.95303268  1
  Se  Se183  1  0.91445286  0.42143453  0.44934349  1
  Se  Se184  1  0.91890419  0.41015805  0.94872564  1
  Se  Se185  1  0.93476038  0.75145092  0.44005185  1
  Se  Se186  1  0.91778366  0.74464179  0.93936603  1
  Se  Se187  1  0.23974568  0.24161788  0.31137385  1
  Se  Se188  1  0.24954491  0.24997738  0.80444947  1
  Se  Se189  1  0.24227359  0.57593168  0.30912557  1
  Se  Se190  1  0.23824651  0.57906521  0.81717867  1
  Se  Se191  1  0.23944328  0.90283115  0.29357756  1
  Se  Se192  1  0.24468724  0.91261171  0.81224418  1
  Se  Se193  1  0.57443998  0.23817011  0.30905418  1
  Se  Se194  1  0.57777920  0.24458135  0.80871941  1
  Se  Se195  1  0.58134135  0.57868507  0.30068038  1
  Se  Se196  1  0.57925637  0.58983471  0.79964170  1
  Se  Se197  1  0.58245314  0.91967966  0.30282789  1
  Se  Se198  1  0.57643891  0.91226005  0.80723309  1
  Se  Se199  1  0.91414857  0.24083498  0.31128211  1
  Se  Se200  1  0.91527381  0.24561569  0.81104708  1
  Se  Se201  1  0.92940651  0.58523151  0.30615847  1
  Se  Se202  1  0.92277060  0.58491103  0.80521871  1
  Se  Se203  1  0.91816245  0.91789394  0.30141627  1
  Se  Se204  1  0.92019997  0.91977064  0.80101763  1
  Se  Se205  1  0.07304150  0.08605773  0.30743698  1
  Se  Se206  1  0.08001839  0.07865751  0.80920829  1
  Se  Se207  1  0.08553209  0.41871958  0.30714081  1
  Se  Se208  1  0.08425233  0.42246090  0.81773404  1
  Se  Se209  1  0.09640926  0.75162631  0.29549415  1
  Se  Se210  1  0.08160172  0.74797516  0.80723212  1
  Se  Se211  1  0.41157510  0.07864483  0.30489893  1
  Se  Se212  1  0.41850723  0.08476010  0.80954242  1
  Se  Se213  1  0.42483742  0.42257527  0.29954688  1
  Se  Se214  1  0.41303570  0.41811068  0.79727668  1
  Se  Se215  1  0.42348747  0.75447808  0.31105538  1
  Se  Se216  1  0.41987054  0.76108487  0.80858470  1
  Se  Se217  1  0.74572730  0.08116321  0.30037362  1
  Se  Se218  1  0.75927657  0.09076151  0.81095906  1
  Se  Se219  1  0.76509361  0.42702800  0.30777052  1
  Se  Se220  1  0.75600093  0.42396986  0.81093962  1
  Se  Se221  1  0.75905715  0.75269694  0.31807666  1
  Se  Se222  1  0.75051517  0.75113945  0.80093310  1
  Se  Se223  1  0.25544588  0.07697969  0.20034689  1
  Se  Se224  1  0.24056428  0.09001055  0.69106268  1
  Se  Se225  1  0.24336954  0.42483627  0.18979437  1
  Se  Se226  1  0.24244012  0.41450277  0.70159878  1
  Se  Se227  1  0.24495862  0.75718855  0.18119430  1
  Se  Se228  1  0.24355542  0.75576007  0.69399643  1
  Se  Se229  1  0.58691029  0.07750441  0.19447197  1
  Se  Se230  1  0.57775508  0.08914945  0.69183590  1
  Se  Se231  1  0.58559842  0.41630724  0.18595198  1
  Se  Se232  1  0.57218144  0.42981882  0.69097446  1
  Se  Se233  1  0.57038458  0.75645725  0.18989217  1
  Se  Se234  1  0.58919067  0.74482575  0.70110526  1
  Se  Se235  1  0.91571201  0.08323188  0.19626974  1
  Se  Se236  1  0.92460622  0.08109341  0.69382090  1
  Se  Se237  1  0.91977252  0.42490952  0.18479240  1
  Se  Se238  1  0.90889239  0.42439296  0.68975138  1
  Se  Se239  1  0.91252060  0.74478616  0.20293528  1
  Se  Se240  1  0.92224378  0.74823683  0.69959347  1
  Se  Se241  1  0.09728614  0.23640845  0.19424690  1
  Se  Se242  1  0.08492477  0.23967035  0.69285952  1
  Se  Se243  1  0.07913907  0.58561443  0.18937224  1
  Se  Se244  1  0.08139105  0.58606762  0.69912485  1
  Se  Se245  1  0.06479217  0.93932055  0.19810266  1
  Se  Se246  1  0.08446255  0.91905605  0.69776130  1
  Se  Se247  1  0.42360759  0.24003201  0.18846227  1
  Se  Se248  1  0.41107483  0.25187291  0.69652419  1
  Se  Se249  1  0.41777155  0.58266591  0.18689538  1
  Se  Se250  1  0.41578453  0.57875397  0.68723961  1
  Se  Se251  1  0.41157104  0.92272878  0.19481063  1
  Se  Se252  1  0.42955397  0.90632970  0.69377874  1
  Se  Se253  1  0.75636237  0.24751581  0.19000146  1
  Se  Se254  1  0.75510887  0.24246291  0.69393646  1
  Se  Se255  1  0.76164238  0.57900615  0.18847415  1
  Se  Se256  1  0.74965643  0.58843785  0.69963841  1
  Se  Se257  1  0.74504246  0.91528251  0.20144230  1
  Se  Se258  1  0.76194532  0.91245660  0.68653489  1
