# generated using pymatgen
data_In86Cu29Se144
_symmetry_space_group_name_H-M   'P 1'
_cell_length_a   17.57905430
_cell_length_b   17.58440747
_cell_length_c   23.43963479
_cell_angle_alpha   89.98860864
_cell_angle_beta   90.01201816
_cell_angle_gamma   89.99102048
_symmetry_Int_Tables_number   1
_chemical_formula_structural   In86Cu29Se144
_chemical_formula_sum   'In86 Cu29 Se144'
_cell_volume   7245.59514439
_cell_formula_units_Z   1
loop_
 _symmetry_equiv_pos_site_id
 _symmetry_equiv_pos_as_xyz
  1  'x, y, z'
loop_
 _atom_site_type_symbol
 _atom_site_label
 _atom_site_symmetry_multiplicity
 _atom_site_fract_x
 _atom_site_fract_y
 _atom_site_fract_z
 _atom_site_occupancy
  In  In0  1  0.00798741  0.15516721  0.12487538  1
  In  In1  1  -0.00428932  0.16182073  0.61814154  1
  In  In2  1  0.00540864  0.50345918  0.12681766  1
  In  In3  1  0.00520451  0.50275485  0.61778676  1
  In  In4  1  0.00080037  0.83828104  0.13515478  1
  In  In5  1  0.01853374  0.83511780  0.62134773  1
  In  In6  1  0.32447548  0.16239724  0.11990601  1
  In  In7  1  0.32943256  0.17059114  0.62808748  1
  In  In8  1  0.33616899  0.49728646  0.11949220  1
  In  In9  1  0.33356108  0.50074891  0.62889494  1
  In  In10  1  0.34433127  0.83849580  0.12534197  1
  In  In11  1  0.33714904  0.84217234  0.62469163  1
  In  In12  1  0.66219248  0.17537993  0.13376320  1
  In  In13  1  0.65926636  0.15935593  0.61964230  1
  In  In14  1  0.65498913  0.48439536  0.12284347  1
  In  In15  1  0.66068209  0.49355576  0.61228782  1
  In  In16  1  0.67406430  0.83337283  0.13197557  1
  In  In17  1  0.65985611  0.84661562  0.62317051  1
  In  In18  1  0.16468587  0.00125488  0.38035565  1
  In  In19  1  0.17033668  0.00319206  0.86903518  1
  In  In20  1  0.16840272  0.32924792  0.38425122  1
  In  In21  1  0.17385151  0.32606216  0.87687391  1
  In  In22  1  0.16370812  0.67571570  0.38448874  1
  In  In23  1  0.17065110  0.65272381  0.87259004  1
  In  In24  1  0.48946596  -0.00644125  0.37134698  1
  In  In25  1  0.50496595  0.00221553  0.86908122  1
  In  In26  1  0.51466881  0.34296517  0.37471569  1
  In  In27  1  0.48138104  0.34492322  0.88032316  1
  In  In28  1  0.48965972  0.67501330  0.39139415  1
  In  In29  1  0.48816461  0.65879763  0.86815476  1
  In  In30  1  0.84238656  0.01168999  0.37026139  1
  In  In31  1  0.83157059  0.00559259  0.86787245  1
  In  In32  1  0.80557458  0.35490325  0.38900617  1
  In  In33  1  0.84289543  0.33801327  0.87949937  1
  In  In34  1  0.83565479  0.64257905  0.36825751  1
  In  In35  1  0.82767292  0.65997674  0.87661970  1
  In  In36  1  0.00553875  0.16042352  0.37812583  1
  In  In37  1  0.01113069  0.16374547  0.87787310  1
  In  In38  1  -0.00920930  0.50759009  0.37084322  1
  In  In39  1  0.00499945  0.49715653  0.88395067  1
  In  In40  1  0.00766024  0.84201662  0.36919547  1
  In  In41  1  -0.00490219  0.84120447  0.87093366  1
  In  In42  1  0.33381758  0.14740585  0.38283914  1
  In  In43  1  0.33297395  0.16681515  0.87282108  1
  In  In44  1  0.33616371  0.50182430  0.38882862  1
  In  In45  1  0.33526218  0.49319774  0.86893366  1
  In  In46  1  0.31178771  0.84869876  0.40591223  1
  In  In47  1  0.33697484  0.83596443  0.86222918  1
  In  In48  1  0.67710086  0.17957560  0.36786205  1
  In  In49  1  0.65938612  0.15016357  0.87322710  1
  In  In50  1  0.66079086  0.49757304  0.38121459  1
  In  In51  1  0.66612752  0.49583994  0.88008765  1
  In  In52  1  0.65217346  0.83714740  0.37565786  1
  In  In53  1  0.65672874  0.83795459  0.87234064  1
  In  In54  1  0.15857906  0.01135808  0.13040277  1
  In  In55  1  0.16979785  -0.00114047  0.62515688  1
  In  In56  1  0.17135165  0.33440150  0.11810089  1
  In  In57  1  0.17767751  0.34322077  0.61826721  1
  In  In58  1  0.17195880  0.65237215  0.12547832  1
  In  In59  1  0.20918745  0.69342550  0.58844444  1
  In  In60  1  0.49019573  0.00829207  0.13274769  1
  In  In61  1  0.49961064  0.00036161  0.62685921  1
  In  In62  1  0.51205486  0.33891889  0.12289801  1
  In  In63  1  0.49283166  0.33086570  0.62544620  1
  In  In64  1  0.50958946  0.65364141  0.12618630  1
  In  In65  1  0.46089277  0.64944218  0.59503234  1
  In  In66  1  0.83796114  0.00033513  0.13586385  1
  In  In67  1  0.82488183  0.00991995  0.62618511  1
  In  In68  1  0.81768937  0.33446980  0.13005567  1
  In  In69  1  0.83444481  0.33822039  0.61209290  1
  In  In70  1  0.84598913  0.66405093  0.13323464  1
  In  In71  1  0.84446006  0.65856383  0.61995876  1
  In  In72  1  0.00631817  0.32848485  0.75469084  1
  In  In73  1  0.50160473  0.17382305  0.50094528  1
  In  In74  1  0.16695641  0.83304110  -0.00697503  1
  In  In75  1  0.83277139  0.17144338  0.00328870  1
  In  In76  1  0.83494086  0.83063615  0.49372348  1
  In  In77  1  0.66184382  0.67213202  0.74746783  1
  In  In78  1  0.66589287  0.66792480  0.25672055  1
  In  In79  1  0.50109486  0.82711050  -0.00373911  1
  In  In80  1  0.34052897  0.32971181  0.25940103  1
  In  In81  1  0.00962243  0.66928972  0.74360065  1
  In  In82  1  -0.00859700  0.32757634  0.25185423  1
  In  In83  1  0.33275448  0.67240999  0.25470484  1
  In  In84  1  0.65902667  0.32823860  0.74208045  1
  In  In85  1  0.83589343  0.83189304  0.01152746  1
  Cu  Cu86  1  0.00217696  0.66216340  0.00438042  1
  Cu  Cu87  1  0.83454107  0.49944047  0.74801455  1
  Cu  Cu88  1  0.49189771  0.84059426  0.25768510  1
  Cu  Cu89  1  0.00036470  0.32494658  0.49490566  1
  Cu  Cu90  1  0.66666790  0.01172095  0.49808598  1
  Cu  Cu91  1  0.50091442  0.16507339  0.25218787  1
  Cu  Cu92  1  0.16720272  0.15402621  0.25117540  1
  Cu  Cu93  1  0.33332663  0.33422217  0.50489172  1
  Cu  Cu94  1  0.33452874  0.65182759  -0.00411952  1
  Cu  Cu95  1  0.17897303  0.50443643  0.74378159  1
  Cu  Cu96  1  0.49983371  0.83548450  0.74307902  1
  Cu  Cu97  1  0.17092180  0.83785133  0.25899239  1
  Cu  Cu98  1  0.83534623  0.16741244  0.25458174  1
  Cu  Cu99  1  0.33451527  0.32947359  -0.00360907  1
  Cu  Cu100  1  0.66656277  0.66812704  0.49604911  1
  Cu  Cu101  1  0.83476495  0.84624058  0.74665704  1
  Cu  Cu102  1  0.66080432  0.32838177  0.00313571  1
  Cu  Cu103  1  0.83201468  0.15718091  0.74504631  1
  Cu  Cu104  1  0.32876879  0.00743497  -0.00121026  1
  Cu  Cu105  1  0.00487646  -0.00320256  0.49850493  1
  Cu  Cu106  1  0.16453521  0.50092582  0.25100520  1
  Cu  Cu107  1  0.17400628  0.83452155  0.73987632  1
  Cu  Cu108  1  -0.00080353  0.65583254  0.49499056  1
  Cu  Cu109  1  0.16865693  0.16516603  0.74968770  1
  Cu  Cu110  1  0.83481317  0.83925054  0.25336228  1
  Cu  Cu111  1  0.66783111  0.64775867  0.00057212  1
  Cu  Cu112  1  0.49544209  0.16461248  0.74930487  1
  Cu  Cu113  1  0.66362833  -0.00058294  0.00194037  1
  Cu  Cu114  1  -0.00042869  0.34224444  0.00381622  1
  Se  Se115  1  0.09165803  0.08758133  0.05133066  1
  Se  Se116  1  0.08567463  0.08041442  0.55443262  1
  Se  Se117  1  0.08681380  0.42271980  0.05596858  1
  Se  Se118  1  0.07874205  0.40912905  0.55218995  1
  Se  Se119  1  0.08060221  0.74735624  0.06171131  1
  Se  Se120  1  0.07794052  0.74195269  0.54935665  1
  Se  Se121  1  0.41692084  0.08273260  0.05445764  1
  Se  Se122  1  0.41065170  0.08180393  0.55679370  1
  Se  Se123  1  0.41687189  0.40937175  0.05492029  1
  Se  Se124  1  0.41648467  0.41772504  0.55696364  1
  Se  Se125  1  0.41113349  0.73468774  0.05775186  1
  Se  Se126  1  0.43447661  0.78127380  0.55294960  1
  Se  Se127  1  0.74586696  0.07657695  0.06274001  1
  Se  Se128  1  0.75317838  0.09097945  0.55022944  1
  Se  Se129  1  0.74718710  0.41246912  0.05261811  1
  Se  Se130  1  0.76096983  0.43074922  0.54860888  1
  Se  Se131  1  0.74029366  0.73458130  0.06105145  1
  Se  Se132  1  0.74648939  0.74552202  0.56000771  1
  Se  Se133  1  0.24786574  0.24815354  0.04960399  1
  Se  Se134  1  0.24993367  0.24646780  0.55307447  1
  Se  Se135  1  0.24810356  0.57519552  0.05109722  1
  Se  Se136  1  0.22655293  0.55376942  0.56174716  1
  Se  Se137  1  0.25475253  0.91995842  0.05795225  1
  Se  Se138  1  0.23283068  0.89958314  0.55800409  1
  Se  Se139  1  0.58127214  0.24179832  0.05543965  1
  Se  Se140  1  0.59543121  0.26621281  0.55602429  1
  Se  Se141  1  0.57695928  0.57090676  0.05124421  1
  Se  Se142  1  0.58212580  0.58728631  0.55029224  1
  Se  Se143  1  0.58595238  0.91583091  0.06197806  1
  Se  Se144  1  0.58378841  0.92908432  0.55116086  1
  Se  Se145  1  0.92326603  0.25965594  0.06565741  1
  Se  Se146  1  0.91473473  0.24635155  0.54999793  1
  Se  Se147  1  0.91622625  0.58245247  0.05774022  1
  Se  Se148  1  0.91389108  0.57401723  0.54695474  1
  Se  Se149  1  0.92835557  0.92887630  0.06019770  1
  Se  Se150  1  0.91952201  0.91928191  0.55887700  1
  Se  Se151  1  0.08854580  0.24008727  0.44878957  1
  Se  Se152  1  0.07709094  0.25913407  0.94545753  1
  Se  Se153  1  0.08419718  0.57508544  0.44112350  1
  Se  Se154  1  0.08797102  0.58469666  0.94855284  1
  Se  Se155  1  0.08590045  0.90903614  0.44811358  1
  Se  Se156  1  0.07391465  0.92664802  0.94162760  1
  Se  Se157  1  0.41010133  0.26027596  0.43645672  1
  Se  Se158  1  0.41782411  0.24337512  0.94534747  1
  Se  Se159  1  0.40953636  0.58950788  0.45806426  1
  Se  Se160  1  0.42020668  0.57338259  0.94174792  1
  Se  Se161  1  0.42381239  0.92048005  0.45200853  1
  Se  Se162  1  0.40855667  0.92101569  0.94184831  1
  Se  Se163  1  0.74968431  0.24549027  0.44904487  1
  Se  Se164  1  0.74033165  0.25337932  0.93711786  1
  Se  Se165  1  0.74975688  0.58318937  0.44555470  1
  Se  Se166  1  0.75746568  0.57238222  0.94702195  1
  Se  Se167  1  0.74523627  0.92704487  0.43855493  1
  Se  Se168  1  0.74601182  0.91850951  0.94396987  1
  Se  Se169  1  0.24311381  0.08290426  0.45247203  1
  Se  Se170  1  0.24570326  0.08586910  0.94190698  1
  Se  Se171  1  0.24819594  0.41609018  0.45061643  1
  Se  Se172  1  0.25265053  0.41553230  0.94237116  1
  Se  Se173  1  0.26059741  0.72992095  0.45721905  1
  Se  Se174  1  0.26360096  0.74296119  0.93804476  1
  Se  Se175  1  0.58511360  0.08585487  0.43385959  1
  Se  Se176  1  0.57766505  0.07836578  0.94832283  1
  Se  Se177  1  0.57621961  0.42313407  0.45309490  1
  Se  Se178  1  0.58184089  0.41212623  0.94543002  1
  Se  Se179  1  0.58269934  0.75860140  0.45209112  1
  Se  Se180  1  0.59361016  0.73319133  0.93928359  1
  Se  Se181  1  0.91886950  0.08136074  0.44878143  1
  Se  Se182  1  0.91820824  0.07814286  0.94327057  1
  Se  Se183  1  0.92337561  0.41254950  0.43988079  1
  Se  Se184  1  0.91323729  0.42330107  0.95171296  1
  Se  Se185  1  0.92202280  0.73960887  0.43325426  1
  Se  Se186  1  0.92346991  0.74352092  0.94313051  1
  Se  Se187  1  0.24374405  0.23757093  0.31103323  1
  Se  Se188  1  0.25119923  0.25061715  0.80196276  1
  Se  Se189  1  0.24555423  0.57762164  0.31298705  1
  Se  Se190  1  0.25898014  0.58718734  0.80051840  1
  Se  Se191  1  0.25394567  0.91490603  0.31626204  1
  Se  Se192  1  0.25030964  0.91950328  0.79928060  1
  Se  Se193  1  0.58172234  0.25323676  0.30240345  1
  Se  Se194  1  0.57509346  0.24481208  0.81090862  1
  Se  Se195  1  0.56936085  0.58962220  0.31740220  1
  Se  Se196  1  0.58094182  0.57215389  0.80510188  1
  Se  Se197  1  0.58443255  0.92329815  0.30176031  1
  Se  Se198  1  0.58448234  0.91755005  0.79832122  1
  Se  Se199  1  0.90633126  0.24787151  0.32048525  1
  Se  Se200  1  0.90708057  0.23792673  0.80873888  1
  Se  Se201  1  0.91914187  0.58058334  0.29186906  1
  Se  Se202  1  0.91791496  0.57835402  0.80658953  1
  Se  Se203  1  0.92116905  0.92310026  0.30315186  1
  Se  Se204  1  0.91949897  0.92543469  0.80101677  1
  Se  Se205  1  0.08089678  0.07634190  0.30564143  1
  Se  Se206  1  0.08135820  0.08404590  0.80164102  1
  Se  Se207  1  0.09015993  0.41359559  0.30872163  1
  Se  Se208  1  0.09404216  0.42924940  0.80662892  1
  Se  Se209  1  0.08765258  0.74837837  0.30600149  1
  Se  Se210  1  0.09614338  0.75965424  0.80890038  1
  Se  Se211  1  0.41326810  0.08374735  0.30277561  1
  Se  Se212  1  0.41405212  0.08032503  0.80426439  1
  Se  Se213  1  0.42291531  0.43206915  0.31086657  1
  Se  Se214  1  0.41573726  0.41233795  0.79782419  1
  Se  Se215  1  0.41161047  0.76447050  0.31932911  1
  Se  Se216  1  0.42014964  0.74977498  0.79797121  1
  Se  Se217  1  0.74784587  0.08180358  0.30255026  1
  Se  Se218  1  0.74306255  0.08003156  0.79859675  1
  Se  Se219  1  0.74216375  0.42543679  0.30608855  1
  Se  Se220  1  0.75563296  0.41586984  0.80512938  1
  Se  Se221  1  0.75839326  0.75907102  0.31601854  1
  Se  Se222  1  0.76046249  0.76095567  0.80763143  1
  Se  Se223  1  0.25702425  0.07870967  0.19691539  1
  Se  Se224  1  0.25161369  0.08174592  0.69589932  1
  Se  Se225  1  0.24833157  0.41925644  0.19543139  1
  Se  Se226  1  0.25600142  0.40899590  0.69792212  1
  Se  Se227  1  0.24271396  0.76048600  0.18948290  1
  Se  Se228  1  0.25298029  0.74737747  0.68686592  1
  Se  Se229  1  0.58470142  0.08165224  0.19805416  1
  Se  Se230  1  0.58278317  0.08556480  0.69549416  1
  Se  Se231  1  0.58084797  0.41449428  0.20153925  1
  Se  Se232  1  0.57374917  0.42917214  0.69112269  1
  Se  Se233  1  0.56974976  0.75876735  0.19589330  1
  Se  Se234  1  0.57391056  0.75216671  0.68178497  1
  Se  Se235  1  0.92125213  0.08867885  0.19958791  1
  Se  Se236  1  0.92163930  0.07997661  0.69304035  1
  Se  Se237  1  0.90855842  0.42310586  0.19251660  1
  Se  Se238  1  0.91700905  0.41791121  0.69142909  1
  Se  Se239  1  0.91765768  0.75398764  0.20155160  1
  Se  Se240  1  0.91129957  0.76032593  0.68852956  1
  Se  Se241  1  0.09441998  0.24581470  0.19354190  1
  Se  Se242  1  0.09066237  0.24560689  0.68707444  1
  Se  Se243  1  0.08380510  0.58688308  0.19914761  1
  Se  Se244  1  0.09711007  0.58196992  0.68385050  1
  Se  Se245  1  0.08880253  0.91879005  0.20001564  1
  Se  Se246  1  0.08295627  0.91939066  0.69734345  1
  Se  Se247  1  0.42029739  0.24433326  0.18927708  1
  Se  Se248  1  0.41484939  0.25079747  0.69728806  1
  Se  Se249  1  0.41945859  0.57677755  0.19546197  1
  Se  Se250  1  0.41564921  0.59387086  0.68995716  1
  Se  Se251  1  0.40966342  0.92167199  0.20107500  1
  Se  Se252  1  0.41417986  0.92475102  0.69836387  1
  Se  Se253  1  0.74870257  0.25083716  0.20422031  1
  Se  Se254  1  0.75926119  0.24435068  0.68626090  1
  Se  Se255  1  0.74415157  0.58062424  0.18807187  1
  Se  Se256  1  0.75412402  0.57844310  0.68914977  1
  Se  Se257  1  0.74836682  0.91980012  0.20092506  1
  Se  Se258  1  0.74556929  0.92211468  0.69357244  1
