# generated using pymatgen
data_In86Cu29Se144
_symmetry_space_group_name_H-M   'P 1'
_cell_length_a   17.58575916
_cell_length_b   17.58489874
_cell_length_c   23.44546689
_cell_angle_alpha   89.96788650
_cell_angle_beta   90.02484960
_cell_angle_gamma   89.99502806
_symmetry_Int_Tables_number   1
_chemical_formula_structural   In86Cu29Se144
_chemical_formula_sum   'In86 Cu29 Se144'
_cell_volume   7250.36328465
_cell_formula_units_Z   1
loop_
 _symmetry_equiv_pos_site_id
 _symmetry_equiv_pos_as_xyz
  1  'x, y, z'
loop_
 _atom_site_type_symbol
 _atom_site_label
 _atom_site_symmetry_multiplicity
 _atom_site_fract_x
 _atom_site_fract_y
 _atom_site_fract_z
 _atom_site_occupancy
  In  In0  1  -0.01399031  0.16973483  0.12377672  1
  In  In1  1  0.01525850  0.16013636  0.62477152  1
  In  In2  1  0.01274925  0.50599813  0.12427352  1
  In  In3  1  -0.00844192  0.50469040  0.61982218  1
  In  In4  1  0.00620341  0.82796166  0.13656070  1
  In  In5  1  0.00093731  0.82799307  0.62075999  1
  In  In6  1  0.33766622  0.16248585  0.13592752  1
  In  In7  1  0.32444708  0.15663658  0.61554246  1
  In  In8  1  0.33242222  0.50448950  0.13050885  1
  In  In9  1  0.34630132  0.50077776  0.61919729  1
  In  In10  1  0.33817101  0.82769570  0.13121162  1
  In  In11  1  0.33698053  0.83419834  0.61997618  1
  In  In12  1  0.67102660  0.15765715  0.13407579  1
  In  In13  1  0.65581639  0.16721519  0.62135459  1
  In  In14  1  0.64910503  0.51484770  0.13650551  1
  In  In15  1  0.66506845  0.50103897  0.61529845  1
  In  In16  1  0.65557157  0.84350244  0.13359081  1
  In  In17  1  0.66169172  0.84710229  0.62533764  1
  In  In18  1  0.16880146  -0.00424430  0.37946715  1
  In  In19  1  0.17729970  -0.01243027  0.87570808  1
  In  In20  1  0.17002165  0.32115972  0.37452140  1
  In  In21  1  0.17205577  0.34909448  0.87426188  1
  In  In22  1  0.18857636  0.68461863  0.35741175  1
  In  In23  1  0.17172261  0.65042589  0.87936975  1
  In  In24  1  0.49713070  -0.00263897  0.37453766  1
  In  In25  1  0.48906085  -0.01572007  0.86622343  1
  In  In26  1  0.50013816  0.33469469  0.37255288  1
  In  In27  1  0.50816962  0.33641750  0.88060436  1
  In  In28  1  0.49405175  0.66692550  0.37951306  1
  In  In29  1  0.49244191  0.68015251  0.88426631  1
  In  In30  1  0.83308981  0.00121921  0.36872484  1
  In  In31  1  0.83386568  0.01473346  0.87182593  1
  In  In32  1  0.83600209  0.34722188  0.37445135  1
  In  In33  1  0.83072168  0.31663235  0.87557627  1
  In  In34  1  0.82494985  0.66173728  0.36836942  1
  In  In35  1  0.83534410  0.67146904  0.87806244  1
  In  In36  1  0.01660639  0.15943137  0.38289381  1
  In  In37  1  -0.01766126  0.16614254  0.87238708  1
  In  In38  1  -0.00775888  0.49925131  0.37284568  1
  In  In39  1  0.02010452  0.50090496  0.87488776  1
  In  In40  1  0.01391596  0.84510391  0.37099641  1
  In  In41  1  0.00398697  0.83349351  0.87705856  1
  In  In42  1  0.33609430  0.16533381  0.37340472  1
  In  In43  1  0.34479374  0.15677614  0.87392855  1
  In  In44  1  0.34987266  0.52204655  0.35864414  1
  In  In45  1  0.32592801  0.50813681  0.88351474  1
  In  In46  1  0.33040713  0.82931257  0.38003760  1
  In  In47  1  0.34927346  0.84243825  0.86579054  1
  In  In48  1  0.65325220  0.15402112  0.36609944  1
  In  In49  1  0.67804838  0.16242492  0.87700493  1
  In  In50  1  0.66461094  0.50037162  0.37209465  1
  In  In51  1  0.66107387  0.48859968  0.88316827  1
  In  In52  1  0.65420932  0.82217844  0.36777177  1
  In  In53  1  0.65253273  0.83084903  0.87382339  1
  In  In54  1  0.17312385  -0.00840044  0.13590862  1
  In  In55  1  0.17308073  0.01264196  0.61338782  1
  In  In56  1  0.16937814  0.35140306  0.13249977  1
  In  In57  1  0.16797051  0.31828884  0.62263246  1
  In  In58  1  0.16991933  0.65641268  0.13884446  1
  In  In59  1  0.17282403  0.68313146  0.61436733  1
  In  In60  1  0.49950796  -0.00554354  0.12971911  1
  In  In61  1  0.49803642  -0.00270966  0.61950852  1
  In  In62  1  0.48424021  0.34713637  0.13763748  1
  In  In63  1  0.50488748  0.33226462  0.61343625  1
  In  In64  1  0.49706154  0.67091790  0.12738779  1
  In  In65  1  0.48605156  0.65967236  0.61066650  1
  In  In66  1  0.82613890  0.00674875  0.13142610  1
  In  In67  1  0.82592450  -0.00838166  0.63029367  1
  In  In68  1  0.83286571  0.31666846  0.12396414  1
  In  In69  1  0.82964003  0.34606320  0.62607569  1
  In  In70  1  0.83247722  0.66446849  0.13503765  1
  In  In71  1  0.84431685  0.66603753  0.62126008  1
  In  In72  1  0.17546071  0.82274773  0.01248396  1
  In  In73  1  0.83445466  0.17116517  0.49592658  1
  In  In74  1  0.82950347  0.49534101  0.00630375  1
  In  In75  1  0.83280402  0.83522348  -0.00303284  1
  In  In76  1  0.33448562  0.32768484  0.74800279  1
  In  In77  1  0.00079963  0.00055112  0.74702595  1
  In  In78  1  -0.00190583  0.33055988  0.24839044  1
  In  In79  1  0.66732880  0.32699174  0.75002338  1
  In  In80  1  0.66426323  0.66814379  0.75439360  1
  In  In81  1  0.00682841  0.66899146  0.74384014  1
  In  In82  1  0.50281773  0.16847760  0.00461917  1
  In  In83  1  0.16635284  0.16981418  -0.00291047  1
  In  In84  1  0.17044763  0.50293137  0.48563451  1
  In  In85  1  0.83126717  0.83248303  0.50482282  1
  Cu  Cu86  1  0.49996394  0.15383989  0.74423120  1
  Cu  Cu87  1  0.33518316  0.66811280  0.00591814  1
  Cu  Cu88  1  0.16592453  0.83736052  0.25375844  1
  Cu  Cu89  1  0.17213405  0.50096790  0.75152146  1
  Cu  Cu90  1  0.66552127  0.00493095  0.00677248  1
  Cu  Cu91  1  -0.00139875  0.00198990  0.00515633  1
  Cu  Cu92  1  0.83426266  0.16496721  0.25184865  1
  Cu  Cu93  1  0.17872165  0.83273670  0.74532780  1
  Cu  Cu94  1  0.50023327  0.50524682  0.25313233  1
  Cu  Cu95  1  0.33971126  0.33152446  0.49460302  1
  Cu  Cu96  1  0.32896805  0.34137391  0.00798016  1
  Cu  Cu97  1  0.49598947  0.83274080  0.25417478  1
  Cu  Cu98  1  0.33498982  -0.00050780  0.49599187  1
  Cu  Cu99  1  -0.00153207  0.66910137  0.49445308  1
  Cu  Cu100  1  0.66100596  -0.00226853  0.49451283  1
  Cu  Cu101  1  -0.00256920  0.33642520  0.00319496  1
  Cu  Cu102  1  0.49776301  0.83226310  0.74488212  1
  Cu  Cu103  1  0.84042394  0.49815328  0.74674359  1
  Cu  Cu104  1  0.00058610  0.33599543  0.49695648  1
  Cu  Cu105  1  0.50039257  0.16641475  0.25310865  1
  Cu  Cu106  1  0.82749845  0.49753938  0.25015315  1
  Cu  Cu107  1  0.66569375  0.33581796  0.49445041  1
  Cu  Cu108  1  0.65855182  0.33451018  0.00652573  1
  Cu  Cu109  1  0.66220153  0.66225639  0.49206597  1
  Cu  Cu110  1  0.16619221  0.16064117  0.74565866  1
  Cu  Cu111  1  0.16824148  0.15964890  0.25467577  1
  Cu  Cu112  1  0.83319336  0.83390056  0.25252563  1
  Cu  Cu113  1  0.49491254  0.50436390  0.74893470  1
  Cu  Cu114  1  0.66095005  0.67096464  0.00771777  1
  Se  Se115  1  0.08280930  0.07926785  0.06333632  1
  Se  Se116  1  0.08295419  0.08709327  0.54638102  1
  Se  Se117  1  0.08422376  0.41513924  0.05504329  1
  Se  Se118  1  0.08475468  0.41610044  0.55669465  1
  Se  Se119  1  0.07727912  0.73737982  0.06442699  1
  Se  Se120  1  0.08085223  0.75425395  0.54618694  1
  Se  Se121  1  0.40975055  0.07867662  0.05921377  1
  Se  Se122  1  0.41849506  0.08385351  0.55020878  1
  Se  Se123  1  0.41572223  0.42345257  0.05816466  1
  Se  Se124  1  0.42066460  0.41653251  0.54820028  1
  Se  Se125  1  0.41798255  0.75487924  0.05547252  1
  Se  Se126  1  0.42497880  0.76266034  0.54863235  1
  Se  Se127  1  0.75165281  0.08771104  0.05600564  1
  Se  Se128  1  0.74482087  0.07549630  0.55423190  1
  Se  Se129  1  0.73760594  0.41326545  0.06921660  1
  Se  Se130  1  0.75022115  0.41671287  0.54966936  1
  Se  Se131  1  0.74604230  0.74995042  0.06353644  1
  Se  Se132  1  0.73731982  0.73906362  0.56093449  1
  Se  Se133  1  0.25355728  0.25378858  0.06446813  1
  Se  Se134  1  0.25285453  0.25140160  0.54827338  1
  Se  Se135  1  0.24987331  0.58828959  0.06012139  1
  Se  Se136  1  0.25627828  0.58666083  0.55330771  1
  Se  Se137  1  0.26129485  0.92520659  0.06002943  1
  Se  Se138  1  0.25119302  0.91810695  0.55202679  1
  Se  Se139  1  0.58290580  0.25673382  0.07167739  1
  Se  Se140  1  0.58542070  0.24745443  0.54556383  1
  Se  Se141  1  0.57680077  0.58474125  0.05607001  1
  Se  Se142  1  0.57933508  0.57909971  0.54821994  1
  Se  Se143  1  0.58201456  0.91894363  0.05560461  1
  Se  Se144  1  0.57987665  0.91354170  0.54875917  1
  Se  Se145  1  0.91268588  0.24684174  0.04667809  1
  Se  Se146  1  0.92207587  0.25780248  0.56083169  1
  Se  Se147  1  0.91857581  0.59051616  0.05929431  1
  Se  Se148  1  0.91480701  0.58465127  0.54608671  1
  Se  Se149  1  0.92169755  0.91781209  0.06413469  1
  Se  Se150  1  0.92324158  0.92824415  0.55815912  1
  Se  Se151  1  0.08791422  0.25134678  0.45095936  1
  Se  Se152  1  0.07579127  0.25952224  0.93720304  1
  Se  Se153  1  0.07931243  0.59588254  0.43081844  1
  Se  Se154  1  0.08217005  0.58498660  0.95010610  1
  Se  Se155  1  0.08763250  0.91308780  0.44967154  1
  Se  Se156  1  0.08164530  0.92013615  0.94980243  1
  Se  Se157  1  0.42239394  0.24671552  0.44213530  1
  Se  Se158  1  0.40589686  0.25991043  0.94542325  1
  Se  Se159  1  0.41067002  0.58227987  0.44641257  1
  Se  Se160  1  0.41738183  0.58534677  0.94885297  1
  Se  Se161  1  0.41807370  0.91400179  0.44515117  1
  Se  Se162  1  0.41773134  0.91483485  0.94597795  1
  Se  Se163  1  0.74212096  0.25371353  0.43297729  1
  Se  Se164  1  0.74081372  0.25417310  0.95024762  1
  Se  Se165  1  0.75057832  0.58087236  0.44305296  1
  Se  Se166  1  0.74046395  0.59238606  0.94518956  1
  Se  Se167  1  0.74382818  0.91679971  0.43781687  1
  Se  Se168  1  0.74139166  0.92613955  0.93963242  1
  Se  Se169  1  0.25208342  0.08552116  0.44414210  1
  Se  Se170  1  0.26010774  0.07461851  0.94559855  1
  Se  Se171  1  0.26414571  0.41175109  0.43184036  1
  Se  Se172  1  0.24558881  0.42222531  0.95204830  1
  Se  Se173  1  0.24670081  0.74374333  0.44605479  1
  Se  Se174  1  0.25963935  0.74662481  0.93852991  1
  Se  Se175  1  0.57787946  0.08418831  0.44494715  1
  Se  Se176  1  0.58382633  0.07681974  0.93947229  1
  Se  Se177  1  0.58118534  0.41955469  0.44250908  1
  Se  Se178  1  0.57506542  0.41998273  0.95665374  1
  Se  Se179  1  0.57977601  0.75246786  0.44703403  1
  Se  Se180  1  0.58160468  0.75664072  0.95251471  1
  Se  Se181  1  0.92206396  0.07223807  0.44401458  1
  Se  Se182  1  0.91635190  0.08207186  0.94904952  1
  Se  Se183  1  0.91607043  0.42124680  0.44895648  1
  Se  Se184  1  0.91769784  0.41349699  0.93831345  1
  Se  Se185  1  0.91556624  0.75009445  0.43558162  1
  Se  Se186  1  0.93143445  0.74027581  0.94766665  1
  Se  Se187  1  0.25234481  0.24704001  0.30175952  1
  Se  Se188  1  0.24395400  0.23950615  0.81128985  1
  Se  Se189  1  0.23922014  0.57279480  0.29702607  1
  Se  Se190  1  0.25583551  0.58363770  0.80316655  1
  Se  Se191  1  0.25218241  0.91604125  0.30871565  1
  Se  Se192  1  0.25711742  0.91970795  0.79909629  1
  Se  Se193  1  0.58468989  0.25316555  0.30204095  1
  Se  Se194  1  0.57140066  0.23820238  0.80845693  1
  Se  Se195  1  0.58128719  0.58922716  0.30822619  1
  Se  Se196  1  0.57624494  0.57553115  0.81441079  1
  Se  Se197  1  0.58262407  0.91879415  0.30313731  1
  Se  Se198  1  0.58342216  0.91390344  0.79832706  1
  Se  Se199  1  0.91560431  0.24064812  0.31570096  1
  Se  Se200  1  0.91440418  0.25235841  0.80069082  1
  Se  Se201  1  0.91286974  0.58022044  0.30170264  1
  Se  Se202  1  0.91544948  0.58074784  0.80867060  1
  Se  Se203  1  0.91820674  0.91715883  0.30397240  1
  Se  Se204  1  0.91340620  0.91105723  0.81056056  1
  Se  Se205  1  0.08394282  0.07766164  0.30705832  1
  Se  Se206  1  0.09102321  0.08546474  0.81413046  1
  Se  Se207  1  0.08755611  0.41642583  0.30950691  1
  Se  Se208  1  0.08587648  0.41594315  0.79900839  1
  Se  Se209  1  0.07907862  0.75026613  0.30088204  1
  Se  Se210  1  0.09708371  0.75614938  0.80818623  1
  Se  Se211  1  0.41626853  0.08062850  0.30386911  1
  Se  Se212  1  0.41291342  0.07608801  0.79809311  1
  Se  Se213  1  0.41748591  0.41524595  0.30115149  1
  Se  Se214  1  0.42076364  0.41921365  0.81045125  1
  Se  Se215  1  0.41332253  0.74894598  0.30774552  1
  Se  Se216  1  0.41980096  0.74473264  0.80065551  1
  Se  Se217  1  0.74728856  0.07995686  0.30064742  1
  Se  Se218  1  0.74895371  0.08659708  0.80095425  1
  Se  Se219  1  0.74615742  0.41289622  0.30259452  1
  Se  Se220  1  0.75583287  0.42464047  0.80885186  1
  Se  Se221  1  0.74613971  0.74878692  0.30065686  1
  Se  Se222  1  0.75875331  0.76001696  0.80922382  1
  Se  Se223  1  0.25429698  0.07760251  0.20200794  1
  Se  Se224  1  0.25150839  0.07990750  0.69352538  1
  Se  Se225  1  0.25685152  0.41898668  0.20231511  1
  Se  Se226  1  0.24739564  0.42022264  0.68685167  1
  Se  Se227  1  0.24832505  0.75309680  0.19932937  1
  Se  Se228  1  0.25680721  0.74703370  0.69100713  1
  Se  Se229  1  0.58024488  0.07975316  0.19834285  1
  Se  Se230  1  0.58619330  0.07619754  0.69033813  1
  Se  Se231  1  0.58287253  0.41633858  0.20251471  1
  Se  Se232  1  0.57769206  0.42262161  0.69157872  1
  Se  Se233  1  0.58055345  0.75078421  0.19880670  1
  Se  Se234  1  0.57655693  0.74784123  0.68651915  1
  Se  Se235  1  0.91905113  0.08378862  0.19779281  1
  Se  Se236  1  0.91040181  0.09135509  0.68930218  1
  Se  Se237  1  0.90850787  0.42088834  0.18638891  1
  Se  Se238  1  0.92399133  0.41718113  0.69390321  1
  Se  Se239  1  0.91637057  0.74826497  0.20117310  1
  Se  Se240  1  0.90691325  0.76150719  0.69520028  1
  Se  Se241  1  0.09136003  0.23976463  0.18926163  1
  Se  Se242  1  0.08409570  0.24894267  0.69770586  1
  Se  Se243  1  0.07479005  0.58309188  0.20367464  1
  Se  Se244  1  0.09645324  0.57870641  0.68403629  1
  Se  Se245  1  0.07933751  0.92103978  0.20260288  1
  Se  Se246  1  0.09275302  0.91083103  0.68780042  1
  Se  Se247  1  0.41379496  0.25076428  0.20309420  1
  Se  Se248  1  0.42500270  0.24226411  0.68531872  1
  Se  Se249  1  0.41703825  0.58840622  0.19816205  1
  Se  Se250  1  0.41578431  0.58617492  0.69311581  1
  Se  Se251  1  0.41375555  0.91720128  0.19996806  1
  Se  Se252  1  0.41608431  0.91783604  0.69174206  1
  Se  Se253  1  0.75056946  0.24924825  0.20023405  1
  Se  Se254  1  0.75596018  0.24139586  0.68737706  1
  Se  Se255  1  0.74433888  0.58670372  0.20180451  1
  Se  Se256  1  0.75626264  0.57858397  0.69061174  1
  Se  Se257  1  0.74968307  0.91787816  0.19861259  1
  Se  Se258  1  0.74889873  0.90998363  0.69929654  1
