# generated using pymatgen
data_In86Cu29Se144
_symmetry_space_group_name_H-M   'P 1'
_cell_length_a   17.59231912
_cell_length_b   17.58588746
_cell_length_c   23.44942560
_cell_angle_alpha   90.01324217
_cell_angle_beta   90.00683383
_cell_angle_gamma   89.96971819
_symmetry_Int_Tables_number   1
_chemical_formula_structural   In86Cu29Se144
_chemical_formula_sum   'In86 Cu29 Se144'
_cell_volume   7254.70099946
_cell_formula_units_Z   1
loop_
 _symmetry_equiv_pos_site_id
 _symmetry_equiv_pos_as_xyz
  1  'x, y, z'
loop_
 _atom_site_type_symbol
 _atom_site_label
 _atom_site_symmetry_multiplicity
 _atom_site_fract_x
 _atom_site_fract_y
 _atom_site_fract_z
 _atom_site_occupancy
  In  In0  1  0.00223537  0.14968727  0.12937501  1
  In  In1  1  -0.01041038  0.15330855  0.61702111  1
  In  In2  1  0.00879482  0.48993018  0.12425334  1
  In  In3  1  0.00882529  0.49554833  0.62510481  1
  In  In4  1  0.01496681  0.85169440  0.11493560  1
  In  In5  1  0.01887073  0.84764863  0.61009422  1
  In  In6  1  0.32408419  0.16758000  0.12481723  1
  In  In7  1  0.33088962  0.16286866  0.62549585  1
  In  In8  1  0.33898435  0.50406509  0.11842486  1
  In  In9  1  0.32947882  0.51115143  0.64311165  1
  In  In10  1  0.30878055  0.84683831  0.13997480  1
  In  In11  1  0.32346270  0.84200570  0.63391434  1
  In  In12  1  0.66157740  0.16476042  0.13977563  1
  In  In13  1  0.66772839  0.16156440  0.62666130  1
  In  In14  1  0.65110079  0.50283245  0.12177459  1
  In  In15  1  0.66163067  0.49737028  0.63652698  1
  In  In16  1  0.67656528  0.83811308  0.12201998  1
  In  In17  1  0.67068552  0.83493876  0.62362891  1
  In  In18  1  0.16625662  -0.00168706  0.37406168  1
  In  In19  1  0.16452186  -0.00158486  0.87178276  1
  In  In20  1  0.16838910  0.33786520  0.38293851  1
  In  In21  1  0.18030222  0.32745493  0.87625367  1
  In  In22  1  0.16711394  0.66802091  0.38411913  1
  In  In23  1  0.17630655  0.66261977  0.88313833  1
  In  In24  1  0.49591188  0.00391572  0.36308936  1
  In  In25  1  0.50236681  0.00233878  0.86640276  1
  In  In26  1  0.50837730  0.31552707  0.37352344  1
  In  In27  1  0.50245889  0.34416831  0.86457029  1
  In  In28  1  0.49324485  0.67952326  0.37339027  1
  In  In29  1  0.48238153  0.65102149  0.85606903  1
  In  In30  1  0.83702352  -0.00318131  0.38274324  1
  In  In31  1  0.82782148  -0.00723331  0.86771096  1
  In  In32  1  0.81100396  0.31916224  0.38379694  1
  In  In33  1  0.82791610  0.34275525  0.87095540  1
  In  In34  1  0.84124262  0.68391698  0.38206716  1
  In  In35  1  0.83434933  0.68243064  0.87269565  1
  In  In36  1  0.01617418  0.15375865  0.38356903  1
  In  In37  1  0.01746110  0.16519359  0.87326717  1
  In  In38  1  0.00669831  0.51432045  0.38227097  1
  In  In39  1  0.00500361  0.51279106  0.87573705  1
  In  In40  1  -0.00621757  0.83708950  0.38306902  1
  In  In41  1  -0.00919117  0.83970108  0.88015477  1
  In  In42  1  0.33078408  0.13730168  0.37386946  1
  In  In43  1  0.32404668  0.15666503  0.86556940  1
  In  In44  1  0.32062388  0.50252163  0.37720464  1
  In  In45  1  0.33522455  0.49963905  0.87297580  1
  In  In46  1  0.32520245  0.83083548  0.36656370  1
  In  In47  1  0.32466967  0.82683119  0.86955729  1
  In  In48  1  0.67026237  0.16904438  0.37742604  1
  In  In49  1  0.66596600  0.16754902  0.86654865  1
  In  In50  1  0.66622574  0.48679819  0.37793001  1
  In  In51  1  0.65067142  0.49275370  0.86118046  1
  In  In52  1  0.66887081  0.85342783  0.37976390  1
  In  In53  1  0.67183074  0.83688730  0.86900067  1
  In  In54  1  0.16297698  0.00012871  0.12553774  1
  In  In55  1  0.16853210  -0.00630711  0.62158854  1
  In  In56  1  0.18191020  0.33721077  0.11551733  1
  In  In57  1  0.17563362  0.33598961  0.62058202  1
  In  In58  1  0.17866013  0.67896922  0.11705200  1
  In  In59  1  0.17583536  0.68049223  0.61547425  1
  In  In60  1  0.49789427  0.00106866  0.13572218  1
  In  In61  1  0.49823475  0.00167366  0.62661499  1
  In  In62  1  0.49523212  0.34574559  0.12343938  1
  In  In63  1  0.49977542  0.33204603  0.63991159  1
  In  In64  1  0.49206402  0.65183707  0.11854506  1
  In  In65  1  0.49793498  0.66526188  0.64147479  1
  In  In66  1  0.84139351  -0.00515320  0.13366435  1
  In  In67  1  0.82967387  0.00849194  0.61897133  1
  In  In68  1  0.83283470  0.31974724  0.12803025  1
  In  In69  1  0.82278969  0.31722908  0.61933144  1
  In  In70  1  0.82040100  0.67796960  0.12249386  1
  In  In71  1  0.82958006  0.66910440  0.62372024  1
  In  In72  1  0.83630747  0.49776817  0.50513827  1
  In  In73  1  0.34083656  0.32400969  0.24961179  1
  In  In74  1  0.49683126  0.17249149  0.00340837  1
  In  In75  1  0.65761709  0.66768916  0.24606305  1
  In  In76  1  -0.00446867  0.32797469  0.74509435  1
  In  In77  1  0.49777200  0.49356852  0.50957760  1
  In  In78  1  0.49590874  0.16093821  0.50405205  1
  In  In79  1  0.83933323  0.16181512  0.00738813  1
  In  In80  1  0.49725638  0.83907684  0.50402011  1
  In  In81  1  0.83707655  0.50680624  -0.00224982  1
  In  In82  1  0.49507145  0.82712831  -0.00426207  1
  In  In83  1  -0.00314493  0.67332402  0.75051875  1
  In  In84  1  -0.00085614  0.32422337  0.25303298  1
  In  In85  1  0.00221196  0.67562174  0.25582070  1
  Cu  Cu86  1  0.32220075  -0.00198700  -0.00228069  1
  Cu  Cu87  1  0.16649903  0.83326228  0.74759395  1
  Cu  Cu88  1  0.33399563  0.66748791  -0.00335030  1
  Cu  Cu89  1  0.82933869  0.16277673  0.74397389  1
  Cu  Cu90  1  0.33783729  0.33756004  -0.00546847  1
  Cu  Cu91  1  0.49120659  0.83062879  0.24886291  1
  Cu  Cu92  1  0.16938532  0.50899565  0.25218656  1
  Cu  Cu93  1  0.82922736  0.16065210  0.25865600  1
  Cu  Cu94  1  0.16507897  0.15757237  0.74575382  1
  Cu  Cu95  1  0.16632574  0.16123939  0.25019524  1
  Cu  Cu96  1  0.66707086  0.33903108  -0.00585898  1
  Cu  Cu97  1  0.82069368  0.49782003  0.74542105  1
  Cu  Cu98  1  0.66464426  0.66937049  -0.00555641  1
  Cu  Cu99  1  0.00327055  -0.00140018  0.00076310  1
  Cu  Cu100  1  0.83359578  0.83963737  0.25278047  1
  Cu  Cu101  1  0.01843413  0.33455614  -0.00173205  1
  Cu  Cu102  1  0.49577787  0.16546429  0.74829130  1
  Cu  Cu103  1  0.33104416  0.32887724  0.50371467  1
  Cu  Cu104  1  0.67192720  0.66851506  0.50464213  1
  Cu  Cu105  1  0.00342141  0.33671468  0.50086924  1
  Cu  Cu106  1  0.82579717  0.49466735  0.25828024  1
  Cu  Cu107  1  0.50637630  0.83884567  0.74943461  1
  Cu  Cu108  1  0.67159166  -0.00382139  -0.00299200  1
  Cu  Cu109  1  0.00376761  0.67006334  -0.00149598  1
  Cu  Cu110  1  0.33186695  0.66726254  0.50448777  1
  Cu  Cu111  1  0.49755210  0.49471439  0.24684929  1
  Cu  Cu112  1  0.00209386  0.00119409  0.50063458  1
  Cu  Cu113  1  0.16924722  0.50099956  0.75387351  1
  Cu  Cu114  1  0.83613340  0.84419909  0.74439050  1
  Se  Se115  1  0.08500838  0.08533963  0.05267187  1
  Se  Se116  1  0.08793902  0.08269625  0.55379329  1
  Se  Se117  1  0.09529713  0.42274915  0.05139610  1
  Se  Se118  1  0.08817189  0.41766856  0.55361614  1
  Se  Se119  1  0.08628841  0.75448703  0.05124521  1
  Se  Se120  1  0.07676558  0.74024179  0.54874102  1
  Se  Se121  1  0.40948039  0.07250703  0.05694929  1
  Se  Se122  1  0.40132052  0.06575833  0.55358886  1
  Se  Se123  1  0.42094094  0.42126212  0.04791662  1
  Se  Se124  1  0.40488171  0.40778964  0.56815815  1
  Se  Se125  1  0.40410791  0.75026880  0.06305146  1
  Se  Se126  1  0.41475532  0.74323804  0.56521539  1
  Se  Se127  1  0.74172571  0.07731447  0.06345022  1
  Se  Se128  1  0.75818962  0.10374182  0.55035908  1
  Se  Se129  1  0.75030535  0.41189005  0.05862168  1
  Se  Se130  1  0.73616898  0.41323358  0.55845874  1
  Se  Se131  1  0.74645799  0.75454128  0.04630940  1
  Se  Se132  1  0.75477641  0.75501171  0.55276334  1
  Se  Se133  1  0.25806779  0.24929485  0.04713168  1
  Se  Se134  1  0.24830267  0.24232343  0.55389872  1
  Se  Se135  1  0.25080663  0.58326353  0.05161000  1
  Se  Se136  1  0.25674650  0.57898642  0.56069989  1
  Se  Se137  1  0.24437056  0.91513473  0.05502870  1
  Se  Se138  1  0.24088834  0.89880182  0.55481888  1
  Se  Se139  1  0.59534444  0.25786546  0.06016616  1
  Se  Se140  1  0.58054906  0.25627216  0.56279779  1
  Se  Se141  1  0.58184266  0.58405355  0.04606142  1
  Se  Se142  1  0.58781551  0.59237491  0.56231041  1
  Se  Se143  1  0.58234004  0.92283602  0.05580904  1
  Se  Se144  1  0.59344759  0.93091324  0.55479573  1
  Se  Se145  1  0.93540124  0.25848459  0.05919994  1
  Se  Se146  1  0.92006093  0.25300297  0.55280132  1
  Se  Se147  1  0.92469681  0.59344970  0.06389971  1
  Se  Se148  1  0.92777720  0.58907438  0.56020198  1
  Se  Se149  1  0.91195756  0.92070970  0.05313920  1
  Se  Se150  1  0.91463581  0.92065255  0.55347857  1
  Se  Se151  1  0.08616533  0.25234411  0.44800450  1
  Se  Se152  1  0.09404882  0.24668661  0.94446727  1
  Se  Se153  1  0.09968906  0.57257317  0.45238490  1
  Se  Se154  1  0.08644795  0.58255764  0.94998344  1
  Se  Se155  1  0.08468301  0.91826214  0.44621506  1
  Se  Se156  1  0.08462261  0.91617269  0.94434508  1
  Se  Se157  1  0.40614473  0.25058707  0.44012070  1
  Se  Se158  1  0.41234855  0.25221472  0.93377851  1
  Se  Se159  1  0.41529795  0.58886804  0.44511957  1
  Se  Se160  1  0.41773009  0.58581790  0.94221026  1
  Se  Se161  1  0.41257816  0.92024700  0.43563193  1
  Se  Se162  1  0.41007765  0.92521670  0.93789107  1
  Se  Se163  1  0.74911430  0.23274317  0.45952489  1
  Se  Se164  1  0.74936597  0.25223590  0.94299414  1
  Se  Se165  1  0.74530169  0.58788346  0.44001045  1
  Se  Se166  1  0.74546841  0.58776346  0.93434537  1
  Se  Se167  1  0.76688063  0.90145253  0.45079766  1
  Se  Se168  1  0.75323960  0.91382359  0.94362294  1
  Se  Se169  1  0.23176876  0.09478112  0.44502826  1
  Se  Se170  1  0.24530848  0.08446483  0.94223531  1
  Se  Se171  1  0.25242231  0.41880644  0.45176682  1
  Se  Se172  1  0.25033735  0.42083363  0.94434140  1
  Se  Se173  1  0.25710638  0.75286230  0.44684619  1
  Se  Se174  1  0.25013849  0.75654230  0.94944381  1
  Se  Se175  1  0.58330602  0.07389501  0.44033867  1
  Se  Se176  1  0.58917651  0.08076364  0.94323713  1
  Se  Se177  1  0.58607201  0.40234026  0.44873708  1
  Se  Se178  1  0.58124639  0.41835645  0.94169230  1
  Se  Se179  1  0.59044013  0.74609407  0.44319981  1
  Se  Se180  1  0.58287121  0.74389368  0.93131282  1
  Se  Se181  1  0.91830887  0.08621874  0.44883404  1
  Se  Se182  1  0.92312623  0.07870699  0.93891613  1
  Se  Se183  1  0.92025212  0.40950574  0.43686410  1
  Se  Se184  1  0.92856250  0.40878427  0.94129384  1
  Se  Se185  1  0.93856432  0.73470174  0.45240469  1
  Se  Se186  1  0.91468996  0.75084580  0.94955022  1
  Se  Se187  1  0.24250003  0.24553291  0.31029888  1
  Se  Se188  1  0.24504279  0.24569475  0.79803799  1
  Se  Se189  1  0.24880989  0.59104901  0.30805138  1
  Se  Se190  1  0.25010791  0.58740930  0.80632866  1
  Se  Se191  1  0.26287079  0.93476203  0.30462834  1
  Se  Se192  1  0.24934961  0.91761129  0.80229987  1
  Se  Se193  1  0.59318891  0.24765812  0.30245345  1
  Se  Se194  1  0.58036536  0.24910198  0.80165096  1
  Se  Se195  1  0.57500619  0.57476744  0.31167226  1
  Se  Se196  1  0.60320894  0.60717768  0.80379600  1
  Se  Se197  1  0.57830041  0.90820547  0.30351241  1
  Se  Se198  1  0.59066161  0.92250219  0.80135228  1
  Se  Se199  1  0.91148471  0.24121266  0.31838005  1
  Se  Se200  1  0.90776172  0.23959741  0.81037121  1
  Se  Se201  1  0.90606661  0.57993699  0.31103307  1
  Se  Se202  1  0.90419079  0.57492588  0.80540316  1
  Se  Se203  1  0.91837329  0.91714183  0.30873749  1
  Se  Se204  1  0.92247242  0.91921774  0.80185449  1
  Se  Se205  1  0.08066527  0.07956778  0.30173194  1
  Se  Se206  1  0.07970122  0.07721137  0.79901994  1
  Se  Se207  1  0.08703554  0.42523721  0.30768487  1
  Se  Se208  1  0.08289499  0.41966177  0.80825510  1
  Se  Se209  1  0.09316786  0.76269156  0.31354931  1
  Se  Se210  1  0.08960308  0.75526478  0.81358101  1
  Se  Se211  1  0.43045099  0.10476599  0.29899780  1
  Se  Se212  1  0.41364572  0.07872219  0.79950401  1
  Se  Se213  1  0.42198994  0.41950984  0.31450810  1
  Se  Se214  1  0.40311982  0.40964113  0.80154188  1
  Se  Se215  1  0.40923958  0.74395988  0.29864919  1
  Se  Se216  1  0.41582801  0.75782128  0.79893864  1
  Se  Se217  1  0.74985833  0.07614798  0.31330849  1
  Se  Se218  1  0.74779639  0.08089753  0.80167382  1
  Se  Se219  1  0.74594790  0.40674870  0.30727787  1
  Se  Se220  1  0.74237316  0.41015436  0.79835876  1
  Se  Se221  1  0.75080136  0.75421570  0.30745668  1
  Se  Se222  1  0.75619146  0.75668680  0.79794926  1
  Se  Se223  1  0.25049817  0.08153293  0.19453531  1
  Se  Se224  1  0.25043812  0.07558565  0.69296494  1
  Se  Se225  1  0.24911611  0.42274123  0.19524788  1
  Se  Se226  1  0.24578905  0.41321047  0.69921391  1
  Se  Se227  1  0.24596675  0.74228893  0.20090558  1
  Se  Se228  1  0.24939606  0.74480395  0.69854433  1
  Se  Se229  1  0.59605727  0.06432696  0.20061728  1
  Se  Se230  1  0.58151977  0.08320582  0.69509879  1
  Se  Se231  1  0.58518547  0.41500519  0.19556911  1
  Se  Se232  1  0.57246566  0.42614546  0.70427916  1
  Se  Se233  1  0.57117959  0.75695983  0.18258864  1
  Se  Se234  1  0.58889176  0.75602722  0.69564083  1
  Se  Se235  1  0.91619068  0.08370236  0.20302959  1
  Se  Se236  1  0.91611719  0.07995121  0.69496683  1
  Se  Se237  1  0.90924550  0.42181847  0.19485357  1
  Se  Se238  1  0.90386302  0.42061552  0.68631416  1
  Se  Se239  1  0.90966199  0.75732450  0.19075924  1
  Se  Se240  1  0.91757748  0.76376415  0.68488954  1
  Se  Se241  1  0.09605477  0.24862909  0.18742519  1
  Se  Se242  1  0.08596964  0.24071248  0.68512750  1
  Se  Se243  1  0.08597364  0.58296160  0.19100217  1
  Se  Se244  1  0.09030549  0.58268129  0.69367956  1
  Se  Se245  1  0.07765057  0.92283966  0.19605525  1
  Se  Se246  1  0.08311407  0.91611417  0.69460308  1
  Se  Se247  1  0.43106149  0.23828880  0.18657089  1
  Se  Se248  1  0.40795884  0.24623094  0.69763146  1
  Se  Se249  1  0.41448883  0.57980141  0.19597104  1
  Se  Se250  1  0.42703050  0.57520715  0.70904170  1
  Se  Se251  1  0.40942947  0.91972224  0.19982734  1
  Se  Se252  1  0.41843662  0.91864571  0.69632156  1
  Se  Se253  1  0.75313578  0.24760661  0.20180724  1
  Se  Se254  1  0.74425688  0.25035223  0.69772125  1
  Se  Se255  1  0.75416969  0.57454967  0.19126880  1
  Se  Se256  1  0.74727967  0.59104329  0.69423973  1
  Se  Se257  1  0.74666417  0.91805090  0.19816699  1
  Se  Se258  1  0.74986157  0.92384003  0.69034425  1
