# generated using pymatgen
data_In86Cu29Se144
_symmetry_space_group_name_H-M   'P 1'
_cell_length_a   17.58104892
_cell_length_b   17.57662775
_cell_length_c   23.44237415
_cell_angle_alpha   89.99772205
_cell_angle_beta   90.00645314
_cell_angle_gamma   90.01234623
_symmetry_Int_Tables_number   1
_chemical_formula_structural   In86Cu29Se144
_chemical_formula_sum   'In86 Cu29 Se144'
_cell_volume   7244.05797184
_cell_formula_units_Z   1
loop_
 _symmetry_equiv_pos_site_id
 _symmetry_equiv_pos_as_xyz
  1  'x, y, z'
loop_
 _atom_site_type_symbol
 _atom_site_label
 _atom_site_symmetry_multiplicity
 _atom_site_fract_x
 _atom_site_fract_y
 _atom_site_fract_z
 _atom_site_occupancy
  In  In0  1  -0.00147429  0.15084843  0.12652209  1
  In  In1  1  0.00353596  0.17030993  0.61198961  1
  In  In2  1  0.01293000  0.51757370  0.11850166  1
  In  In3  1  0.00410512  0.50818119  0.61905575  1
  In  In4  1  0.00090745  0.82410752  0.13028090  1
  In  In5  1  0.00302027  0.81784812  0.62852089  1
  In  In6  1  0.32791759  0.17516076  0.12327544  1
  In  In7  1  0.33476944  0.17262046  0.62512588  1
  In  In8  1  0.33607275  0.50508249  0.12073593  1
  In  In9  1  0.32054816  0.49492909  0.62596821  1
  In  In10  1  0.32077873  0.82074904  0.11716148  1
  In  In11  1  0.33046514  0.84021031  0.62355159  1
  In  In12  1  0.67452755  0.15929967  0.12979232  1
  In  In13  1  0.67184403  0.16265891  0.62892848  1
  In  In14  1  0.66235578  0.49673753  0.11633799  1
  In  In15  1  0.67472940  0.49237461  0.62879636  1
  In  In16  1  0.67373611  0.83458960  0.11564480  1
  In  In17  1  0.67317926  0.83485652  0.64776147  1
  In  In18  1  0.16105351  0.00639504  0.38217028  1
  In  In19  1  0.16718516  -0.00294774  0.88520715  1
  In  In20  1  0.16209154  0.33995588  0.38189593  1
  In  In21  1  0.17213045  0.33221832  0.87976098  1
  In  In22  1  0.16896163  0.66697234  0.37187259  1
  In  In23  1  0.15616879  0.67292009  0.88066520  1
  In  In24  1  0.50649811  -0.01384887  0.37015259  1
  In  In25  1  0.50637734  -0.01203111  0.87739937  1
  In  In26  1  0.50651780  0.32341734  0.37605311  1
  In  In27  1  0.51017064  0.34425723  0.86272598  1
  In  In28  1  0.49453711  0.68207554  0.36577103  1
  In  In29  1  0.50423075  0.66736105  0.88121017  1
  In  In30  1  0.84173340  0.00212660  0.36688874  1
  In  In31  1  0.81819805  -0.00440879  0.87245106  1
  In  In32  1  0.82953529  0.34352147  0.37879684  1
  In  In33  1  0.82446713  0.34717817  0.87766382  1
  In  In34  1  0.83598176  0.65766920  0.37391849  1
  In  In35  1  0.82723189  0.67069286  0.87370358  1
  In  In36  1  0.00572551  0.16006165  0.38102008  1
  In  In37  1  0.00530924  0.17238916  0.87862552  1
  In  In38  1  0.00057857  0.50791417  0.37372416  1
  In  In39  1  -0.01573331  0.51507662  0.88503169  1
  In  In40  1  0.00541497  0.84606914  0.35890498  1
  In  In41  1  0.00644335  0.82368711  0.87874326  1
  In  In42  1  0.31553052  0.15778526  0.37857563  1
  In  In43  1  0.32106280  0.16708847  0.87304222  1
  In  In44  1  0.32103917  0.50150872  0.37190702  1
  In  In45  1  0.33880482  0.49496343  0.88089498  1
  In  In46  1  0.33884499  0.82175918  0.37268621  1
  In  In47  1  0.33622004  0.82943597  0.88494723  1
  In  In48  1  0.67607757  0.17265522  0.37318699  1
  In  In49  1  0.65488602  0.16281444  0.85788874  1
  In  In50  1  0.68568282  0.50483940  0.37480347  1
  In  In51  1  0.66474393  0.50309277  0.87582793  1
  In  In52  1  0.66286889  0.84613978  0.36540137  1
  In  In53  1  0.66681196  0.83190651  0.87613219  1
  In  In54  1  0.15914203  -0.01242383  0.11968966  1
  In  In55  1  0.17257437  -0.00374806  0.60677356  1
  In  In56  1  0.17113061  0.33881265  0.11905462  1
  In  In57  1  0.16846305  0.33818461  0.62313349  1
  In  In58  1  0.16170794  0.66248161  0.12892589  1
  In  In59  1  0.16382609  0.65758024  0.61917453  1
  In  In60  1  0.51781583  -0.00849877  0.12818755  1
  In  In61  1  0.50720083  0.00434075  0.63082125  1
  In  In62  1  0.50466542  0.34629790  0.12168149  1
  In  In63  1  0.50414680  0.31609122  0.64883005  1
  In  In64  1  0.49294130  0.65957351  0.11432651  1
  In  In65  1  0.51571602  0.67974781  0.63484701  1
  In  In66  1  0.85402498  -0.03062318  0.15040821  1
  In  In67  1  0.82078532  0.00505826  0.62167985  1
  In  In68  1  0.82123313  0.33341844  0.12198854  1
  In  In69  1  0.83281064  0.33076543  0.61687376  1
  In  In70  1  0.84753089  0.67829073  0.11801117  1
  In  In71  1  0.84512694  0.66433769  0.63468876  1
  In  In72  1  0.33891182  0.66410767  0.75947992  1
  In  In73  1  0.49690844  0.83451221  0.49787718  1
  In  In74  1  0.49186900  0.49837697  0.50874846  1
  In  In75  1  0.49411305  0.16365400  0.50918920  1
  In  In76  1  0.34232217  0.00071983  0.74782253  1
  In  In77  1  0.83798373  0.83275167  0.50312069  1
  In  In78  1  0.49390843  0.16452525  -0.00698157  1
  In  In79  1  0.33819482  0.34139948  0.24391903  1
  In  In80  1  0.67115265  0.66830504  0.24294828  1
  In  In81  1  -0.00194508  0.33743490  0.25519892  1
  In  In82  1  -0.00684659  -0.00911541  0.74699985  1
  In  In83  1  0.33579317  -0.00147920  0.25091175  1
  In  In84  1  -0.00627311  0.33942216  0.75602219  1
  In  In85  1  0.83439344  0.16263002  -0.00301754  1
  Cu  Cu86  1  0.51141891  0.16675339  0.25267300  1
  Cu  Cu87  1  -0.00253112  -0.00141992  0.49238868  1
  Cu  Cu88  1  0.16052403  0.16556468  0.25383502  1
  Cu  Cu89  1  0.67040605  0.33951581  0.50099510  1
  Cu  Cu90  1  0.00438743  0.66664575  0.49799596  1
  Cu  Cu91  1  0.82767044  0.16275608  0.25119561  1
  Cu  Cu92  1  0.49626213  0.50133534  0.75534125  1
  Cu  Cu93  1  0.32742878  0.66555340  0.49742480  1
  Cu  Cu94  1  0.16769378  0.82956683  0.75355530  1
  Cu  Cu95  1  0.15870934  0.50127090  0.74729651  1
  Cu  Cu96  1  0.00461954  0.33476621  -0.00151309  1
  Cu  Cu97  1  0.00019006  -0.00875694  0.00661587  1
  Cu  Cu98  1  -0.00009549  0.66797391  0.00268048  1
  Cu  Cu99  1  -0.00006977  0.33616461  0.49693235  1
  Cu  Cu100  1  0.66836746  0.66440113  -0.00323742  1
  Cu  Cu101  1  0.65995427  0.33448496  -0.00412536  1
  Cu  Cu102  1  0.67458296  0.66970119  0.50073369  1
  Cu  Cu103  1  0.82666677  0.17160072  0.74323151  1
  Cu  Cu104  1  0.32960028  0.33731665  0.00013704  1
  Cu  Cu105  1  0.50729562  0.50072393  0.24209803  1
  Cu  Cu106  1  0.66488261  0.00350115  0.50343478  1
  Cu  Cu107  1  0.32449025  0.33243886  0.50475244  1
  Cu  Cu108  1  0.33404201  0.00042485  0.00070628  1
  Cu  Cu109  1  0.67684943  -0.00747253  0.00465147  1
  Cu  Cu110  1  0.16668857  0.82980954  0.24587670  1
  Cu  Cu111  1  0.16533894  0.16616285  0.75022028  1
  Cu  Cu112  1  0.82837821  0.50398389  0.75524905  1
  Cu  Cu113  1  0.32550940  0.66656183  -0.00031513  1
  Cu  Cu114  1  0.83603481  0.49813462  0.24873505  1
  Se  Se115  1  0.08365993  0.08173676  0.05294794  1
  Se  Se116  1  0.08248052  0.08160162  0.54658911  1
  Se  Se117  1  0.08426996  0.41974432  0.05332977  1
  Se  Se118  1  0.08258306  0.41699660  0.55453170  1
  Se  Se119  1  0.08486783  0.74919246  0.05742083  1
  Se  Se120  1  0.08623905  0.74947814  0.55316869  1
  Se  Se121  1  0.41391758  0.07739604  0.06388856  1
  Se  Se122  1  0.40439907  0.06631903  0.56119130  1
  Se  Se123  1  0.41661814  0.41794396  0.05243294  1
  Se  Se124  1  0.41315011  0.39821581  0.56826206  1
  Se  Se125  1  0.41417756  0.75008866  0.04835294  1
  Se  Se126  1  0.41371374  0.73705761  0.56036735  1
  Se  Se127  1  0.75885649  0.07098983  0.06417258  1
  Se  Se128  1  0.74936771  0.09214911  0.54993074  1
  Se  Se129  1  0.74850025  0.41458834  0.04754155  1
  Se  Se130  1  0.75522998  0.42405052  0.55124409  1
  Se  Se131  1  0.75346859  0.74764689  0.04912747  1
  Se  Se132  1  0.74446594  0.75088382  0.56609616  1
  Se  Se133  1  0.24747770  0.24957090  0.05041821  1
  Se  Se134  1  0.24366563  0.24502339  0.55652396  1
  Se  Se135  1  0.24524598  0.58348397  0.05588476  1
  Se  Se136  1  0.25014778  0.57725648  0.55102995  1
  Se  Se137  1  0.24825659  0.91526243  0.05044354  1
  Se  Se138  1  0.24817457  0.90072408  0.54652567  1
  Se  Se139  1  0.58803073  0.24806418  0.05753676  1
  Se  Se140  1  0.58633855  0.26107754  0.56020472  1
  Se  Se141  1  0.58179703  0.58013745  0.04780746  1
  Se  Se142  1  0.58953744  0.59202537  0.55937037  1
  Se  Se143  1  0.58125199  0.91281303  0.04826844  1
  Se  Se144  1  0.59290146  0.91580392  0.56242784  1
  Se  Se145  1  0.92433620  0.25326080  0.05923463  1
  Se  Se146  1  0.91545280  0.25068864  0.54714932  1
  Se  Se147  1  0.91385049  0.58017383  0.05058998  1
  Se  Se148  1  0.91577048  0.59067128  0.55397985  1
  Se  Se149  1  0.91672622  0.91060983  0.06119876  1
  Se  Se150  1  0.92684822  0.92465020  0.56375495  1
  Se  Se151  1  0.08494211  0.24978369  0.44679720  1
  Se  Se152  1  0.08796417  0.24861541  0.94853959  1
  Se  Se153  1  0.08777386  0.58399527  0.44357848  1
  Se  Se154  1  0.08365153  0.58221319  0.95022167  1
  Se  Se155  1  0.07846590  0.91082789  0.44202645  1
  Se  Se156  1  0.08338864  0.91094829  0.94874901  1
  Se  Se157  1  0.40541020  0.25435833  0.44308273  1
  Se  Se158  1  0.40996334  0.26147766  0.93591988  1
  Se  Se159  1  0.41727550  0.59210560  0.43953326  1
  Se  Se160  1  0.41378613  0.58723057  0.94630741  1
  Se  Se161  1  0.40655055  0.92685270  0.44117680  1
  Se  Se162  1  0.41906543  0.91783112  0.94911856  1
  Se  Se163  1  0.75040646  0.25424111  0.44657218  1
  Se  Se164  1  0.73724190  0.24810027  0.93740545  1
  Se  Se165  1  0.75741742  0.58400064  0.45072752  1
  Se  Se166  1  0.75258188  0.58036740  0.94445335  1
  Se  Se167  1  0.74483202  0.92203783  0.44275972  1
  Se  Se168  1  0.75582475  0.90926241  0.94820159  1
  Se  Se169  1  0.24704996  0.08003643  0.45356214  1
  Se  Se170  1  0.25083467  0.08538538  0.94879357  1
  Se  Se171  1  0.25094234  0.42009920  0.44796737  1
  Se  Se172  1  0.24548206  0.42261896  0.94880956  1
  Se  Se173  1  0.24969600  0.75168640  0.44344697  1
  Se  Se174  1  0.24303543  0.75322426  0.94831094  1
  Se  Se175  1  0.58289645  0.07961385  0.44140480  1
  Se  Se176  1  0.59960505  0.07896424  0.94504741  1
  Se  Se177  1  0.58651531  0.41816907  0.44246077  1
  Se  Se178  1  0.57718069  0.41913033  0.94357290  1
  Se  Se179  1  0.59453177  0.74590648  0.43934696  1
  Se  Se180  1  0.58389942  0.75324206  0.94933419  1
  Se  Se181  1  0.91013429  0.08242745  0.44449937  1
  Se  Se182  1  0.92618132  0.06920030  0.93858152  1
  Se  Se183  1  0.92020297  0.42260397  0.44280280  1
  Se  Se184  1  0.91475916  0.41411120  0.94843263  1
  Se  Se185  1  0.92513458  0.74860410  0.43778195  1
  Se  Se186  1  0.91608094  0.74642020  0.94507120  1
  Se  Se187  1  0.24493532  0.25079389  0.30579848  1
  Se  Se188  1  0.24463477  0.25268622  0.80269900  1
  Se  Se189  1  0.26442100  0.59776953  0.30337004  1
  Se  Se190  1  0.23997287  0.57705909  0.81249335  1
  Se  Se191  1  0.24184288  0.91223758  0.31027196  1
  Se  Se192  1  0.24810395  0.91236936  0.81014510  1
  Se  Se193  1  0.59187489  0.25468818  0.30347667  1
  Se  Se194  1  0.58078901  0.25461460  0.79435172  1
  Se  Se195  1  0.58216063  0.57930068  0.30954249  1
  Se  Se196  1  0.57882463  0.58492334  0.80752942  1
  Se  Se197  1  0.57058489  0.90581607  0.29371923  1
  Se  Se198  1  0.60031381  0.92979233  0.80749734  1
  Se  Se199  1  0.90949769  0.24269202  0.31234917  1
  Se  Se200  1  0.90343108  0.24269775  0.81213364  1
  Se  Se201  1  0.91799894  0.58349488  0.30017802  1
  Se  Se202  1  0.91476018  0.58749784  0.80477320  1
  Se  Se203  1  0.90385054  0.90930391  0.29583478  1
  Se  Se204  1  0.91008122  0.90521406  0.81209034  1
  Se  Se205  1  0.08033781  0.07939836  0.30594747  1
  Se  Se206  1  0.08635228  0.08294230  0.80811756  1
  Se  Se207  1  0.09611522  0.42771196  0.30532241  1
  Se  Se208  1  0.08317033  0.42724825  0.81609731  1
  Se  Se209  1  0.08374233  0.74728242  0.30147382  1
  Se  Se210  1  0.08144384  0.74584080  0.80176760  1
  Se  Se211  1  0.42346296  0.09462172  0.31248146  1
  Se  Se212  1  0.42408101  0.08789210  0.81496580  1
  Se  Se213  1  0.43004469  0.42424938  0.31015303  1
  Se  Se214  1  0.40790451  0.41742855  0.80209150  1
  Se  Se215  1  0.42143760  0.76266980  0.29404421  1
  Se  Se216  1  0.42704901  0.76286812  0.81001117  1
  Se  Se217  1  0.74454982  0.07890196  0.30478714  1
  Se  Se218  1  0.75155325  0.08352558  0.79899246  1
  Se  Se219  1  0.75074632  0.41635682  0.30102850  1
  Se  Se220  1  0.74326703  0.41749539  0.80294166  1
  Se  Se221  1  0.75633343  0.75472581  0.30906392  1
  Se  Se222  1  0.73214470  0.73750276  0.80474120  1
  Se  Se223  1  0.24257773  0.08859651  0.19143556  1
  Se  Se224  1  0.23909016  0.08139053  0.68990874  1
  Se  Se225  1  0.24054696  0.42946795  0.19299187  1
  Se  Se226  1  0.24425166  0.41510754  0.69987674  1
  Se  Se227  1  0.25076822  0.74528227  0.19590085  1
  Se  Se228  1  0.24936359  0.74951709  0.69316300  1
  Se  Se229  1  0.58844535  0.08032732  0.19850933  1
  Se  Se230  1  0.57654519  0.09636140  0.69628442  1
  Se  Se231  1  0.59205578  0.41499640  0.19453227  1
  Se  Se232  1  0.58115126  0.42281132  0.69797386  1
  Se  Se233  1  0.57897894  0.74947931  0.18082763  1
  Se  Se234  1  0.59416086  0.74515703  0.71226754  1
  Se  Se235  1  0.91942610  0.08242129  0.20341864  1
  Se  Se236  1  0.91630087  0.09576750  0.68840482  1
  Se  Se237  1  0.91472623  0.41991151  0.18518799  1
  Se  Se238  1  0.90955473  0.42655904  0.69080838  1
  Se  Se239  1  0.91060489  0.75130900  0.19956989  1
  Se  Se240  1  0.91027920  0.76236537  0.70076605  1
  Se  Se241  1  0.08662716  0.24762243  0.19030285  1
  Se  Se242  1  0.08069941  0.24645024  0.69390772  1
  Se  Se243  1  0.07442667  0.58942928  0.20072043  1
  Se  Se244  1  0.07982915  0.58752680  0.69460469  1
  Se  Se245  1  0.08234546  0.91654626  0.19676328  1
  Se  Se246  1  0.09730512  0.91347249  0.68898149  1
  Se  Se247  1  0.43039208  0.24317180  0.19068544  1
  Se  Se248  1  0.40497975  0.24082779  0.70526961  1
  Se  Se249  1  0.41986398  0.58165268  0.19273613  1
  Se  Se250  1  0.42153583  0.57839989  0.68778123  1
  Se  Se251  1  0.41353107  0.91078854  0.18297876  1
  Se  Se252  1  0.43076787  0.90204437  0.69390218  1
  Se  Se253  1  0.75113603  0.25018302  0.19661959  1
  Se  Se254  1  0.74903333  0.26012801  0.69126952  1
  Se  Se255  1  0.75907738  0.57639261  0.18358159  1
  Se  Se256  1  0.74910544  0.58452102  0.69541425  1
  Se  Se257  1  0.72823599  0.92463417  0.19347067  1
  Se  Se258  1  0.76003205  0.92745194  0.70105648  1
