# generated using pymatgen
data_In86Cu29Se144
_symmetry_space_group_name_H-M   'P 1'
_cell_length_a   17.57692326
_cell_length_b   17.57571254
_cell_length_c   23.43226455
_cell_angle_alpha   90.00143592
_cell_angle_beta   89.99340933
_cell_angle_gamma   90.00980698
_symmetry_Int_Tables_number   1
_chemical_formula_structural   In86Cu29Se144
_chemical_formula_sum   'In86 Cu29 Se144'
_cell_volume   7238.85787812
_cell_formula_units_Z   1
loop_
 _symmetry_equiv_pos_site_id
 _symmetry_equiv_pos_as_xyz
  1  'x, y, z'
loop_
 _atom_site_type_symbol
 _atom_site_label
 _atom_site_symmetry_multiplicity
 _atom_site_fract_x
 _atom_site_fract_y
 _atom_site_fract_z
 _atom_site_occupancy
  In  In0  1  -0.00860547  0.15691056  0.11561154  1
  In  In1  1  -0.00304389  0.18247845  0.62945876  1
  In  In2  1  -0.00142107  0.50756032  0.11859853  1
  In  In3  1  -0.01681530  0.51402940  0.63357448  1
  In  In4  1  0.01223896  0.83902529  0.10825971  1
  In  In5  1  0.00196351  0.81694038  0.62763841  1
  In  In6  1  0.33687909  0.16865438  0.11951623  1
  In  In7  1  0.33182768  0.16338406  0.63340294  1
  In  In8  1  0.33593111  0.47364007  0.12670114  1
  In  In9  1  0.32813963  0.48859390  0.62823825  1
  In  In10  1  0.34623598  0.85325166  0.11590231  1
  In  In11  1  0.33228057  0.84701374  0.62635963  1
  In  In12  1  0.67217802  0.17597987  0.11900230  1
  In  In13  1  0.67003664  0.16001242  0.63299131  1
  In  In14  1  0.66023124  0.49225394  0.11329152  1
  In  In15  1  0.67681650  0.49104229  0.63707761  1
  In  In16  1  0.66396222  0.83033275  0.11524059  1
  In  In17  1  0.65646166  0.83792519  0.65051228  1
  In  In18  1  0.16296391  -0.00029320  0.36472623  1
  In  In19  1  0.17755425  -0.00677620  0.87951612  1
  In  In20  1  0.16584938  0.32881882  0.37203097  1
  In  In21  1  0.15781546  0.32539312  0.87092989  1
  In  In22  1  0.16989231  0.67603609  0.37955378  1
  In  In23  1  0.16505658  0.67553740  0.87686143  1
  In  In24  1  0.49731824  0.01457266  0.36216847  1
  In  In25  1  0.50285176  -0.00117576  0.87602848  1
  In  In26  1  0.49761732  0.32216623  0.36130710  1
  In  In27  1  0.50227927  0.33268494  0.87444313  1
  In  In28  1  0.49348086  0.66648067  0.37390500  1
  In  In29  1  0.50836350  0.65924017  0.88243050  1
  In  In30  1  0.84800708  -0.00187653  0.37379107  1
  In  In31  1  0.81907623  0.01069058  0.88326364  1
  In  In32  1  0.82675813  0.33941015  0.38044644  1
  In  In33  1  0.83126683  0.33294011  0.87503396  1
  In  In34  1  0.82331566  0.66057732  0.37932357  1
  In  In35  1  0.83631382  0.66624119  0.87917359  1
  In  In36  1  0.00488922  0.15628747  0.37528380  1
  In  In37  1  -0.01144272  0.17818573  0.88312265  1
  In  In38  1  -0.00703760  0.49264215  0.37877195  1
  In  In39  1  -0.00741321  0.49165660  0.87009526  1
  In  In40  1  0.00387143  0.84976568  0.37144756  1
  In  In41  1  0.00582357  0.81761354  0.88419244  1
  In  In42  1  0.33811489  0.16757493  0.35982888  1
  In  In43  1  0.33652147  0.16572836  0.87833777  1
  In  In44  1  0.33253901  0.49467995  0.37155316  1
  In  In45  1  0.34903365  0.49882423  0.87719314  1
  In  In46  1  0.32076146  0.83226630  0.37010948  1
  In  In47  1  0.32705357  0.83881066  0.88213181  1
  In  In48  1  0.66339674  0.17889524  0.37224567  1
  In  In49  1  0.66385134  0.16647831  0.87519244  1
  In  In50  1  0.67813497  0.49802818  0.37773805  1
  In  In51  1  0.66892600  0.49835830  0.87451356  1
  In  In52  1  0.67315853  0.83758651  0.37548418  1
  In  In53  1  0.66486300  0.83806685  0.87655630  1
  In  In54  1  0.16678500  0.00121152  0.11925730  1
  In  In55  1  0.17967551  0.00313046  0.62768261  1
  In  In56  1  0.19900894  0.33088849  0.12920514  1
  In  In57  1  0.16686891  0.32766648  0.63348707  1
  In  In58  1  0.15803605  0.67320543  0.11786989  1
  In  In59  1  0.14616713  0.66616451  0.62325615  1
  In  In60  1  0.48985837  -0.00367646  0.12087234  1
  In  In61  1  0.49233721  -0.00161984  0.64025794  1
  In  In62  1  0.50105557  0.33217250  0.11985758  1
  In  In63  1  0.49883384  0.33235713  0.63404811  1
  In  In64  1  0.50325314  0.67324439  0.11440654  1
  In  In65  1  0.50272671  0.68722439  0.63909626  1
  In  In66  1  0.84062113  0.00680712  0.11686195  1
  In  In67  1  0.82158375  0.00148713  0.62903781  1
  In  In68  1  0.82368886  0.32599733  0.11733987  1
  In  In69  1  0.82889914  0.33457107  0.62737878  1
  In  In70  1  0.84411298  0.66427834  0.10273063  1
  In  In71  1  0.83800641  0.66033381  0.63759276  1
  In  In72  1  0.65946759  0.00577833  0.24187919  1
  In  In73  1  -0.00149637  -0.00298364  0.76176616  1
  In  In74  1  0.66611543  0.66095953  0.23313173  1
  In  In75  1  0.50837089  0.49442225  0.51280036  1
  In  In76  1  0.15838597  0.50139226  0.49781489  1
  In  In77  1  0.84273008  0.82121355  0.51131351  1
  In  In78  1  0.33252963  0.66667224  0.75492158  1
  In  In79  1  0.33477742  0.66750043  0.24682450  1
  In  In80  1  0.16881582  0.49714844  0.00381258  1
  In  In81  1  0.16482301  0.16713597  0.49887555  1
  In  In82  1  0.50398319  0.83718955  0.49865134  1
  In  In83  1  0.50128719  0.16729837  0.49094639  1
  In  In84  1  0.00470827  0.32722858  0.24998701  1
  In  In85  1  -0.00046826  0.66690127  0.23893598  1
  Cu  Cu86  1  0.16984415  0.16219802  0.24251569  1
  Cu  Cu87  1  0.67318309  0.66275900  0.51026514  1
  Cu  Cu88  1  0.00141545  -0.00123249  -0.00680468  1
  Cu  Cu89  1  0.33286346  0.00012128  0.49938657  1
  Cu  Cu90  1  0.83214562  0.17261590  0.75568450  1
  Cu  Cu91  1  0.00166365  0.00060447  0.49684634  1
  Cu  Cu92  1  0.49876641  0.16687342  0.75773872  1
  Cu  Cu93  1  0.66921674  0.33298869  0.50104918  1
  Cu  Cu94  1  0.16802694  0.84143263  0.24175890  1
  Cu  Cu95  1  0.83402031  0.16415218  0.24274736  1
  Cu  Cu96  1  0.34137801  0.32913792  -0.00123967  1
  Cu  Cu97  1  0.67507285  -0.00010926  0.50859004  1
  Cu  Cu98  1  0.83125747  0.49903012  0.75544135  1
  Cu  Cu99  1  0.50725440  0.49496212  0.24389803  1
  Cu  Cu100  1  0.50311203  0.49624135  0.75524709  1
  Cu  Cu101  1  0.17212328  0.16458119  0.75513107  1
  Cu  Cu102  1  0.33349509  0.66805611  -0.00243419  1
  Cu  Cu103  1  0.66635136  0.33412320  -0.00674208  1
  Cu  Cu104  1  0.83655726  0.83486335  0.24690929  1
  Cu  Cu105  1  0.82939591  0.49190001  0.24853985  1
  Cu  Cu106  1  -0.01245462  0.34187055  0.50782924  1
  Cu  Cu107  1  0.00156521  0.33133525  -0.00044058  1
  Cu  Cu108  1  0.32898730  0.66772392  0.49740491  1
  Cu  Cu109  1  0.83033176  0.83173871  0.75768073  1
  Cu  Cu110  1  0.66910566  0.66718596  -0.00711554  1
  Cu  Cu111  1  0.16309753  0.49418064  0.74934723  1
  Cu  Cu112  1  0.16553154  0.83176436  0.75584303  1
  Cu  Cu113  1  0.33267310  0.00387784  -0.00089032  1
  Cu  Cu114  1  0.66190150  0.00361422  0.00027509  1
  Se  Se115  1  0.08335225  0.08276496  0.04870686  1
  Se  Se116  1  0.07635200  0.08011659  0.56336130  1
  Se  Se117  1  0.08423723  0.40240731  0.06523740  1
  Se  Se118  1  0.07612277  0.41426143  0.56640670  1
  Se  Se119  1  0.07144440  0.73458177  0.04399235  1
  Se  Se120  1  0.08426662  0.75535469  0.55019273  1
  Se  Se121  1  0.41949884  0.08644385  0.04968010  1
  Se  Se122  1  0.41567053  0.07757572  0.55853551  1
  Se  Se123  1  0.42247680  0.41925155  0.04769478  1
  Se  Se124  1  0.40787761  0.40133334  0.55678135  1
  Se  Se125  1  0.41580765  0.75528751  0.04985842  1
  Se  Se126  1  0.41189411  0.74512131  0.55816432  1
  Se  Se127  1  0.74961536  0.08559845  0.05237096  1
  Se  Se128  1  0.75417276  0.09074552  0.55631896  1
  Se  Se129  1  0.75228513  0.41630049  0.04729693  1
  Se  Se130  1  0.74735384  0.41893262  0.55631397  1
  Se  Se131  1  0.75055835  0.75149222  0.04746578  1
  Se  Se132  1  0.73830301  0.75238900  0.57277605  1
  Se  Se133  1  0.25076879  0.24813770  0.04703330  1
  Se  Se134  1  0.25657470  0.25277640  0.55922687  1
  Se  Se135  1  0.26244929  0.58593691  0.06416298  1
  Se  Se136  1  0.25433706  0.58729982  0.56095621  1
  Se  Se137  1  0.24704816  0.91645299  0.04870968  1
  Se  Se138  1  0.24838219  0.91869070  0.55210118  1
  Se  Se139  1  0.58416309  0.25138585  0.04940704  1
  Se  Se140  1  0.58607642  0.25307986  0.55905731  1
  Se  Se141  1  0.58473392  0.58643489  0.04909603  1
  Se  Se142  1  0.58688839  0.59397141  0.57222399  1
  Se  Se143  1  0.57937572  0.91802116  0.05292399  1
  Se  Se144  1  0.59025658  0.92246154  0.56541646  1
  Se  Se145  1  0.91336787  0.24826293  0.05074057  1
  Se  Se146  1  0.90984058  0.24924146  0.55629975  1
  Se  Se147  1  0.91910562  0.57015745  0.04052328  1
  Se  Se148  1  0.91966237  0.59960557  0.55823079  1
  Se  Se149  1  0.91558780  0.91761712  0.04789235  1
  Se  Se150  1  0.92598570  0.92554006  0.56524055  1
  Se  Se151  1  0.06887510  0.26299290  0.44541966  1
  Se  Se152  1  0.08706179  0.24757607  0.94907506  1
  Se  Se153  1  0.07045218  0.59509377  0.44031000  1
  Se  Se154  1  0.08145607  0.57969436  0.93809361  1
  Se  Se155  1  0.08890743  0.92313443  0.44336862  1
  Se  Se156  1  0.08657666  0.91351042  0.94404563  1
  Se  Se157  1  0.40506042  0.25682736  0.43822033  1
  Se  Se158  1  0.42457359  0.24667241  0.94523019  1
  Se  Se159  1  0.41335126  0.58295135  0.44656539  1
  Se  Se160  1  0.41952281  0.58134347  0.95128343  1
  Se  Se161  1  0.41509594  0.92557491  0.43607297  1
  Se  Se162  1  0.41671167  0.91923352  0.94688017  1
  Se  Se163  1  0.74894147  0.24733891  0.44620365  1
  Se  Se164  1  0.75085293  0.24736255  0.94393400  1
  Se  Se165  1  0.75070543  0.57904654  0.45362765  1
  Se  Se166  1  0.75206041  0.57843184  0.94515048  1
  Se  Se167  1  0.75474669  0.91770443  0.44903990  1
  Se  Se168  1  0.74690889  0.91753728  0.95032032  1
  Se  Se169  1  0.25735990  0.08165390  0.43673446  1
  Se  Se170  1  0.24781837  0.08705218  0.94714691  1
  Se  Se171  1  0.25316646  0.40873901  0.44444831  1
  Se  Se172  1  0.25655141  0.40942351  0.93957899  1
  Se  Se173  1  0.24927287  0.75810430  0.44959263  1
  Se  Se174  1  0.24618745  0.75097084  0.94949781  1
  Se  Se175  1  0.59570085  0.06966036  0.43972814  1
  Se  Se176  1  0.57995416  0.08736510  0.94624617  1
  Se  Se177  1  0.58448339  0.40713132  0.43915164  1
  Se  Se178  1  0.58120854  0.41957274  0.94372799  1
  Se  Se179  1  0.59589419  0.73793548  0.44333478  1
  Se  Se180  1  0.58236849  0.75450707  0.94718330  1
  Se  Se181  1  0.91666373  0.08531624  0.44740847  1
  Se  Se182  1  0.91329765  0.08583569  0.94853022  1
  Se  Se183  1  0.90692338  0.42352770  0.45095669  1
  Se  Se184  1  0.91766446  0.41278394  0.94568568  1
  Se  Se185  1  0.92260821  0.74857158  0.43331850  1
  Se  Se186  1  0.91314028  0.74918470  0.95152444  1
  Se  Se187  1  0.24386160  0.25020029  0.30021521  1
  Se  Se188  1  0.25425050  0.25014474  0.80785011  1
  Se  Se189  1  0.24100410  0.58256153  0.30937376  1
  Se  Se190  1  0.24279724  0.57235232  0.81272230  1
  Se  Se191  1  0.25217507  0.92035209  0.29816287  1
  Se  Se192  1  0.25246338  0.91481011  0.80352470  1
  Se  Se193  1  0.57922569  0.23890536  0.29597208  1
  Se  Se194  1  0.58594430  0.25222156  0.80420242  1
  Se  Se195  1  0.58097094  0.57817723  0.30737775  1
  Se  Se196  1  0.58413563  0.58279335  0.80601921  1
  Se  Se197  1  0.58011742  0.90851484  0.30701828  1
  Se  Se198  1  0.59583031  0.92992513  0.80671277  1
  Se  Se199  1  0.90964037  0.24257008  0.31035036  1
  Se  Se200  1  0.91968820  0.25517502  0.80404716  1
  Se  Se201  1  0.90826739  0.57858077  0.30472643  1
  Se  Se202  1  0.91609932  0.58487334  0.80514244  1
  Se  Se203  1  0.91993085  0.91982242  0.29708973  1
  Se  Se204  1  0.90846984  0.90992265  0.82192269  1
  Se  Se205  1  0.08115005  0.08545067  0.29750943  1
  Se  Se206  1  0.08774178  0.09093440  0.81749463  1
  Se  Se207  1  0.08800424  0.42761053  0.30756309  1
  Se  Se208  1  0.07893010  0.41102805  0.80227244  1
  Se  Se209  1  0.08953037  0.75783609  0.30203629  1
  Se  Se210  1  0.08003222  0.74633567  0.80284675  1
  Se  Se211  1  0.41473716  0.08516647  0.29026231  1
  Se  Se212  1  0.41510668  0.08065787  0.80755488  1
  Se  Se213  1  0.41997205  0.42129129  0.30247164  1
  Se  Se214  1  0.41551817  0.41264582  0.80309036  1
  Se  Se215  1  0.42558465  0.76123322  0.30508153  1
  Se  Se216  1  0.41938758  0.75114554  0.81801645  1
  Se  Se217  1  0.75596221  0.08455703  0.30791914  1
  Se  Se218  1  0.74849790  0.08536710  0.80390895  1
  Se  Se219  1  0.74624177  0.41224096  0.30354971  1
  Se  Se220  1  0.74726759  0.41247595  0.80435768  1
  Se  Se221  1  0.75489972  0.75185749  0.30202133  1
  Se  Se222  1  0.74886514  0.74781887  0.81170058  1
  Se  Se223  1  0.25301833  0.08203732  0.18704220  1
  Se  Se224  1  0.25434372  0.07824753  0.70385586  1
  Se  Se225  1  0.24458222  0.42699195  0.20460910  1
  Se  Se226  1  0.25122937  0.41070912  0.70137461  1
  Se  Se227  1  0.24724862  0.75726147  0.18419360  1
  Se  Se228  1  0.24210556  0.75199699  0.69001232  1
  Se  Se229  1  0.57326542  0.09622630  0.18312671  1
  Se  Se230  1  0.58060842  0.08428080  0.70045911  1
  Se  Se231  1  0.58918776  0.41266102  0.18982922  1
  Se  Se232  1  0.58516653  0.41170943  0.70088607  1
  Se  Se233  1  0.57250647  0.76197406  0.19190461  1
  Se  Se234  1  0.58357256  0.74767666  0.71683327  1
  Se  Se235  1  0.91920540  0.07998393  0.19432322  1
  Se  Se236  1  0.91334064  0.08823511  0.69670461  1
  Se  Se237  1  0.91533039  0.41717477  0.18852644  1
  Se  Se238  1  0.91273691  0.41649698  0.69733023  1
  Se  Se239  1  0.90978314  0.75690069  0.18090007  1
  Se  Se240  1  0.91620263  0.75260038  0.70317951  1
  Se  Se241  1  0.08938102  0.24312262  0.18239150  1
  Se  Se242  1  0.08502380  0.24651002  0.70344370  1
  Se  Se243  1  0.09620549  0.57295961  0.19082908  1
  Se  Se244  1  0.08145354  0.58333740  0.70031570  1
  Se  Se245  1  0.07975209  0.91767645  0.18737182  1
  Se  Se246  1  0.08727099  0.91438999  0.69351761  1
  Se  Se247  1  0.39247925  0.27688437  0.18322222  1
  Se  Se248  1  0.41539151  0.24713326  0.69959335  1
  Se  Se249  1  0.42690951  0.57845684  0.18628808  1
  Se  Se250  1  0.42219479  0.57507438  0.69201790  1
  Se  Se251  1  0.41504433  0.92037298  0.19785849  1
  Se  Se252  1  0.42369472  0.89858113  0.70136254  1
  Se  Se253  1  0.75046585  0.25135089  0.19598646  1
  Se  Se254  1  0.74784148  0.25171653  0.69789680  1
  Se  Se255  1  0.76380521  0.57411922  0.18011035  1
  Se  Se256  1  0.74655765  0.58574374  0.70429341  1
  Se  Se257  1  0.75365595  0.91233949  0.18681554  1
  Se  Se258  1  0.75289855  0.92207932  0.70600340  1
