# generated using pymatgen
data_In86Cu29Se144
_symmetry_space_group_name_H-M   'P 1'
_cell_length_a   17.58910150
_cell_length_b   17.59190641
_cell_length_c   23.44471928
_cell_angle_alpha   90.00947515
_cell_angle_beta   89.99961753
_cell_angle_gamma   90.00357808
_symmetry_Int_Tables_number   1
_chemical_formula_structural   In86Cu29Se144
_chemical_formula_sum   'In86 Cu29 Se144'
_cell_volume   7254.40154913
_cell_formula_units_Z   1
loop_
 _symmetry_equiv_pos_site_id
 _symmetry_equiv_pos_as_xyz
  1  'x, y, z'
loop_
 _atom_site_type_symbol
 _atom_site_label
 _atom_site_symmetry_multiplicity
 _atom_site_fract_x
 _atom_site_fract_y
 _atom_site_fract_z
 _atom_site_occupancy
  In  In0  1  0.01073062  0.17000810  0.12331247  1
  In  In1  1  0.00746806  0.16306562  0.62720904  1
  In  In2  1  -0.00835679  0.49784239  0.11767768  1
  In  In3  1  -0.00013110  0.49870305  0.62764530  1
  In  In4  1  -0.01895272  0.83540838  0.11882287  1
  In  In5  1  -0.00910089  0.82652109  0.63620898  1
  In  In6  1  0.34787620  0.17361112  0.12806459  1
  In  In7  1  0.33180077  0.18680641  0.63009491  1
  In  In8  1  0.31907608  0.49215729  0.11296351  1
  In  In9  1  0.33092694  0.50248836  0.62704702  1
  In  In10  1  0.33732989  0.82467446  0.12329742  1
  In  In11  1  0.31249092  0.82683367  0.63442387  1
  In  In12  1  0.65849018  0.16259689  0.12713696  1
  In  In13  1  0.66154855  0.16439967  0.63882613  1
  In  In14  1  0.67638391  0.51153580  0.11377007  1
  In  In15  1  0.66767091  0.49543465  0.61760116  1
  In  In16  1  0.67880848  0.82164670  0.13315352  1
  In  In17  1  0.69042956  0.81700663  0.64400836  1
  In  In18  1  0.15876186  0.00255752  0.38907999  1
  In  In19  1  0.15293756  -0.00824728  0.86473477  1
  In  In20  1  0.16850445  0.33487360  0.37996279  1
  In  In21  1  0.18006210  0.33963230  0.86164646  1
  In  In22  1  0.16276148  0.66915591  0.39131137  1
  In  In23  1  0.15637723  0.65945705  0.86363202  1
  In  In24  1  0.51440116  -0.00892842  0.38000242  1
  In  In25  1  0.50552972  -0.01236295  0.87423044  1
  In  In26  1  0.49961684  0.35565096  0.37650035  1
  In  In27  1  0.51850795  0.35311437  0.85668080  1
  In  In28  1  0.50384622  0.65206141  0.37770249  1
  In  In29  1  0.48990181  0.64739655  0.86359763  1
  In  In30  1  0.82352546  -0.00312267  0.37667025  1
  In  In31  1  0.83844804  -0.00838507  0.86715536  1
  In  In32  1  0.84284847  0.32771237  0.37695818  1
  In  In33  1  0.84408528  0.34714401  0.86413033  1
  In  In34  1  0.82714087  0.67299539  0.38235634  1
  In  In35  1  0.83326704  0.66483564  0.86675688  1
  In  In36  1  0.00011075  0.17948628  0.37819310  1
  In  In37  1  -0.00256869  0.16886853  0.86346865  1
  In  In38  1  0.01070600  0.49474178  0.38457069  1
  In  In39  1  0.00052911  0.49819167  0.87244016  1
  In  In40  1  -0.00689558  0.83472715  0.38488804  1
  In  In41  1  -0.01102837  0.81728395  0.84970375  1
  In  In42  1  0.31887817  0.16767021  0.37958039  1
  In  In43  1  0.32021013  0.17185412  0.87436488  1
  In  In44  1  0.33983975  0.49598001  0.38222532  1
  In  In45  1  0.33422360  0.50002547  0.87812278  1
  In  In46  1  0.32937807  0.82355472  0.38149073  1
  In  In47  1  0.32847818  0.81939585  0.86400784  1
  In  In48  1  0.67868536  0.15991733  0.37684506  1
  In  In49  1  0.66088395  0.16915209  0.86168190  1
  In  In50  1  0.65696306  0.50680909  0.38732193  1
  In  In51  1  0.66966534  0.50474326  0.86998680  1
  In  In52  1  0.68043071  0.83362947  0.37230699  1
  In  In53  1  0.68388863  0.83415652  0.86090813  1
  In  In54  1  0.15923330  -0.00179965  0.12147567  1
  In  In55  1  0.14335222  -0.01807850  0.62052486  1
  In  In56  1  0.16204775  0.34472552  0.13008433  1
  In  In57  1  0.16729953  0.33670644  0.62423541  1
  In  In58  1  0.17658908  0.65687511  0.12486748  1
  In  In59  1  0.16367045  0.66460442  0.63447627  1
  In  In60  1  0.50968048  0.01107879  0.12734683  1
  In  In61  1  0.51558612  0.00752304  0.62913360  1
  In  In62  1  0.48995848  0.33225200  0.12817545  1
  In  In63  1  0.49266760  0.33687054  0.63184868  1
  In  In64  1  0.51047984  0.67124698  0.11936931  1
  In  In65  1  0.51051762  0.65427590  0.63289042  1
  In  In66  1  0.83280364  -0.02343930  0.11788040  1
  In  In67  1  0.84536175  -0.01094247  0.64052850  1
  In  In68  1  0.83383655  0.34793283  0.12245211  1
  In  In69  1  0.81853898  0.34799337  0.63048978  1
  In  In70  1  0.82849352  0.66475652  0.11939817  1
  In  In71  1  0.83268480  0.66161701  0.62557073  1
  In  In72  1  0.49640177  0.83126045  0.50490255  1
  In  In73  1  0.34115774  0.00972658  0.74287686  1
  In  In74  1  0.82926632  0.17059058  -0.01372318  1
  In  In75  1  0.15109638  0.81668347  -0.01781508  1
  In  In76  1  0.16508163  0.17055433  0.00116085  1
  In  In77  1  0.67030301  0.33606863  0.25424860  1
  In  In78  1  0.34010574  0.65977951  0.25036096  1
  In  In79  1  0.83469168  0.16838029  0.50269564  1
  In  In80  1  -0.00970853  0.00494330  0.25627141  1
  In  In81  1  -0.00643527  0.66468547  0.24555804  1
  In  In82  1  0.50841139  0.82489497  -0.00330900  1
  In  In83  1  0.49770805  0.17063801  0.00107813  1
  In  In84  1  0.33525805  0.00470245  0.24876505  1
  In  In85  1  0.49675610  0.17316683  0.51150328  1
  Cu  Cu86  1  0.17049924  0.17018734  0.74438825  1
  Cu  Cu87  1  0.32671138  0.66837209  0.50765008  1
  Cu  Cu88  1  0.00116987  0.33603841  -0.00394470  1
  Cu  Cu89  1  0.51424847  0.83525000  0.25191340  1
  Cu  Cu90  1  0.32212881  -0.01438922  -0.00113064  1
  Cu  Cu91  1  0.83684609  0.16461168  0.25104361  1
  Cu  Cu92  1  0.83969251  0.49867707  0.24897991  1
  Cu  Cu93  1  -0.00405070  0.66771574  -0.00973819  1
  Cu  Cu94  1  0.00275606  0.33569950  0.50311481  1
  Cu  Cu95  1  0.16470850  0.49689730  0.74796913  1
  Cu  Cu96  1  -0.00378796  -0.00749788  0.50991883  1
  Cu  Cu97  1  0.33631969  0.34011445  -0.00405240  1
  Cu  Cu98  1  0.32334781  -0.00005276  0.50910178  1
  Cu  Cu99  1  0.17134106  0.49321875  0.25637115  1
  Cu  Cu100  1  0.67178444  0.66935383  -0.00706580  1
  Cu  Cu101  1  -0.00034946  0.66777265  0.51000135  1
  Cu  Cu102  1  0.83478140  0.17353790  0.74757556  1
  Cu  Cu103  1  0.16925781  0.18156060  0.25051943  1
  Cu  Cu104  1  0.83162530  0.50091229  0.74683260  1
  Cu  Cu105  1  0.50287056  0.82856246  0.75115679  1
  Cu  Cu106  1  0.50372908  0.50113691  0.24872131  1
  Cu  Cu107  1  0.67405469  -0.00527557  -0.00373785  1
  Cu  Cu108  1  0.33082188  0.33900872  0.50347864  1
  Cu  Cu109  1  0.49864620  0.16881795  0.25478160  1
  Cu  Cu110  1  0.66890781  0.66842154  0.50744241  1
  Cu  Cu111  1  0.50024563  0.50312748  0.74769178  1
  Cu  Cu112  1  0.15951892  0.83754457  0.25646577  1
  Cu  Cu113  1  0.67692081  -0.00477352  0.50719999  1
  Cu  Cu114  1  0.66547664  0.34642824  -0.00756011  1
  Se  Se115  1  0.07061288  0.07093934  0.04970848  1
  Se  Se116  1  0.08220362  0.08269948  0.55216773  1
  Se  Se117  1  0.08300000  0.41687312  0.05353362  1
  Se  Se118  1  0.08494869  0.42036708  0.55585719  1
  Se  Se119  1  0.07304120  0.73887859  0.06194713  1
  Se  Se120  1  0.07996000  0.75084781  0.56673006  1
  Se  Se121  1  0.40490679  0.06908589  0.05495291  1
  Se  Se122  1  0.40735053  0.07595983  0.56625746  1
  Se  Se123  1  0.42105121  0.41617202  0.05438604  1
  Se  Se124  1  0.41551886  0.41771771  0.55864780  1
  Se  Se125  1  0.40742095  0.73712132  0.05038739  1
  Se  Se126  1  0.41045241  0.74408039  0.56863075  1
  Se  Se127  1  0.74534869  0.08380268  0.05570970  1
  Se  Se128  1  0.74946424  0.08148511  0.56673915  1
  Se  Se129  1  0.75468703  0.42070163  0.04751187  1
  Se  Se130  1  0.75579797  0.41995941  0.54822557  1
  Se  Se131  1  0.74951698  0.75307298  0.05093474  1
  Se  Se132  1  0.75338276  0.75299960  0.55677094  1
  Se  Se133  1  0.26121139  0.25674589  0.05988384  1
  Se  Se134  1  0.24896561  0.25152010  0.55321611  1
  Se  Se135  1  0.24601211  0.58405818  0.04737473  1
  Se  Se136  1  0.24433899  0.58518676  0.56045880  1
  Se  Se137  1  0.24258499  0.90523590  0.05731902  1
  Se  Se138  1  0.24428880  0.90992022  0.55863797  1
  Se  Se139  1  0.59341750  0.26322978  0.05652992  1
  Se  Se140  1  0.59429433  0.25771764  0.56455976  1
  Se  Se141  1  0.58609676  0.58853997  0.04713312  1
  Se  Se142  1  0.58039329  0.58320695  0.55195514  1
  Se  Se143  1  0.58915301  0.92213056  0.05892590  1
  Se  Se144  1  0.59274143  0.91379408  0.56338647  1
  Se  Se145  1  0.92017126  0.25445542  0.05483067  1
  Se  Se146  1  0.92053988  0.25832674  0.56427311  1
  Se  Se147  1  0.91612552  0.58732324  0.05075225  1
  Se  Se148  1  0.91536761  0.57956828  0.55703084  1
  Se  Se149  1  0.92004707  0.91838193  0.04259749  1
  Se  Se150  1  0.91147598  0.91049783  0.56151158  1
  Se  Se151  1  0.08529889  0.25059571  0.44986352  1
  Se  Se152  1  0.08068297  0.25670018  0.93550042  1
  Se  Se153  1  0.08218904  0.58315697  0.45627205  1
  Se  Se154  1  0.08234080  0.58401255  0.94148172  1
  Se  Se155  1  0.08099250  0.91153846  0.45273079  1
  Se  Se156  1  0.06456804  0.91479501  0.93251331  1
  Se  Se157  1  0.41119173  0.25699548  0.44227229  1
  Se  Se158  1  0.41304117  0.25688866  0.93635110  1
  Se  Se159  1  0.41082776  0.59069217  0.44972529  1
  Se  Se160  1  0.42461472  0.57717272  0.94507735  1
  Se  Se161  1  0.40633433  0.92746044  0.44486296  1
  Se  Se162  1  0.40619745  0.91115930  0.93936802  1
  Se  Se163  1  0.74128128  0.25881058  0.44536445  1
  Se  Se164  1  0.73863558  0.26318721  0.93078081  1
  Se  Se165  1  0.74997512  0.58474266  0.45067528  1
  Se  Se166  1  0.75442589  0.58447145  0.94029016  1
  Se  Se167  1  0.75421403  0.91170697  0.45038121  1
  Se  Se168  1  0.75406056  0.91447387  0.93929113  1
  Se  Se169  1  0.24610456  0.08614450  0.45312376  1
  Se  Se170  1  0.24725705  0.07021410  0.94008602  1
  Se  Se171  1  0.24779923  0.42172340  0.44881591  1
  Se  Se172  1  0.24502830  0.41452132  0.94358876  1
  Se  Se173  1  0.24630676  0.75633588  0.45599904  1
  Se  Se174  1  0.25693708  0.73302841  0.93731099  1
  Se  Se175  1  0.59289495  0.07817858  0.45200538  1
  Se  Se176  1  0.59037606  0.07792865  0.94251187  1
  Se  Se177  1  0.58156597  0.41582296  0.45319336  1
  Se  Se178  1  0.57978937  0.42627899  0.94011708  1
  Se  Se179  1  0.58839766  0.74594731  0.44289916  1
  Se  Se180  1  0.59258761  0.74410414  0.92733847  1
  Se  Se181  1  0.92466818  0.07445803  0.44155489  1
  Se  Se182  1  0.92613454  0.08026053  0.93740385  1
  Se  Se183  1  0.91742001  0.41373057  0.44730082  1
  Se  Se184  1  0.91568973  0.41855340  0.94450239  1
  Se  Se185  1  0.91588143  0.74736711  0.45213982  1
  Se  Se186  1  0.91866454  0.75198123  0.93397737  1
  Se  Se187  1  0.25455974  0.25701903  0.30690673  1
  Se  Se188  1  0.25928157  0.25136208  0.79404077  1
  Se  Se189  1  0.24225023  0.58412254  0.31467911  1
  Se  Se190  1  0.24935753  0.57526605  0.80456639  1
  Se  Se191  1  0.24552951  0.91582371  0.31261712  1
  Se  Se192  1  0.25064812  0.91656932  0.80060758  1
  Se  Se193  1  0.57908246  0.24666365  0.31672113  1
  Se  Se194  1  0.57379106  0.24558965  0.79552601  1
  Se  Se195  1  0.58780508  0.58004296  0.30446899  1
  Se  Se196  1  0.59030336  0.58609566  0.79682749  1
  Se  Se197  1  0.59406590  0.91978453  0.30600760  1
  Se  Se198  1  0.58579823  0.91448215  0.80157657  1
  Se  Se199  1  0.91904804  0.24979736  0.30183909  1
  Se  Se200  1  0.92139392  0.25811464  0.79695778  1
  Se  Se201  1  0.91561334  0.57642524  0.31411322  1
  Se  Se202  1  0.91863506  0.57930275  0.80130524  1
  Se  Se203  1  0.90476003  0.90447552  0.30777008  1
  Se  Se204  1  0.93168586  0.93062016  0.79363568  1
  Se  Se205  1  0.09351573  0.09255015  0.30870861  1
  Se  Se206  1  0.08705315  0.08842665  0.79862743  1
  Se  Se207  1  0.08343500  0.41448996  0.30849399  1
  Se  Se208  1  0.08067224  0.41333739  0.80174182  1
  Se  Se209  1  0.08349107  0.75146779  0.31315425  1
  Se  Se210  1  0.10211089  0.75971099  0.79354701  1
  Se  Se211  1  0.42424326  0.08499291  0.31779372  1
  Se  Se212  1  0.42222295  0.08735063  0.81742779  1
  Se  Se213  1  0.41468731  0.42427125  0.30219454  1
  Se  Se214  1  0.41203820  0.42190689  0.80087055  1
  Se  Se215  1  0.42731614  0.75799677  0.30979465  1
  Se  Se216  1  0.41607362  0.74277779  0.79768898  1
  Se  Se217  1  0.75248874  0.08108972  0.30215613  1
  Se  Se218  1  0.75871649  0.08830030  0.80620811  1
  Se  Se219  1  0.75843217  0.42566265  0.31397660  1
  Se  Se220  1  0.74634009  0.41677532  0.79954159  1
  Se  Se221  1  0.74631369  0.73858334  0.30509550  1
  Se  Se222  1  0.77176517  0.75817276  0.79141609  1
  Se  Se223  1  0.24084156  0.09432572  0.18861697  1
  Se  Se224  1  0.24078299  0.08428861  0.68131531  1
  Se  Se225  1  0.25625541  0.41845207  0.19695362  1
  Se  Se226  1  0.25112425  0.41522690  0.69554028  1
  Se  Se227  1  0.24237206  0.75721607  0.19808677  1
  Se  Se228  1  0.24294269  0.74545107  0.70853703  1
  Se  Se229  1  0.58433439  0.08635794  0.20388954  1
  Se  Se230  1  0.58229432  0.08095490  0.70798998  1
  Se  Se231  1  0.58519706  0.42229345  0.18764600  1
  Se  Se232  1  0.58363461  0.42127497  0.69297996  1
  Se  Se233  1  0.58576004  0.74385124  0.19716778  1
  Se  Se234  1  0.58706152  0.74384905  0.70044388  1
  Se  Se235  1  0.90930826  0.08760188  0.18317963  1
  Se  Se236  1  0.92084463  0.08933057  0.69847550  1
  Se  Se237  1  0.92184260  0.41613528  0.19508214  1
  Se  Se238  1  0.91661313  0.41474717  0.69690953  1
  Se  Se239  1  0.90123186  0.75907755  0.19442830  1
  Se  Se240  1  0.89242201  0.75499030  0.70166449  1
  Se  Se241  1  0.08077150  0.25578105  0.19526017  1
  Se  Se242  1  0.08497664  0.25336859  0.69401893  1
  Se  Se243  1  0.09189791  0.57297434  0.19386209  1
  Se  Se244  1  0.07669906  0.58170514  0.70064103  1
  Se  Se245  1  0.07977924  0.91169451  0.19344491  1
  Se  Se246  1  0.06845765  0.92084973  0.70234447  1
  Se  Se247  1  0.41598587  0.25396355  0.20472006  1
  Se  Se248  1  0.43481657  0.23321591  0.69850467  1
  Se  Se249  1  0.42475991  0.57576754  0.18344996  1
  Se  Se250  1  0.41215749  0.58568272  0.69798923  1
  Se  Se251  1  0.42816590  0.90912908  0.19146317  1
  Se  Se252  1  0.42598933  0.90758130  0.68650922  1
  Se  Se253  1  0.75777966  0.24524595  0.18892844  1
  Se  Se254  1  0.74675651  0.25510985  0.69907805  1
  Se  Se255  1  0.75665460  0.57825554  0.19238053  1
  Se  Se256  1  0.74496771  0.57813125  0.69149433  1
  Se  Se257  1  0.73702977  0.93196720  0.19183335  1
  Se  Se258  1  0.72552490  0.94260170  0.69353023  1
