# generated using pymatgen
data_In86Cu29Se144
_symmetry_space_group_name_H-M   'P 1'
_cell_length_a   17.71760600
_cell_length_b   17.72686248
_cell_length_c   23.55402041
_cell_angle_alpha   90.01072044
_cell_angle_beta   89.98818938
_cell_angle_gamma   89.99975521
_symmetry_Int_Tables_number   1
_chemical_formula_structural   In86Cu29Se144
_chemical_formula_sum   'In86 Cu29 Se144'
_cell_volume   7397.78909008
_cell_formula_units_Z   1
loop_
 _symmetry_equiv_pos_site_id
 _symmetry_equiv_pos_as_xyz
  1  'x, y, z'
loop_
 _atom_site_type_symbol
 _atom_site_label
 _atom_site_symmetry_multiplicity
 _atom_site_fract_x
 _atom_site_fract_y
 _atom_site_fract_z
 _atom_site_occupancy
  In  In0  1  -0.00700610  0.16458262  0.11424007  1
  In  In1  1  -0.00379857  0.17770534  0.63109162  1
  In  In2  1  0.00081292  0.49565760  0.12200205  1
  In  In3  1  -0.00217597  0.50601888  0.63328998  1
  In  In4  1  -0.01049567  0.81887639  0.11947271  1
  In  In5  1  0.00036521  0.82855291  0.63560759  1
  In  In6  1  0.32049805  0.17332510  0.12119827  1
  In  In7  1  0.33358167  0.16319910  0.62968337  1
  In  In8  1  0.31919291  0.50880831  0.12672194  1
  In  In9  1  0.27910048  0.54156642  0.69817677  1
  In  In10  1  0.28792339  0.78446302  0.06911999  1
  In  In11  1  0.32559262  0.84465818  0.63201861  1
  In  In12  1  0.67936773  0.16615871  0.12350685  1
  In  In13  1  0.66342543  0.16496354  0.62172106  1
  In  In14  1  0.66320729  0.49159352  0.13288352  1
  In  In15  1  0.67365779  0.48679284  0.62400865  1
  In  In16  1  0.66602562  0.83275738  0.11761401  1
  In  In17  1  0.67706925  0.84420865  0.63245374  1
  In  In18  1  0.15642738  -0.00488886  0.37335763  1
  In  In19  1  0.16686258  -0.00223383  0.87749308  1
  In  In20  1  0.16571539  0.34410846  0.37327222  1
  In  In21  1  0.15888132  0.33303376  0.87146463  1
  In  In22  1  0.16958392  0.66785791  0.36341322  1
  In  In23  1  0.16565165  0.67173571  0.88048734  1
  In  In24  1  0.50810588  0.00830032  0.37923024  1
  In  In25  1  0.49283359  -0.01345111  0.86605038  1
  In  In26  1  0.50423231  0.32010956  0.38385069  1
  In  In27  1  0.49501933  0.34370442  0.86794462  1
  In  In28  1  0.48946852  0.67564640  0.37233452  1
  In  In29  1  0.50090485  0.67477800  0.87382215  1
  In  In30  1  0.84593130  0.00308991  0.37804900  1
  In  In31  1  0.83956907  0.00215514  0.87338876  1
  In  In32  1  0.83849386  0.33420981  0.37171269  1
  In  In33  1  0.88760244  0.29094844  0.92707014  1
  In  In34  1  0.83371085  0.65979784  0.37464170  1
  In  In35  1  0.84238149  0.65107066  0.88228371  1
  In  In36  1  -0.01191972  0.16206289  0.37419050  1
  In  In37  1  0.00647203  0.15952972  0.87293149  1
  In  In38  1  -0.00117532  0.49687146  0.36925434  1
  In  In39  1  0.00240627  0.49046520  0.86963799  1
  In  In40  1  0.01636445  0.83603583  0.36889817  1
  In  In41  1  -0.00223866  0.83183659  0.87903299  1
  In  In42  1  0.33471184  0.18081530  0.38101532  1
  In  In43  1  0.32502434  0.15176298  0.86610003  1
  In  In44  1  0.31919892  0.50795896  0.37494182  1
  In  In45  1  0.32334563  0.49412640  0.86328535  1
  In  In46  1  0.32372515  0.82221365  0.37046089  1
  In  In47  1  0.33222294  0.83377345  0.87817882  1
  In  In48  1  0.66558195  0.17063742  0.38149556  1
  In  In49  1  0.68789534  0.17022303  0.87685059  1
  In  In50  1  0.69202294  0.50238809  0.37618181  1
  In  In51  1  0.67629636  0.50571779  0.87602031  1
  In  In52  1  0.66166318  0.83755860  0.37206698  1
  In  In53  1  0.66537205  0.83560916  0.88008228  1
  In  In54  1  0.11724101  -0.03621718  0.05385855  1
  In  In55  1  0.17461521  -0.01132368  0.63163701  1
  In  In56  1  0.13203679  0.30801902  0.09302252  1
  In  In57  1  0.16058293  0.35011655  0.65037160  1
  In  In58  1  0.15727666  0.65560534  0.12224515  1
  In  In59  1  0.15618276  0.67964247  0.63158812  1
  In  In60  1  0.49717933  -0.00954494  0.12042974  1
  In  In61  1  0.49402670  0.01127331  0.63057756  1
  In  In62  1  0.49472909  0.34792664  0.13114307  1
  In  In63  1  0.49915773  0.32974736  0.62513307  1
  In  In64  1  0.47442511  0.66836062  0.12249123  1
  In  In65  1  0.48053700  0.65761276  0.62644139  1
  In  In66  1  0.83241595  -0.00935122  0.11370628  1
  In  In67  1  0.82582026  0.01020331  0.64049230  1
  In  In68  1  0.83243945  0.33284769  0.12517742  1
  In  In69  1  0.84358542  0.33439520  0.62109604  1
  In  In70  1  0.84800629  0.67733110  0.11672753  1
  In  In71  1  0.85117834  0.66446171  0.62573067  1
  In  In72  1  0.66324280  0.66916901  0.75217192  1
  In  In73  1  0.16765315  0.50643025  0.51509818  1
  In  In74  1  0.16875980  0.16343317  0.50631001  1
  In  In75  1  0.32973975  0.34570316  0.25178074  1
  In  In76  1  0.50516745  0.17100941  -0.00824315  1
  In  In77  1  0.66960948  0.33575217  0.75199192  1
  In  In78  1  0.84123760  0.83141171  0.50261617  1
  In  In79  1  0.50077173  0.49042449  0.50555538  1
  In  In80  1  0.33051241  0.00383753  0.23695764  1
  In  In81  1  0.66600140  0.00421346  0.24058744  1
  In  In82  1  0.66864025  0.66515159  0.25379199  1
  In  In83  1  0.49533987  0.51124429  -0.00104257  1
  In  In84  1  0.00283789  -0.00782712  0.23932564  1
  In  In85  1  0.50103562  0.83784715  0.49666886  1
  Cu  Cu86  1  0.66663294  0.33998115  0.00611475  1
  Cu  Cu87  1  0.16288104  0.16308712  0.75193665  1
  Cu  Cu88  1  0.66810343  0.66714043  0.00095524  1
  Cu  Cu89  1  0.83422174  0.49609646  0.75444276  1
  Cu  Cu90  1  0.00638840  0.66335674  0.50452311  1
  Cu  Cu91  1  0.49092666  0.82730312  0.24594586  1
  Cu  Cu92  1  0.67146812  0.00718448  0.50388069  1
  Cu  Cu93  1  0.32257040  0.66915841  0.49942921  1
  Cu  Cu94  1  -0.00025445  0.65627635  -0.00493680  1
  Cu  Cu95  1  0.00208521  -0.00278337  0.50134566  1
  Cu  Cu96  1  -0.00232544  0.32973660  0.49820371  1
  Cu  Cu97  1  0.15942860  0.49715255  0.24375396  1
  Cu  Cu98  1  0.33616522  0.33215875  0.51092691  1
  Cu  Cu99  1  0.16748582  0.82931624  0.23377245  1
  Cu  Cu100  1  0.67383596  0.65926702  0.50088305  1
  Cu  Cu101  1  0.84087565  0.17375041  0.75972176  1
  Cu  Cu102  1  0.32843560  0.33973294  -0.00998344  1
  Cu  Cu103  1  0.83287667  0.17295714  0.24946654  1
  Cu  Cu104  1  0.50363630  0.83550832  0.75238935  1
  Cu  Cu105  1  0.49989224  0.49938574  0.25314493  1
  Cu  Cu106  1  0.66928313  0.00090917  -0.00438123  1
  Cu  Cu107  1  0.33238994  -0.00078444  -0.00346920  1
  Cu  Cu108  1  0.33228420  -0.00223330  0.50686612  1
  Cu  Cu109  1  0.50989334  0.15780257  0.74808602  1
  Cu  Cu110  1  0.15856839  0.17408947  0.23755231  1
  Cu  Cu111  1  0.84090905  0.50001097  0.24806883  1
  Cu  Cu112  1  0.68089552  0.33070697  0.50007480  1
  Cu  Cu113  1  0.16550184  0.83803780  0.75819316  1
  Cu  Cu114  1  0.49991988  0.17046455  0.25662942  1
  Se  Se115  1  0.10350227  0.10923192  0.05518937  1
  Se  Se116  1  0.07841824  0.07590158  0.56514386  1
  Se  Se117  1  0.10262403  0.43900051  0.05419478  1
  Se  Se118  1  0.07753930  0.40525367  0.56246954  1
  Se  Se119  1  0.07688039  0.74071546  0.05225246  1
  Se  Se120  1  0.07837267  0.75456276  0.55762522  1
  Se  Se121  1  0.41404267  0.08583195  0.05547743  1
  Se  Se122  1  0.41349924  0.08385378  0.55593242  1
  Se  Se123  1  0.40583314  0.41381191  0.05594364  1
  Se  Se124  1  0.40572675  0.42061211  0.56940281  1
  Se  Se125  1  0.42913216  0.75770040  0.04540188  1
  Se  Se126  1  0.40817804  0.75011426  0.55515837  1
  Se  Se127  1  0.74972810  0.08111896  0.05235770  1
  Se  Se128  1  0.75640199  0.08386656  0.55962859  1
  Se  Se129  1  0.74738382  0.42106420  0.06076478  1
  Se  Se130  1  0.75937116  0.41694024  0.55292227  1
  Se  Se131  1  0.75192557  0.75156999  0.05257376  1
  Se  Se132  1  0.74694974  0.74347466  0.56195911  1
  Se  Se133  1  0.25258087  0.25253632  0.04518432  1
  Se  Se134  1  0.24635029  0.25900442  0.56784864  1
  Se  Se135  1  0.26149802  0.59858620  0.05363049  1
  Se  Se136  1  0.25851694  0.59417387  0.57035985  1
  Se  Se137  1  0.26098908  0.93112929  0.06790280  1
  Se  Se138  1  0.24753656  0.91273393  0.55327969  1
  Se  Se139  1  0.58159659  0.26053414  0.06302901  1
  Se  Se140  1  0.59099364  0.25872153  0.55604945  1
  Se  Se141  1  0.58720334  0.59153597  0.06549820  1
  Se  Se142  1  0.58938412  0.58821893  0.56227212  1
  Se  Se143  1  0.58671238  0.92019198  0.05160912  1
  Se  Se144  1  0.59071701  0.92310672  0.55961233  1
  Se  Se145  1  0.90909246  0.25327781  0.05089731  1
  Se  Se146  1  0.91819527  0.24503914  0.55199433  1
  Se  Se147  1  0.91642673  0.57947919  0.05362541  1
  Se  Se148  1  0.92289070  0.57837932  0.55419467  1
  Se  Se149  1  0.94298932  0.93352804  0.05750705  1
  Se  Se150  1  0.92075952  0.92350309  0.56508673  1
  Se  Se151  1  0.08287697  0.25259201  0.44008034  1
  Se  Se152  1  0.07430155  0.25642523  0.94116304  1
  Se  Se153  1  0.08481543  0.58502920  0.44126015  1
  Se  Se154  1  0.08307715  0.57812963  0.93946091  1
  Se  Se155  1  0.08387477  0.91553988  0.44716785  1
  Se  Se156  1  0.08649684  0.91533348  0.94768912  1
  Se  Se157  1  0.41684774  0.25020877  0.45572644  1
  Se  Se158  1  0.40931630  0.25611133  0.93409893  1
  Se  Se159  1  0.40937554  0.58914784  0.44486752  1
  Se  Se160  1  0.40578310  0.58778484  0.93333816  1
  Se  Se161  1  0.40599101  0.92342692  0.43622219  1
  Se  Se162  1  0.41815861  0.91796312  0.94546596  1
  Se  Se163  1  0.75890838  0.24927182  0.44213150  1
  Se  Se164  1  0.74644379  0.25355527  0.95489125  1
  Se  Se165  1  0.76280540  0.58142409  0.45164825  1
  Se  Se166  1  0.75004903  0.58007089  0.95237479  1
  Se  Se167  1  0.74477651  0.92261294  0.44279265  1
  Se  Se168  1  0.75355332  0.91968133  0.94281342  1
  Se  Se169  1  0.25550614  0.07527429  0.43934761  1
  Se  Se170  1  0.24997683  0.08315733  0.94542320  1
  Se  Se171  1  0.25632657  0.41148608  0.44940416  1
  Se  Se172  1  0.24513669  0.41962872  0.93775679  1
  Se  Se173  1  0.24112541  0.74671977  0.44142306  1
  Se  Se174  1  0.24254567  0.76237499  0.94912163  1
  Se  Se175  1  0.58440252  0.08705207  0.45088069  1
  Se  Se176  1  0.58950096  0.07702769  0.93339252  1
  Se  Se177  1  0.59867910  0.41335243  0.44135622  1
  Se  Se178  1  0.58486301  0.41370658  0.94363868  1
  Se  Se179  1  0.59309803  0.73895361  0.44273733  1
  Se  Se180  1  0.58484261  0.74725106  0.94619952  1
  Se  Se181  1  0.91918006  0.08307000  0.45142905  1
  Se  Se182  1  0.90303614  0.10079332  0.94047360  1
  Se  Se183  1  0.92248315  0.41530740  0.44147453  1
  Se  Se184  1  0.90122774  0.43532737  0.93933746  1
  Se  Se185  1  0.93040040  0.74409899  0.43968135  1
  Se  Se186  1  0.91754215  0.74550487  0.94677066  1
  Se  Se187  1  0.23956453  0.24349434  0.30531495  1
  Se  Se188  1  0.24520213  0.24506333  0.80610601  1
  Se  Se189  1  0.24737521  0.57862397  0.29625766  1
  Se  Se190  1  0.25173384  0.59741167  0.80512837  1
  Se  Se191  1  0.23956357  0.91103374  0.30079189  1
  Se  Se192  1  0.25352786  0.91902863  0.80862333  1
  Se  Se193  1  0.58521714  0.24933493  0.30883342  1
  Se  Se194  1  0.58065398  0.24155693  0.81175407  1
  Se  Se195  1  0.57796997  0.57643397  0.31677649  1
  Se  Se196  1  0.57716288  0.57384176  0.80959800  1
  Se  Se197  1  0.56909984  0.91356921  0.30182252  1
  Se  Se198  1  0.59122062  0.91447939  0.80348556  1
  Se  Se199  1  0.92064814  0.24930554  0.30295541  1
  Se  Se200  1  0.91518661  0.25549090  0.81927670  1
  Se  Se201  1  0.91807266  0.58514879  0.30418367  1
  Se  Se202  1  0.91871008  0.58133883  0.80368021  1
  Se  Se203  1  0.91234612  0.91046810  0.30720237  1
  Se  Se204  1  0.92380976  0.91843202  0.80925121  1
  Se  Se205  1  0.08713251  0.09025467  0.30274203  1
  Se  Se206  1  0.08491118  0.07521497  0.80429799  1
  Se  Se207  1  0.08193899  0.41356481  0.30131334  1
  Se  Se208  1  0.09270499  0.42145687  0.79844938  1
  Se  Se209  1  0.08791526  0.75252255  0.29616004  1
  Se  Se210  1  0.08458154  0.75255341  0.81008376  1
  Se  Se211  1  0.41592558  0.08988635  0.31071132  1
  Se  Se212  1  0.42057917  0.08089829  0.80102916  1
  Se  Se213  1  0.42336862  0.42248414  0.32013656  1
  Se  Se214  1  0.41206299  0.41504839  0.79775144  1
  Se  Se215  1  0.40687017  0.74597476  0.29897871  1
  Se  Se216  1  0.41882016  0.75702089  0.80631880  1
  Se  Se217  1  0.75638232  0.08580594  0.30828142  1
  Se  Se218  1  0.75433168  0.08554186  0.80339277  1
  Se  Se219  1  0.75623291  0.41785603  0.30167167  1
  Se  Se220  1  0.76024457  0.41480555  0.81554935  1
  Se  Se221  1  0.75730846  0.76062417  0.31030666  1
  Se  Se222  1  0.75447238  0.74473281  0.81705902  1
  Se  Se223  1  0.23343676  0.08760991  0.18307607  1
  Se  Se224  1  0.24777833  0.08316925  0.69619406  1
  Se  Se225  1  0.23539172  0.41278381  0.18467047  1
  Se  Se226  1  0.28440604  0.39535988  0.69245125  1
  Se  Se227  1  0.24963898  0.75030952  0.17589560  1
  Se  Se228  1  0.24567982  0.75833465  0.69807902  1
  Se  Se229  1  0.57009942  0.09438896  0.18715446  1
  Se  Se230  1  0.59434023  0.07809062  0.69465527  1
  Se  Se231  1  0.58198479  0.41323499  0.20471149  1
  Se  Se232  1  0.57703696  0.42432550  0.69392587  1
  Se  Se233  1  0.57818193  0.75032872  0.19011392  1
  Se  Se234  1  0.57480073  0.75592118  0.68536142  1
  Se  Se235  1  0.90458113  0.08572227  0.18905190  1
  Se  Se236  1  0.91878779  0.09194696  0.70016943  1
  Se  Se237  1  0.91772641  0.41464264  0.19218084  1
  Se  Se238  1  0.91525336  0.41589527  0.69556357  1
  Se  Se239  1  0.91037826  0.75399784  0.19655655  1
  Se  Se240  1  0.92514080  0.73644801  0.70038813  1
  Se  Se241  1  0.07227676  0.25184006  0.18459100  1
  Se  Se242  1  0.07970924  0.25135417  0.70337344  1
  Se  Se243  1  0.07466069  0.58247058  0.19544833  1
  Se  Se244  1  0.10951509  0.56321562  0.69079914  1
  Se  Se245  1  0.09253608  0.91341347  0.17519125  1
  Se  Se246  1  0.08359415  0.91655145  0.69917152  1
  Se  Se247  1  0.41698318  0.24629273  0.19493965  1
  Se  Se248  1  0.42724738  0.23980538  0.69389596  1
  Se  Se249  1  0.41649278  0.57464361  0.19575440  1
  Se  Se250  1  0.42109938  0.58581227  0.70754562  1
  Se  Se251  1  0.41340840  0.90500786  0.18472314  1
  Se  Se252  1  0.42122901  0.91711350  0.69523825  1
  Se  Se253  1  0.74710585  0.25185086  0.19587845  1
  Se  Se254  1  0.75890438  0.24552542  0.69205087  1
  Se  Se255  1  0.75792763  0.58151965  0.19042226  1
  Se  Se256  1  0.75502849  0.57612273  0.69248392  1
  Se  Se257  1  0.75609381  0.90803312  0.19093300  1
  Se  Se258  1  0.77311227  0.90012414  0.70078643  1
