# generated using pymatgen
data_In86Cu29Se144
_symmetry_space_group_name_H-M   'P 1'
_cell_length_a   17.57282159
_cell_length_b   17.57180797
_cell_length_c   23.42956932
_cell_angle_alpha   89.97394523
_cell_angle_beta   90.01350704
_cell_angle_gamma   89.98458363
_symmetry_Int_Tables_number   1
_chemical_formula_structural   In86Cu29Se144
_chemical_formula_sum   'In86 Cu29 Se144'
_cell_volume   7234.72755624
_cell_formula_units_Z   1
loop_
 _symmetry_equiv_pos_site_id
 _symmetry_equiv_pos_as_xyz
  1  'x, y, z'
loop_
 _atom_site_type_symbol
 _atom_site_label
 _atom_site_symmetry_multiplicity
 _atom_site_fract_x
 _atom_site_fract_y
 _atom_site_fract_z
 _atom_site_occupancy
  In  In0  1  0.01156562  0.17930436  0.12227578  1
  In  In1  1  -0.00441645  0.15902681  0.63034182  1
  In  In2  1  0.00240407  0.49712960  0.12094228  1
  In  In3  1  0.00700736  0.49053056  0.62703028  1
  In  In4  1  -0.01097105  0.82102476  0.12287930  1
  In  In5  1  0.01614275  0.83998424  0.62969161  1
  In  In6  1  0.32545908  0.16463957  0.12817669  1
  In  In7  1  0.33124134  0.16578607  0.62392066  1
  In  In8  1  0.34392993  0.50014819  0.10927365  1
  In  In9  1  0.32410920  0.50685491  0.62229722  1
  In  In10  1  0.33445905  0.83768519  0.12514070  1
  In  In11  1  0.34427162  0.83208634  0.63088995  1
  In  In12  1  0.66956048  0.15316668  0.13236521  1
  In  In13  1  0.66851460  0.17929167  0.62922241  1
  In  In14  1  0.65872481  0.49083634  0.11650853  1
  In  In15  1  0.66502349  0.49644398  0.64261352  1
  In  In16  1  0.67539448  0.84000093  0.12088803  1
  In  In17  1  0.65144090  0.83388868  0.63301420  1
  In  In18  1  0.17665889  0.00297914  0.37221319  1
  In  In19  1  0.16832355  0.00666679  0.88131056  1
  In  In20  1  0.16061900  0.34366142  0.37872360  1
  In  In21  1  0.18514981  0.31706674  0.89139194  1
  In  In22  1  0.16908786  0.66463628  0.36126440  1
  In  In23  1  0.17648126  0.66362798  0.88658939  1
  In  In24  1  0.50771918  0.02392909  0.34637717  1
  In  In25  1  0.48507833  0.00662053  0.87681398  1
  In  In26  1  0.49159185  0.30388095  0.36426344  1
  In  In27  1  0.50474276  0.34636444  0.86502583  1
  In  In28  1  0.49664488  0.67944630  0.36471926  1
  In  In29  1  0.51300638  0.65541779  0.88551103  1
  In  In30  1  0.83638257  0.01341188  0.36712208  1
  In  In31  1  0.84049530  -0.00721796  0.88611492  1
  In  In32  1  0.82988563  0.32414495  0.35979628  1
  In  In33  1  0.82772452  0.34130586  0.88627233  1
  In  In34  1  0.83279996  0.65255153  0.36635741  1
  In  In35  1  0.82408248  0.66984793  0.88269773  1
  In  In36  1  0.00039415  0.18031775  0.37171564  1
  In  In37  1  0.00582316  0.15847559  0.88301692  1
  In  In38  1  0.01207892  0.50730329  0.36039378  1
  In  In39  1  0.00687882  0.49002621  0.88480813  1
  In  In40  1  0.01305066  0.83443341  0.36239129  1
  In  In41  1  -0.00411687  0.84346937  0.88667677  1
  In  In42  1  0.33348544  0.16132638  0.37957616  1
  In  In43  1  0.32688949  0.16012617  0.86919958  1
  In  In44  1  0.31607159  0.49250278  0.37028161  1
  In  In45  1  0.35021341  0.47747186  0.90001124  1
  In  In46  1  0.35529593  0.84674234  0.34511829  1
  In  In47  1  0.32624784  0.84260946  0.88779281  1
  In  In48  1  0.65574959  0.15859221  0.35440611  1
  In  In49  1  0.66888417  0.17940285  0.87456523  1
  In  In50  1  0.67832374  0.49374265  0.37191411  1
  In  In51  1  0.66127436  0.50270938  0.87818194  1
  In  In52  1  0.65007510  0.84291552  0.36478747  1
  In  In53  1  0.67808266  0.82134389  0.88623702  1
  In  In54  1  0.18471879  0.01731532  0.12400134  1
  In  In55  1  0.15748749  0.00817675  0.63332359  1
  In  In56  1  0.16427048  0.31490057  0.11253217  1
  In  In57  1  0.17387811  0.33934124  0.61840424  1
  In  In58  1  0.16481921  0.66505320  0.12287031  1
  In  In59  1  0.17836347  0.66245571  0.62392232  1
  In  In60  1  0.51366068  -0.01267100  0.14562523  1
  In  In61  1  0.48372963  -0.00464697  0.62804553  1
  In  In62  1  0.49070722  0.34503533  0.12192331  1
  In  In63  1  0.51178641  0.32280464  0.63054112  1
  In  In64  1  0.49036164  0.66164051  0.11957456  1
  In  In65  1  0.50268563  0.67384420  0.63362961  1
  In  In66  1  0.82069255  -0.01408167  0.11848736  1
  In  In67  1  0.83758042  0.02113303  0.63712575  1
  In  In68  1  0.83432220  0.33322838  0.11849092  1
  In  In69  1  0.81835197  0.31998713  0.63345718  1
  In  In70  1  0.84558783  0.67629023  0.12137301  1
  In  In71  1  0.83184033  0.65254932  0.63144355  1
  In  In72  1  -0.00525201  0.67552373  0.76359605  1
  In  In73  1  -0.00439058  -0.00539880  0.24357113  1
  In  In74  1  0.84211177  0.48962035  0.50149086  1
  In  In75  1  0.66443388  -0.00104978  0.75686057  1
  In  In76  1  0.83403396  0.17445156  0.50580243  1
  In  In77  1  0.49713789  0.16858967  0.00270453  1
  In  In78  1  0.33093134  0.33355183  0.24527334  1
  In  In79  1  0.17755626  0.83260790  0.49328944  1
  In  In80  1  0.48967238  0.83855616  0.49393395  1
  In  In81  1  -0.00663131  0.32957710  0.75312492  1
  In  In82  1  0.33909950  0.66286189  0.75230022  1
  In  In83  1  0.83667242  0.83576232  0.49171863  1
  In  In84  1  0.67103023  0.66999596  0.24004892  1
  In  In85  1  0.49678126  0.49405990  0.49823780  1
  Cu  Cu86  1  0.00273221  0.00258591  0.50861837  1
  Cu  Cu87  1  0.33132398  0.32705678  0.49779325  1
  Cu  Cu88  1  0.32502174  0.66137154  0.49050924  1
  Cu  Cu89  1  -0.00238935  0.66688518  0.00045319  1
  Cu  Cu90  1  0.50048239  0.82682824  0.76010928  1
  Cu  Cu91  1  0.32918683  0.67568647  0.00348968  1
  Cu  Cu92  1  0.66627386  0.33345487  -0.00161890  1
  Cu  Cu93  1  0.17256690  0.16903569  0.75453372  1
  Cu  Cu94  1  0.66338383  0.66397600  0.00601081  1
  Cu  Cu95  1  0.00043072  0.33249488  0.00025099  1
  Cu  Cu96  1  0.84255520  0.49460447  0.24254663  1
  Cu  Cu97  1  0.16206761  0.82564809  0.23888057  1
  Cu  Cu98  1  0.33592044  0.00136525  0.00407794  1
  Cu  Cu99  1  0.49186493  0.16665340  0.75161944  1
  Cu  Cu100  1  0.50062098  0.50268000  0.24295707  1
  Cu  Cu101  1  0.65998927  0.32788090  0.49797568  1
  Cu  Cu102  1  0.65624004  0.01071256  0.48884334  1
  Cu  Cu103  1  0.16682920  0.49836537  0.24059799  1
  Cu  Cu104  1  0.16347307  0.49997069  0.75233348  1
  Cu  Cu105  1  0.83415344  0.16748441  0.24075400  1
  Cu  Cu106  1  0.00411321  0.00143809  0.00848569  1
  Cu  Cu107  1  0.66473254  -0.00162083  0.00403864  1
  Cu  Cu108  1  0.01220990  0.65992778  0.48688385  1
  Cu  Cu109  1  0.00868118  0.34059911  0.49586066  1
  Cu  Cu110  1  0.33022331  0.00462225  0.50015918  1
  Cu  Cu111  1  0.16849047  0.84818576  0.75897629  1
  Cu  Cu112  1  0.66712028  0.67059767  0.51003288  1
  Cu  Cu113  1  0.82018199  0.50000742  0.75791157  1
  Cu  Cu114  1  0.83581306  0.83639138  0.76202575  1
  Se  Se115  1  0.08972505  0.08758352  0.05628153  1
  Se  Se116  1  0.08437865  0.08958404  0.55793933  1
  Se  Se117  1  0.08692814  0.41414945  0.05267498  1
  Se  Se118  1  0.08881016  0.42490648  0.55091811  1
  Se  Se119  1  0.08119007  0.74964544  0.05414276  1
  Se  Se120  1  0.08164896  0.74344528  0.55435113  1
  Se  Se121  1  0.42018375  0.07402263  0.06684945  1
  Se  Se122  1  0.41781112  0.08251087  0.55493412  1
  Se  Se123  1  0.41463224  0.40750598  0.04134641  1
  Se  Se124  1  0.41022356  0.40686442  0.56165872  1
  Se  Se125  1  0.41753583  0.75707289  0.05393378  1
  Se  Se126  1  0.40741112  0.73622669  0.55500035  1
  Se  Se127  1  0.74863617  0.08447163  0.05372884  1
  Se  Se128  1  0.74070111  0.07543332  0.55786828  1
  Se  Se129  1  0.75146862  0.41801676  0.04967885  1
  Se  Se130  1  0.73993043  0.40816758  0.55957560  1
  Se  Se131  1  0.75057328  0.74827196  0.05443538  1
  Se  Se132  1  0.75006496  0.75219986  0.56478414  1
  Se  Se133  1  0.26876140  0.25128398  0.05061403  1
  Se  Se134  1  0.24690824  0.24529867  0.55295064  1
  Se  Se135  1  0.24888496  0.58521744  0.05238351  1
  Se  Se136  1  0.24360966  0.58077243  0.54635933  1
  Se  Se137  1  0.24874458  0.91948014  0.05537427  1
  Se  Se138  1  0.25762548  0.91933466  0.56336349  1
  Se  Se139  1  0.59074223  0.25412815  0.06330167  1
  Se  Se140  1  0.58169853  0.24224679  0.55255661  1
  Se  Se141  1  0.57567288  0.57888713  0.05242340  1
  Se  Se142  1  0.58625054  0.58488814  0.56313480  1
  Se  Se143  1  0.57928393  0.92054218  0.05958769  1
  Se  Se144  1  0.58711262  0.92462212  0.55469484  1
  Se  Se145  1  0.91763402  0.24646636  0.05207080  1
  Se  Se146  1  0.92766507  0.26754160  0.56232227  1
  Se  Se147  1  0.91604017  0.58186984  0.05403564  1
  Se  Se148  1  0.93102768  0.59111739  0.55638925  1
  Se  Se149  1  0.91723531  0.91379298  0.05392136  1
  Se  Se150  1  0.91814271  0.92205793  0.56427763  1
  Se  Se151  1  0.08551675  0.24856359  0.44585293  1
  Se  Se152  1  0.08493249  0.24519908  0.95145958  1
  Se  Se153  1  0.09558229  0.57865660  0.43540711  1
  Se  Se154  1  0.08282808  0.58426806  0.94839025  1
  Se  Se155  1  0.07546406  0.92341958  0.44259224  1
  Se  Se156  1  0.08721308  0.92183336  0.95063430  1
  Se  Se157  1  0.41788646  0.24437394  0.44836249  1
  Se  Se158  1  0.41877384  0.25039476  0.93079105  1
  Se  Se159  1  0.41395754  0.58693228  0.43283418  1
  Se  Se160  1  0.41343495  0.59050381  0.95211865  1
  Se  Se161  1  0.40737764  0.92959623  0.43234586  1
  Se  Se162  1  0.42192719  0.91903232  0.95199432  1
  Se  Se163  1  0.74479798  0.25149796  0.43712513  1
  Se  Se164  1  0.75124409  0.24583373  0.95147148  1
  Se  Se165  1  0.74597357  0.58835680  0.44881307  1
  Se  Se166  1  0.74598503  0.58173457  0.94913462  1
  Se  Se167  1  0.74035285  0.92883732  0.43498423  1
  Se  Se168  1  0.75109928  0.91454874  0.95238706  1
  Se  Se169  1  0.24261131  0.08544964  0.44925916  1
  Se  Se170  1  0.25544411  0.08742331  0.94990632  1
  Se  Se171  1  0.24965222  0.41662363  0.45031864  1
  Se  Se172  1  0.22501370  0.43675386  0.94727465  1
  Se  Se173  1  0.26429188  0.75146179  0.42648265  1
  Se  Se174  1  0.24229084  0.75986222  0.95487359  1
  Se  Se175  1  0.57474184  0.09014747  0.43243374  1
  Se  Se176  1  0.59000394  0.07869812  0.94030723  1
  Se  Se177  1  0.58487178  0.40747300  0.43384875  1
  Se  Se178  1  0.58043603  0.41432228  0.94592046  1
  Se  Se179  1  0.58998324  0.74432727  0.44307081  1
  Se  Se180  1  0.58249096  0.75132842  0.95289541  1
  Se  Se181  1  0.92305329  0.08089809  0.44542026  1
  Se  Se182  1  0.91871947  0.08198859  0.95316906  1
  Se  Se183  1  0.92335554  0.40859545  0.43050419  1
  Se  Se184  1  0.91501625  0.42039554  0.95370686  1
  Se  Se185  1  0.92748612  0.74118045  0.43272405  1
  Se  Se186  1  0.91323106  0.75094140  0.94724723  1
  Se  Se187  1  0.24546696  0.25188302  0.31423482  1
  Se  Se188  1  0.25338708  0.25781083  0.80400436  1
  Se  Se189  1  0.25342197  0.57899584  0.29456086  1
  Se  Se190  1  0.24678526  0.57757849  0.81134377  1
  Se  Se191  1  0.23581723  0.90803580  0.30057769  1
  Se  Se192  1  0.25579259  0.92538241  0.81200851  1
  Se  Se193  1  0.60456083  0.27439580  0.29942091  1
  Se  Se194  1  0.57856568  0.24676628  0.80345091  1
  Se  Se195  1  0.58330348  0.57788418  0.30653138  1
  Se  Se196  1  0.58207390  0.58382098  0.80609920  1
  Se  Se197  1  0.56111101  0.90659137  0.29383789  1
  Se  Se198  1  0.57951301  0.90910222  0.81989864  1
  Se  Se199  1  0.92057965  0.24798069  0.29369727  1
  Se  Se200  1  0.91094688  0.24612506  0.82046915  1
  Se  Se201  1  0.92014282  0.58389869  0.29461880  1
  Se  Se202  1  0.91153909  0.57226557  0.81547475  1
  Se  Se203  1  0.90434919  0.90570830  0.30579708  1
  Se  Se204  1  0.92102027  0.91994386  0.80918656  1
  Se  Se205  1  0.08202714  0.08466127  0.30766599  1
  Se  Se206  1  0.08820171  0.08712647  0.80757220  1
  Se  Se207  1  0.08729546  0.41270727  0.29663438  1
  Se  Se208  1  0.09078029  0.41245015  0.81147968  1
  Se  Se209  1  0.08001752  0.74232463  0.29307234  1
  Se  Se210  1  0.09443504  0.76018150  0.81772844  1
  Se  Se211  1  0.38739553  0.07700975  0.29778233  1
  Se  Se212  1  0.40959319  0.07809130  0.79862586  1
  Se  Se213  1  0.42454516  0.42249376  0.30906223  1
  Se  Se214  1  0.40322384  0.42142100  0.80766578  1
  Se  Se215  1  0.41461848  0.73864364  0.28670723  1
  Se  Se216  1  0.41725957  0.75172877  0.82093958  1
  Se  Se217  1  0.75202282  0.08092782  0.29302725  1
  Se  Se218  1  0.75639806  0.08321585  0.81619637  1
  Se  Se219  1  0.75258231  0.41764157  0.29576885  1
  Se  Se220  1  0.74365604  0.41215952  0.81145947  1
  Se  Se221  1  0.75320644  0.75622520  0.31045448  1
  Se  Se222  1  0.75047474  0.74876698  0.80586672  1
  Se  Se223  1  0.25306991  0.08804799  0.20659865  1
  Se  Se224  1  0.25111884  0.08422240  0.69665062  1
  Se  Se225  1  0.24804471  0.42050931  0.17924998  1
  Se  Se226  1  0.24553299  0.42301690  0.69288535  1
  Se  Se227  1  0.25229947  0.74596262  0.19015087  1
  Se  Se228  1  0.24104512  0.75985651  0.69768143  1
  Se  Se229  1  0.58078646  0.08951491  0.20642062  1
  Se  Se230  1  0.57557812  0.08523504  0.69142345  1
  Se  Se231  1  0.58136038  0.41596824  0.19279102  1
  Se  Se232  1  0.58663314  0.40516773  0.70212412  1
  Se  Se233  1  0.57650649  0.75473483  0.18355500  1
  Se  Se234  1  0.58630320  0.74649032  0.70718377  1
  Se  Se235  1  0.91237507  0.08538915  0.18018735  1
  Se  Se236  1  0.91879633  0.09342922  0.70910339  1
  Se  Se237  1  0.92285490  0.40882248  0.18943771  1
  Se  Se238  1  0.90139621  0.42570080  0.69313952  1
  Se  Se239  1  0.91059444  0.75359500  0.20120581  1
  Se  Se240  1  0.91108182  0.75939401  0.69162218  1
  Se  Se241  1  0.09700251  0.24757543  0.19603524  1
  Se  Se242  1  0.09157126  0.24851543  0.69157675  1
  Se  Se243  1  0.08027211  0.58312818  0.19182620  1
  Se  Se244  1  0.08413947  0.58646156  0.69678256  1
  Se  Se245  1  0.08965158  0.91478029  0.18055435  1
  Se  Se246  1  0.07902480  0.92492785  0.70555187  1
  Se  Se247  1  0.42724961  0.24364332  0.19173792  1
  Se  Se248  1  0.41293685  0.24987014  0.69317251  1
  Se  Se249  1  0.41142665  0.57758548  0.19033262  1
  Se  Se250  1  0.42680702  0.57047491  0.69082122  1
  Se  Se251  1  0.39546239  0.93322239  0.19668349  1
  Se  Se252  1  0.41912601  0.91053594  0.70507130  1
  Se  Se253  1  0.75052844  0.25248009  0.18967775  1
  Se  Se254  1  0.75248601  0.23707389  0.70763918  1
  Se  Se255  1  0.75687578  0.57337204  0.18329860  1
  Se  Se256  1  0.74344979  0.59057713  0.70542839  1
  Se  Se257  1  0.74350385  0.92095731  0.19802753  1
  Se  Se258  1  0.75770205  0.91109868  0.69258069  1
