# generated using pymatgen
data_In86Cu29Se144
_symmetry_space_group_name_H-M   'P 1'
_cell_length_a   17.57654915
_cell_length_b   17.57527535
_cell_length_c   23.44218286
_cell_angle_alpha   90.00259414
_cell_angle_beta   90.00245185
_cell_angle_gamma   90.02367345
_symmetry_Int_Tables_number   1
_chemical_formula_structural   In86Cu29Se144
_chemical_formula_sum   'In86 Cu29 Se144'
_cell_volume   7241.58715842
_cell_formula_units_Z   1
loop_
 _symmetry_equiv_pos_site_id
 _symmetry_equiv_pos_as_xyz
  1  'x, y, z'
loop_
 _atom_site_type_symbol
 _atom_site_label
 _atom_site_symmetry_multiplicity
 _atom_site_fract_x
 _atom_site_fract_y
 _atom_site_fract_z
 _atom_site_occupancy
  In  In0  1  0.01225957  0.16077559  0.12606987  1
  In  In1  1  -0.01255188  0.16790343  0.62473769  1
  In  In2  1  -0.01311249  0.51727696  0.13636274  1
  In  In3  1  -0.03077861  0.50264955  0.62117677  1
  In  In4  1  -0.00921027  0.82610839  0.11787187  1
  In  In5  1  0.00884048  0.83277262  0.62735483  1
  In  In6  1  0.32737642  0.16997521  0.12652043  1
  In  In7  1  0.34225667  0.15369749  0.63332741  1
  In  In8  1  0.32850967  0.49443449  0.12766369  1
  In  In9  1  0.33513923  0.50176682  0.63163088  1
  In  In10  1  0.34478349  0.84446089  0.11701519  1
  In  In11  1  0.33767234  0.82912627  0.63195141  1
  In  In12  1  0.66733847  0.16542422  0.13279958  1
  In  In13  1  0.65657711  0.15954556  0.61303670  1
  In  In14  1  0.68005049  0.48785313  0.13710364  1
  In  In15  1  0.67943495  0.49536499  0.62317046  1
  In  In16  1  0.66395316  0.83544322  0.12937185  1
  In  In17  1  0.65515845  0.84527308  0.63057083  1
  In  In18  1  0.16987332  -0.01782115  0.36810081  1
  In  In19  1  0.16787307  -0.00117345  0.87729250  1
  In  In20  1  0.17214706  0.33618803  0.36675522  1
  In  In21  1  0.17084611  0.32152433  0.87935819  1
  In  In22  1  0.15528564  0.67322011  0.36640905  1
  In  In23  1  0.17971771  0.66838099  0.87597154  1
  In  In24  1  0.50254116  0.00066218  0.37643030  1
  In  In25  1  0.49911891  -0.00372392  0.87251262  1
  In  In26  1  0.49379570  0.32783294  0.36662615  1
  In  In27  1  0.49880920  0.34549495  0.87418536  1
  In  In28  1  0.51554424  0.66600097  0.37573876  1
  In  In29  1  0.51292391  0.67834671  0.86906978  1
  In  In30  1  0.83253122  0.01708637  0.37557633  1
  In  In31  1  0.81859354  -0.01711205  0.86409061  1
  In  In32  1  0.82861778  0.33231841  0.37085817  1
  In  In33  1  0.84074487  0.33212382  0.88593979  1
  In  In34  1  0.82383909  0.66373555  0.36690166  1
  In  In35  1  0.82272536  0.67792615  0.88487663  1
  In  In36  1  -0.01973944  0.16771080  0.37585139  1
  In  In37  1  0.01460530  0.16626418  0.88195584  1
  In  In38  1  -0.00503693  0.49445999  0.36784110  1
  In  In39  1  -0.01072099  0.49018858  0.87941224  1
  In  In40  1  -0.00596307  0.81899016  0.35897829  1
  In  In41  1  -0.01220796  0.84447739  0.88407025  1
  In  In42  1  0.34609065  0.17404369  0.37160094  1
  In  In43  1  0.33120893  0.15522562  0.86832886  1
  In  In44  1  0.35513548  0.49322180  0.36907779  1
  In  In45  1  0.33704561  0.50539027  0.86621674  1
  In  In46  1  0.32785402  0.85238516  0.37251813  1
  In  In47  1  0.33572539  0.83544346  0.87588785  1
  In  In48  1  0.66663532  0.16654641  0.37303176  1
  In  In49  1  0.67680268  0.15772635  0.87734492  1
  In  In50  1  0.66904908  0.51047263  0.36315977  1
  In  In51  1  0.66045605  0.51315899  0.88010159  1
  In  In52  1  0.66040086  0.82064120  0.36369754  1
  In  In53  1  0.66885331  0.83473253  0.87922838  1
  In  In54  1  0.17103156  0.00878275  0.11487946  1
  In  In55  1  0.17045229  -0.00673025  0.63610066  1
  In  In56  1  0.17102299  0.32142761  0.13188694  1
  In  In57  1  0.17316550  0.34298306  0.62375372  1
  In  In58  1  0.15396222  0.67019331  0.12609769  1
  In  In59  1  0.16569347  0.67692992  0.62727150  1
  In  In60  1  0.51260031  -0.01529325  0.13180004  1
  In  In61  1  0.50020425  -0.00008033  0.62398845  1
  In  In62  1  0.50808899  0.32877939  0.14016048  1
  In  In63  1  0.50458953  0.31117681  0.62139096  1
  In  In64  1  0.49790811  0.68384899  0.12393112  1
  In  In65  1  0.49384930  0.67816504  0.62921793  1
  In  In66  1  0.82269764  -0.01722989  0.12521303  1
  In  In67  1  0.82479373  0.00453738  0.63351299  1
  In  In68  1  0.82089432  0.34859277  0.13469397  1
  In  In69  1  0.81533917  0.32730042  0.60688614  1
  In  In70  1  0.83545310  0.67369644  0.12978000  1
  In  In71  1  0.82861586  0.64912707  0.62128721  1
  In  In72  1  0.83583355  0.16115460  0.00786892  1
  In  In73  1  0.16686580  0.16464883  0.49670181  1
  In  In74  1  0.16322374  0.50375355  0.00442232  1
  In  In75  1  0.50210589  0.16441130  0.00757447  1
  In  In76  1  0.66378790  0.33229958  0.74605984  1
  In  In77  1  0.82839110  0.83506537  0.49229179  1
  In  In78  1  -0.00329480  0.00023464  0.24644037  1
  In  In79  1  0.16352279  0.49723289  0.49159055  1
  In  In80  1  0.51426356  0.49645920  0.49534565  1
  In  In81  1  0.33361615  0.66464222  0.24797106  1
  In  In82  1  0.50534811  0.50289695  0.00634218  1
  In  In83  1  0.16524303  0.83322699  0.50065189  1
  In  In84  1  -0.00004786  0.66551629  0.74651700  1
  In  In85  1  0.00337426  0.32878711  0.75137796  1
  Cu  Cu86  1  0.83017299  0.83121697  0.75591191  1
  Cu  Cu87  1  0.33235091  0.00109954  -0.00519247  1
  Cu  Cu88  1  0.50030919  0.83465261  0.75296929  1
  Cu  Cu89  1  0.49691391  0.15589424  0.25089427  1
  Cu  Cu90  1  0.82785046  0.17228351  0.25117292  1
  Cu  Cu91  1  0.50067085  0.16351778  0.74719934  1
  Cu  Cu92  1  0.34423925  0.00619843  0.49889164  1
  Cu  Cu93  1  0.66890605  0.67117078  0.49581988  1
  Cu  Cu94  1  0.33804542  0.67570839  -0.00332198  1
  Cu  Cu95  1  -0.00453916  0.66853526  0.00513541  1
  Cu  Cu96  1  0.17243312  0.16373100  0.75543931  1
  Cu  Cu97  1  0.16712748  0.16324837  0.25042932  1
  Cu  Cu98  1  0.49636549  0.50554131  0.74991898  1
  Cu  Cu99  1  -0.00397845  0.34207114  0.00901977  1
  Cu  Cu100  1  -0.00138182  -0.00172375  0.50076229  1
  Cu  Cu101  1  0.83933613  0.50458711  0.25152961  1
  Cu  Cu102  1  0.33505372  0.67323020  0.50495155  1
  Cu  Cu103  1  0.34573116  0.32584575  0.50017195  1
  Cu  Cu104  1  0.16584520  0.49411413  0.24696122  1
  Cu  Cu105  1  0.49758024  0.83583091  0.25004649  1
  Cu  Cu106  1  0.16741070  0.83447371  0.75620029  1
  Cu  Cu107  1  0.66250546  0.00320280  0.50067733  1
  Cu  Cu108  1  -0.00951553  0.33640210  0.49563274  1
  Cu  Cu109  1  0.17093271  0.50161742  0.74748302  1
  Cu  Cu110  1  0.67421111  0.66951167  0.00427841  1
  Cu  Cu111  1  0.33161102  0.32728969  0.00119322  1
  Cu  Cu112  1  0.83432524  0.15636715  0.74905505  1
  Cu  Cu113  1  0.82711725  0.49850741  0.75158561  1
  Cu  Cu114  1  0.00098574  0.00055325  0.00029886  1
  Se  Se115  1  0.08482133  0.08996238  0.04601925  1
  Se  Se116  1  0.08182464  0.07426328  0.56144051  1
  Se  Se117  1  0.07911021  0.41793657  0.07024929  1
  Se  Se118  1  0.07110090  0.41302629  0.55839461  1
  Se  Se119  1  0.08570022  0.75201225  0.04999099  1
  Se  Se120  1  0.07034106  0.73714558  0.55269905  1
  Se  Se121  1  0.41116292  0.07264661  0.06329161  1
  Se  Se122  1  0.42304576  0.09055508  0.55406417  1
  Se  Se123  1  0.41374022  0.40469235  0.06070979  1
  Se  Se124  1  0.41734645  0.41482085  0.55964001  1
  Se  Se125  1  0.42375346  0.75881008  0.04681154  1
  Se  Se126  1  0.41773395  0.75841283  0.55463906  1
  Se  Se127  1  0.73648064  0.07260961  0.05851720  1
  Se  Se128  1  0.75351739  0.07866327  0.55425065  1
  Se  Se129  1  0.74980890  0.42022344  0.05512396  1
  Se  Se130  1  0.75577244  0.43099862  0.54430692  1
  Se  Se131  1  0.75229668  0.75495214  0.06010063  1
  Se  Se132  1  0.74357325  0.75069558  0.56140612  1
  Se  Se133  1  0.24522796  0.24702276  0.05302706  1
  Se  Se134  1  0.25793822  0.25182489  0.55894175  1
  Se  Se135  1  0.26049512  0.59467251  0.05837612  1
  Se  Se136  1  0.25198771  0.58813284  0.55750663  1
  Se  Se137  1  0.25035308  0.91739832  0.04995041  1
  Se  Se138  1  0.25814574  0.92571242  0.55710217  1
  Se  Se139  1  0.59260969  0.25942829  0.06120899  1
  Se  Se140  1  0.61152991  0.27493916  0.55369126  1
  Se  Se141  1  0.59348564  0.59183287  0.06646114  1
  Se  Se142  1  0.58937284  0.59351025  0.56111712  1
  Se  Se143  1  0.57603564  0.90393374  0.05511477  1
  Se  Se144  1  0.58011215  0.91690917  0.55207615  1
  Se  Se145  1  0.91976861  0.25658723  0.06801576  1
  Se  Se146  1  0.91499416  0.24778570  0.55037768  1
  Se  Se147  1  0.91187144  0.58517834  0.05674937  1
  Se  Se148  1  0.91365496  0.58889509  0.54479922  1
  Se  Se149  1  0.91484161  0.91961346  0.05255993  1
  Se  Se150  1  0.91882225  0.91784599  0.56103920  1
  Se  Se151  1  0.07828702  0.25926628  0.43892783  1
  Se  Se152  1  0.07861354  0.26087886  0.95271836  1
  Se  Se153  1  0.07422574  0.59130578  0.43826789  1
  Se  Se154  1  0.07359833  0.59052780  0.93975262  1
  Se  Se155  1  0.06914806  0.91611735  0.43774937  1
  Se  Se156  1  0.08570869  0.91633454  0.94747648  1
  Se  Se157  1  0.42867107  0.24508828  0.44671942  1
  Se  Se158  1  0.41512488  0.25215995  0.94003851  1
  Se  Se159  1  0.41357576  0.59040143  0.44480466  1
  Se  Se160  1  0.41694738  0.58919777  0.94028028  1
  Se  Se161  1  0.41853949  0.91520618  0.44566674  1
  Se  Se162  1  0.41894142  0.91792606  0.94510767  1
  Se  Se163  1  0.76740951  0.23202001  0.43779047  1
  Se  Se164  1  0.74319503  0.25345410  0.94822309  1
  Se  Se165  1  0.74610792  0.58519342  0.44108935  1
  Se  Se166  1  0.75142242  0.58095388  0.95042530  1
  Se  Se167  1  0.73800133  0.92570368  0.43514616  1
  Se  Se168  1  0.75787234  0.91277589  0.94691800  1
  Se  Se169  1  0.25427994  0.07317926  0.43696022  1
  Se  Se170  1  0.24915780  0.08822614  0.94515560  1
  Se  Se171  1  0.26640422  0.40812183  0.44173607  1
  Se  Se172  1  0.25871726  0.41756355  0.94312447  1
  Se  Se173  1  0.25474529  0.74334148  0.43838119  1
  Se  Se174  1  0.24895298  0.75599087  0.94709213  1
  Se  Se175  1  0.58148179  0.08758920  0.44530950  1
  Se  Se176  1  0.58954435  0.07538617  0.94499989  1
  Se  Se177  1  0.59378325  0.40874941  0.42990010  1
  Se  Se178  1  0.59328457  0.40849932  0.94674443  1
  Se  Se179  1  0.58428511  0.75623239  0.44682752  1
  Se  Se180  1  0.58738084  0.74781800  0.94837401  1
  Se  Se181  1  0.91415572  0.08532840  0.45317585  1
  Se  Se182  1  0.91815592  0.07751112  0.93794488  1
  Se  Se183  1  0.91176600  0.41897197  0.43976174  1
  Se  Se184  1  0.91007210  0.42236057  0.95705028  1
  Se  Se185  1  0.91994227  0.74294799  0.43773886  1
  Se  Se186  1  0.91346047  0.75339961  0.95096074  1
  Se  Se187  1  0.25253226  0.24593223  0.30390620  1
  Se  Se188  1  0.25415384  0.25247073  0.80506843  1
  Se  Se189  1  0.24536705  0.57187716  0.31158861  1
  Se  Se190  1  0.25098183  0.58797258  0.80011159  1
  Se  Se191  1  0.24933139  0.91386866  0.29277491  1
  Se  Se192  1  0.25208295  0.91891310  0.80705702  1
  Se  Se193  1  0.58012759  0.24294856  0.30177955  1
  Se  Se194  1  0.57844095  0.24196134  0.81184398  1
  Se  Se195  1  0.57005970  0.57870117  0.29917700  1
  Se  Se196  1  0.58563109  0.58364252  0.80181276  1
  Se  Se197  1  0.58159267  0.91808932  0.30433811  1
  Se  Se198  1  0.58664798  0.91490236  0.80665662  1
  Se  Se199  1  0.91753486  0.25311625  0.30003874  1
  Se  Se200  1  0.90989514  0.23972675  0.81115662  1
  Se  Se201  1  0.92235033  0.59027828  0.30278055  1
  Se  Se202  1  0.90887396  0.57932644  0.81037392  1
  Se  Se203  1  0.90324173  0.91535797  0.30710532  1
  Se  Se204  1  0.92075531  0.91546284  0.80063462  1
  Se  Se205  1  0.08490025  0.08827920  0.31387919  1
  Se  Se206  1  0.08479189  0.08398764  0.80724311  1
  Se  Se207  1  0.08161303  0.41235376  0.30117880  1
  Se  Se208  1  0.09189763  0.42422948  0.81079840  1
  Se  Se209  1  0.10444201  0.77269504  0.29665670  1
  Se  Se210  1  0.08325131  0.75316524  0.81309986  1
  Se  Se211  1  0.41234745  0.07572691  0.30582563  1
  Se  Se212  1  0.41907911  0.07843092  0.80115331  1
  Se  Se213  1  0.41593793  0.40898025  0.29408534  1
  Se  Se214  1  0.41618976  0.41599859  0.80015604  1
  Se  Se215  1  0.41884370  0.75467880  0.31280261  1
  Se  Se216  1  0.41572407  0.75021619  0.80527005  1
  Se  Se217  1  0.74701615  0.08274834  0.30031451  1
  Se  Se218  1  0.74392482  0.07860586  0.79957544  1
  Se  Se219  1  0.75248102  0.41974224  0.30068864  1
  Se  Se220  1  0.75273598  0.41577302  0.81445606  1
  Se  Se221  1  0.75391223  0.75303189  0.29692810  1
  Se  Se222  1  0.74603157  0.74703496  0.80654660  1
  Se  Se223  1  0.24706398  0.08163625  0.19372052  1
  Se  Se224  1  0.25387955  0.07800819  0.70135281  1
  Se  Se225  1  0.25199637  0.41067442  0.19767507  1
  Se  Se226  1  0.25418348  0.41384646  0.69832142  1
  Se  Se227  1  0.25294381  0.75443080  0.18305733  1
  Se  Se228  1  0.24767219  0.75043934  0.69928720  1
  Se  Se229  1  0.58583611  0.07822013  0.19819942  1
  Se  Se230  1  0.58585331  0.08402199  0.69200914  1
  Se  Se231  1  0.57787120  0.42625594  0.20203218  1
  Se  Se232  1  0.57293676  0.42386983  0.68665857  1
  Se  Se233  1  0.58124523  0.74981857  0.20017990  1
  Se  Se234  1  0.58399064  0.75123876  0.69841531  1
  Se  Se235  1  0.90361989  0.09050433  0.18691381  1
  Se  Se236  1  0.92379996  0.07808121  0.69756504  1
  Se  Se237  1  0.92089095  0.41542096  0.20001367  1
  Se  Se238  1  0.90077840  0.40917594  0.69331346  1
  Se  Se239  1  0.93134443  0.74354215  0.19679262  1
  Se  Se240  1  0.90475957  0.75369613  0.68804716  1
  Se  Se241  1  0.08033201  0.24638671  0.20070059  1
  Se  Se242  1  0.09554108  0.24076617  0.68902494  1
  Se  Se243  1  0.08561904  0.58698362  0.20135942  1
  Se  Se244  1  0.08387948  0.56900398  0.68399371  1
  Se  Se245  1  0.08332427  0.91856430  0.18020540  1
  Se  Se246  1  0.08123732  0.91394622  0.70167203  1
  Se  Se247  1  0.41584177  0.24268569  0.19739150  1
  Se  Se248  1  0.41707644  0.25058375  0.69761637  1
  Se  Se249  1  0.42441031  0.57823583  0.18712092  1
  Se  Se250  1  0.41366643  0.59065925  0.69693819  1
  Se  Se251  1  0.41247360  0.91899446  0.19854665  1
  Se  Se252  1  0.41913377  0.91812178  0.69574741  1
  Se  Se253  1  0.74282753  0.25636316  0.19974878  1
  Se  Se254  1  0.75581148  0.24077212  0.68953815  1
  Se  Se255  1  0.75371906  0.58660086  0.19849470  1
  Se  Se256  1  0.74540284  0.58273996  0.69855721  1
  Se  Se257  1  0.74558446  0.91443047  0.20201431  1
  Se  Se258  1  0.74809819  0.91518426  0.69994633  1
