# generated using pymatgen
data_In86Cu29Se144
_symmetry_space_group_name_H-M   'P 1'
_cell_length_a   17.57600388
_cell_length_b   17.57151488
_cell_length_c   23.43154966
_cell_angle_alpha   90.00507313
_cell_angle_beta   90.01056225
_cell_angle_gamma   90.00075429
_symmetry_Int_Tables_number   1
_chemical_formula_structural   In86Cu29Se144
_chemical_formula_sum   'In86 Cu29 Se144'
_cell_volume   7236.52967520
_cell_formula_units_Z   1
loop_
 _symmetry_equiv_pos_site_id
 _symmetry_equiv_pos_as_xyz
  1  'x, y, z'
loop_
 _atom_site_type_symbol
 _atom_site_label
 _atom_site_symmetry_multiplicity
 _atom_site_fract_x
 _atom_site_fract_y
 _atom_site_fract_z
 _atom_site_occupancy
  In  In0  1  -0.00869302  0.16566740  0.12596141  1
  In  In1  1  0.00432369  0.16838036  0.62876441  1
  In  In2  1  0.00774745  0.49602989  0.12154152  1
  In  In3  1  0.00062301  0.49899141  0.62266807  1
  In  In4  1  0.00343216  0.84263220  0.11913054  1
  In  In5  1  0.00110929  0.83261195  0.62574861  1
  In  In6  1  0.33893798  0.15288936  0.12079867  1
  In  In7  1  0.31312024  0.15106172  0.60733400  1
  In  In8  1  0.32792757  0.50677753  0.12422175  1
  In  In9  1  0.33641250  0.50037461  0.61672771  1
  In  In10  1  0.32538173  0.84136500  0.11960183  1
  In  In11  1  0.32903846  0.83568031  0.62648564  1
  In  In12  1  0.66291280  0.16737796  0.13299170  1
  In  In13  1  0.67688716  0.17290222  0.61777231  1
  In  In14  1  0.65998699  0.49874074  0.13183045  1
  In  In15  1  0.65504519  0.49060969  0.61914074  1
  In  In16  1  0.70894130  0.84426024  0.11880802  1
  In  In17  1  0.67065281  0.83764018  0.61600681  1
  In  In18  1  0.15142910  0.00756542  0.38207251  1
  In  In19  1  0.14781031  -0.01793751  0.85481834  1
  In  In20  1  0.16403176  0.33044576  0.38648760  1
  In  In21  1  0.16750294  0.34794471  0.87078676  1
  In  In22  1  0.16889900  0.66345932  0.38455447  1
  In  In23  1  0.16538999  0.66797399  0.87024306  1
  In  In24  1  0.50404978  -0.00493382  0.38352208  1
  In  In25  1  0.50294240  0.01314237  0.87396532  1
  In  In26  1  0.50709906  0.31903799  0.39354050  1
  In  In27  1  0.49853566  0.31881778  0.87041039  1
  In  In28  1  0.50085989  0.66597354  0.38683795  1
  In  In29  1  0.49408363  0.67640264  0.86815366  1
  In  In30  1  0.83629047  -0.00263902  0.37734520  1
  In  In31  1  0.84401838  -0.01147911  0.87810528  1
  In  In32  1  0.82250426  0.33864832  0.38109836  1
  In  In33  1  0.83484109  0.33410391  0.86114805  1
  In  In34  1  0.83094660  0.67072014  0.38354919  1
  In  In35  1  0.84663727  0.66700484  0.87291032  1
  In  In36  1  0.00913477  0.14599184  0.38078306  1
  In  In37  1  -0.00013044  0.16026880  0.86059685  1
  In  In38  1  0.00286463  0.49269036  0.38639453  1
  In  In39  1  0.00753989  0.51543722  0.86144566  1
  In  In40  1  -0.00858547  0.84846531  0.38245139  1
  In  In41  1  0.00738586  0.83634444  0.87158261  1
  In  In42  1  0.32535815  0.17393084  0.39045102  1
  In  In43  1  0.34212152  0.16670671  0.87088381  1
  In  In44  1  0.32655429  0.49709426  0.39344927  1
  In  In45  1  0.31761142  0.49813018  0.87018355  1
  In  In46  1  0.33120271  0.83340111  0.38518194  1
  In  In47  1  0.32045069  0.81947352  0.86071241  1
  In  In48  1  0.66572477  0.16700012  0.37944189  1
  In  In49  1  0.65680012  0.16686816  0.87330799  1
  In  In50  1  0.67589391  0.49146266  0.38168079  1
  In  In51  1  0.67941723  0.49343771  0.87013157  1
  In  In52  1  0.66768604  0.83726261  0.37862515  1
  In  In53  1  0.66634153  0.84349729  0.88086588  1
  In  In54  1  0.17320064  -0.00850247  0.12279654  1
  In  In55  1  0.16749757  0.00376304  0.62965295  1
  In  In56  1  0.15727675  0.33819449  0.12214397  1
  In  In57  1  0.15218376  0.31488925  0.61105820  1
  In  In58  1  0.16151959  0.66660303  0.11748071  1
  In  In59  1  0.16370763  0.66671595  0.62602556  1
  In  In60  1  0.49744219  0.01422618  0.12591027  1
  In  In61  1  0.49389911  -0.00578373  0.61797196  1
  In  In62  1  0.51218658  0.32695901  0.13176888  1
  In  In63  1  0.49968234  0.33636445  0.61637128  1
  In  In64  1  0.50625943  0.66201793  0.12790357  1
  In  In65  1  0.48812966  0.65938356  0.62117832  1
  In  In66  1  0.84765878  -0.01820018  0.14883671  1
  In  In67  1  0.84572415  0.01015204  0.61701928  1
  In  In68  1  0.83202559  0.32208815  0.13167241  1
  In  In69  1  0.83323211  0.33222397  0.62360132  1
  In  In70  1  0.83355832  0.69021749  0.12284508  1
  In  In71  1  0.84521049  0.67677967  0.61892181  1
  In  In72  1  0.66610503  0.66254376  0.75006757  1
  In  In73  1  0.32964935  0.33324381  0.26694410  1
  In  In74  1  0.33077377  0.00423371  0.25242012  1
  In  In75  1  0.49907088  0.49900518  0.00623022  1
  In  In76  1  0.67258310  0.67441808  0.25261231  1
  In  In77  1  0.83643353  0.50714659  -0.00025948  1
  In  In78  1  0.33139507  0.66604857  0.26547013  1
  In  In79  1  0.00444652  0.66556096  0.24630958  1
  In  In80  1  0.32695007  0.32787465  0.73574355  1
  In  In81  1  0.67128073  0.00228024  0.75508827  1
  In  In82  1  0.49865348  0.83601952  -0.00127201  1
  In  In83  1  0.83223009  0.16143653  -0.00381198  1
  In  In84  1  0.16639401  0.16014702  -0.00313478  1
  In  In85  1  -0.00134346  0.32445359  0.25947581  1
  Cu  Cu86  1  0.00533796  0.34300435  -0.00753913  1
  Cu  Cu87  1  0.66936470  0.66713260  0.50229547  1
  Cu  Cu88  1  0.32981468  0.67396070  0.50702629  1
  Cu  Cu89  1  0.50261373  0.49368720  0.25748092  1
  Cu  Cu90  1  0.16485152  0.83060413  0.74438853  1
  Cu  Cu91  1  0.33146190  -0.00327167  0.50303819  1
  Cu  Cu92  1  0.51121775  0.83945341  0.25224065  1
  Cu  Cu93  1  0.67010498  0.00387872  0.00484990  1
  Cu  Cu94  1  0.32568825  0.66545888  -0.00417447  1
  Cu  Cu95  1  0.49033494  0.83226636  0.74119776  1
  Cu  Cu96  1  0.66696669  0.00286319  0.49673877  1
  Cu  Cu97  1  0.00598671  0.67626442  -0.00735284  1
  Cu  Cu98  1  0.66772090  0.33305114  0.50197741  1
  Cu  Cu99  1  0.16178577  0.50279738  0.74482721  1
  Cu  Cu100  1  0.49577582  0.49344301  0.74083907  1
  Cu  Cu101  1  0.00293870  0.66597667  0.50267412  1
  Cu  Cu102  1  -0.01161937  0.32692214  0.50148390  1
  Cu  Cu103  1  0.82285324  0.16371831  0.25617970  1
  Cu  Cu104  1  0.16273005  0.83173669  0.24948371  1
  Cu  Cu105  1  0.33085712  -0.00356292  -0.00567328  1
  Cu  Cu106  1  0.50022968  0.17107371  0.25793913  1
  Cu  Cu107  1  0.83248320  0.49584983  0.74161490  1
  Cu  Cu108  1  0.33498238  0.33039045  -0.00753250  1
  Cu  Cu109  1  0.83821341  0.16826038  0.74191730  1
  Cu  Cu110  1  0.00167193  -0.00325129  0.50676415  1
  Cu  Cu111  1  0.50304266  0.16761420  0.74559335  1
  Cu  Cu112  1  0.84008583  0.83494491  0.74842206  1
  Cu  Cu113  1  0.83328123  0.50101235  0.25629863  1
  Cu  Cu114  1  0.66204939  0.33029903  0.00502135  1
  Se  Se115  1  0.07476969  0.07632719  0.05998658  1
  Se  Se116  1  0.08427335  0.08405053  0.55740515  1
  Se  Se117  1  0.08906262  0.42316432  0.04693910  1
  Se  Se118  1  0.07572514  0.41238332  0.55039261  1
  Se  Se119  1  0.08614954  0.75700025  0.05203908  1
  Se  Se120  1  0.08458649  0.75169908  0.55552054  1
  Se  Se121  1  0.41716462  0.07878294  0.04566326  1
  Se  Se122  1  0.41949010  0.08370308  0.54875550  1
  Se  Se123  1  0.41017588  0.40392590  0.06339928  1
  Se  Se124  1  0.42951525  0.43005139  0.54993574  1
  Se  Se125  1  0.40907380  0.73885966  0.05937687  1
  Se  Se126  1  0.41754229  0.75705143  0.55670196  1
  Se  Se127  1  0.75149202  0.07972817  0.06696283  1
  Se  Se128  1  0.75288211  0.08325896  0.55044850  1
  Se  Se129  1  0.74679740  0.41101978  0.06084117  1
  Se  Se130  1  0.75113385  0.41748499  0.55460092  1
  Se  Se131  1  0.74535997  0.74341786  0.04560626  1
  Se  Se132  1  0.75466651  0.75260139  0.55129233  1
  Se  Se133  1  0.25597424  0.25363430  0.05878073  1
  Se  Se134  1  0.26578491  0.26754426  0.54934317  1
  Se  Se135  1  0.24641512  0.58102178  0.05157820  1
  Se  Se136  1  0.24627168  0.58543757  0.55489259  1
  Se  Se137  1  0.24563842  0.91336545  0.04496178  1
  Se  Se138  1  0.24537973  0.91753275  0.55758539  1
  Se  Se139  1  0.58196502  0.24393008  0.05701153  1
  Se  Se140  1  0.58329031  0.24702098  0.55191883  1
  Se  Se141  1  0.59832811  0.59182790  0.05529263  1
  Se  Se142  1  0.58217692  0.58668498  0.55478964  1
  Se  Se143  1  0.58773130  0.92116938  0.06339954  1
  Se  Se144  1  0.58373438  0.91792870  0.55018997  1
  Se  Se145  1  0.92388634  0.26279561  0.05196481  1
  Se  Se146  1  0.91252244  0.24109505  0.55816540  1
  Se  Se147  1  0.92891946  0.59846596  0.05960577  1
  Se  Se148  1  0.91658540  0.58158814  0.55282976  1
  Se  Se149  1  0.90114595  0.91504156  0.06069683  1
  Se  Se150  1  0.91488975  0.90990845  0.55416565  1
  Se  Se151  1  0.07460685  0.24540629  0.44771624  1
  Se  Se152  1  0.07871239  0.25372409  0.93567453  1
  Se  Se153  1  0.08583436  0.57932478  0.45125679  1
  Se  Se154  1  0.08284511  0.58466142  0.94121948  1
  Se  Se155  1  0.08653061  0.91310777  0.45292928  1
  Se  Se156  1  0.08656569  0.92025991  0.94170119  1
  Se  Se157  1  0.40366607  0.25889977  0.45724913  1
  Se  Se158  1  0.42056039  0.24494806  0.94611590  1
  Se  Se159  1  0.41216958  0.58863092  0.45272807  1
  Se  Se160  1  0.41198846  0.58649111  0.93922973  1
  Se  Se161  1  0.41795687  0.91395159  0.45073075  1
  Se  Se162  1  0.41030960  0.91684676  0.93155888  1
  Se  Se163  1  0.75042786  0.24733138  0.44986378  1
  Se  Se164  1  0.74558086  0.26048650  0.93980289  1
  Se  Se165  1  0.75181316  0.58208448  0.44891360  1
  Se  Se166  1  0.74364315  0.59273858  0.93847724  1
  Se  Se167  1  0.75256106  0.91612771  0.44821446  1
  Se  Se168  1  0.75110401  0.92145921  0.94906206  1
  Se  Se169  1  0.24508397  0.07893972  0.45018938  1
  Se  Se170  1  0.25225529  0.07507125  0.93177233  1
  Se  Se171  1  0.24429268  0.41036710  0.45624776  1
  Se  Se172  1  0.24960687  0.41764496  0.94758153  1
  Se  Se173  1  0.24483151  0.75354003  0.45159599  1
  Se  Se174  1  0.24720179  0.75120182  0.94168149  1
  Se  Se175  1  0.57922155  0.08794853  0.44925358  1
  Se  Se176  1  0.58693679  0.08390879  0.94866096  1
  Se  Se177  1  0.58429479  0.42077504  0.45066610  1
  Se  Se178  1  0.58742824  0.41130903  0.94058262  1
  Se  Se179  1  0.58718237  0.75237656  0.44819672  1
  Se  Se180  1  0.58768118  0.74089103  0.94146934  1
  Se  Se181  1  0.91680627  0.07834165  0.45112266  1
  Se  Se182  1  0.93265491  0.07761241  0.94293395  1
  Se  Se183  1  0.90955164  0.41681681  0.44988451  1
  Se  Se184  1  0.91983542  0.41847301  0.93384714  1
  Se  Se185  1  0.92119997  0.75010839  0.44760738  1
  Se  Se186  1  0.91832079  0.75624372  0.94148835  1
  Se  Se187  1  0.23377225  0.23629000  0.31178647  1
  Se  Se188  1  0.24515785  0.24797099  0.80858447  1
  Se  Se189  1  0.24117781  0.56753815  0.31297126  1
  Se  Se190  1  0.24734032  0.58434753  0.79894363  1
  Se  Se191  1  0.24430001  0.91010745  0.31110255  1
  Se  Se192  1  0.25299436  0.91596871  0.79421909  1
  Se  Se193  1  0.58253334  0.25466919  0.31135479  1
  Se  Se194  1  0.58737521  0.25063598  0.79790493  1
  Se  Se195  1  0.58203219  0.58215313  0.31209462  1
  Se  Se196  1  0.57279712  0.56979847  0.80840354  1
  Se  Se197  1  0.58749533  0.92279327  0.30894435  1
  Se  Se198  1  0.57186629  0.90723579  0.80534537  1
  Se  Se199  1  0.90643909  0.23931350  0.31863939  1
  Se  Se200  1  0.92126738  0.25251537  0.79653330  1
  Se  Se201  1  0.91608880  0.57911006  0.31319120  1
  Se  Se202  1  0.91024354  0.58451278  0.79534377  1
  Se  Se203  1  0.92676471  0.92860663  0.30518152  1
  Se  Se204  1  0.92280414  0.91973904  0.80110811  1
  Se  Se205  1  0.07946520  0.07409099  0.30074450  1
  Se  Se206  1  0.09159106  0.08990742  0.79391593  1
  Se  Se207  1  0.09017429  0.42035070  0.31028348  1
  Se  Se208  1  0.08032242  0.41725393  0.79830705  1
  Se  Se209  1  0.08806555  0.75273849  0.31350264  1
  Se  Se210  1  0.08157122  0.74851287  0.80065453  1
  Se  Se211  1  0.41686100  0.09261995  0.31714430  1
  Se  Se212  1  0.42066411  0.08383682  0.79912923  1
  Se  Se213  1  0.42386583  0.42240988  0.32267391  1
  Se  Se214  1  0.41589531  0.41556446  0.80608237  1
  Se  Se215  1  0.42960146  0.76162924  0.31184178  1
  Se  Se216  1  0.41151029  0.74289779  0.79285889  1
  Se  Se217  1  0.74480083  0.07934307  0.31170203  1
  Se  Se218  1  0.76479006  0.09301008  0.81318319  1
  Se  Se219  1  0.74786953  0.41521850  0.30310064  1
  Se  Se220  1  0.74661601  0.41327633  0.79357102  1
  Se  Se221  1  0.76598051  0.76330982  0.30805027  1
  Se  Se222  1  0.75227462  0.76135560  0.80824304  1
  Se  Se223  1  0.24038902  0.09354611  0.19217768  1
  Se  Se224  1  0.25226568  0.09046067  0.69459633  1
  Se  Se225  1  0.24770625  0.41769123  0.19339553  1
  Se  Se226  1  0.23665477  0.42199164  0.68162293  1
  Se  Se227  1  0.24767711  0.75156431  0.19316243  1
  Se  Se228  1  0.25092900  0.74683349  0.69447857  1
  Se  Se229  1  0.57773935  0.08485290  0.20165886  1
  Se  Se230  1  0.58481918  0.08434560  0.68729845  1
  Se  Se231  1  0.58624486  0.41338470  0.20277730  1
  Se  Se232  1  0.58158326  0.40882876  0.69376291  1
  Se  Se233  1  0.58513024  0.76113764  0.18717418  1
  Se  Se234  1  0.58147386  0.75553593  0.68777253  1
  Se  Se235  1  0.91555778  0.09167070  0.20225898  1
  Se  Se236  1  0.92128479  0.07906069  0.69630726  1
  Se  Se237  1  0.91421099  0.42227050  0.19402780  1
  Se  Se238  1  0.91972826  0.41304369  0.69214326  1
  Se  Se239  1  0.91478535  0.76493057  0.19766599  1
  Se  Se240  1  0.92089733  0.74759313  0.69761317  1
  Se  Se241  1  0.08890718  0.24295274  0.19181726  1
  Se  Se242  1  0.09174952  0.24772923  0.69641955  1
  Se  Se243  1  0.09766238  0.57146656  0.19352582  1
  Se  Se244  1  0.07597214  0.58666004  0.69416389  1
  Se  Se245  1  0.08647572  0.91706744  0.19334960  1
  Se  Se246  1  0.08122550  0.91753575  0.69498023  1
  Se  Se247  1  0.41467564  0.24454147  0.19646899  1
  Se  Se248  1  0.42073489  0.23790157  0.68112627  1
  Se  Se249  1  0.42374553  0.57594305  0.19933474  1
  Se  Se250  1  0.41070172  0.57983116  0.69467380  1
  Se  Se251  1  0.42152951  0.90970157  0.19190350  1
  Se  Se252  1  0.41196698  0.92428618  0.69371965  1
  Se  Se253  1  0.74515162  0.25175785  0.20227641  1
  Se  Se254  1  0.74889227  0.25045224  0.69498313  1
  Se  Se255  1  0.76311574  0.58253396  0.18964327  1
  Se  Se256  1  0.75265694  0.58001940  0.68344837  1
  Se  Se257  1  0.73227876  0.92920727  0.20469968  1
  Se  Se258  1  0.75780988  0.91536216  0.69034976  1
