# generated using pymatgen
data_In86Cu29Se144
_symmetry_space_group_name_H-M   'P 1'
_cell_length_a   17.77285466
_cell_length_b   17.76253779
_cell_length_c   23.61620613
_cell_angle_alpha   89.99088196
_cell_angle_beta   90.04413514
_cell_angle_gamma   90.03333024
_symmetry_Int_Tables_number   1
_chemical_formula_structural   In86Cu29Se144
_chemical_formula_sum   'In86 Cu29 Se144'
_cell_volume   7455.42022240
_cell_formula_units_Z   1
loop_
 _symmetry_equiv_pos_site_id
 _symmetry_equiv_pos_as_xyz
  1  'x, y, z'
loop_
 _atom_site_type_symbol
 _atom_site_label
 _atom_site_symmetry_multiplicity
 _atom_site_fract_x
 _atom_site_fract_y
 _atom_site_fract_z
 _atom_site_occupancy
  In  In0  1  0.00289548  0.15578285  0.14122572  1
  In  In1  1  0.00596791  0.17498486  0.61513097  1
  In  In2  1  0.02223039  0.48827743  0.14357930  1
  In  In3  1  0.03914930  0.53930582  0.56612437  1
  In  In4  1  0.05825279  0.77660687  0.18656235  1
  In  In5  1  0.00693249  0.81269336  0.61523046  1
  In  In6  1  0.34755400  0.16517958  0.12636773  1
  In  In7  1  0.33565607  0.18039774  0.61607478  1
  In  In8  1  0.33908349  0.49396840  0.12750470  1
  In  In9  1  0.33690691  0.50137615  0.63104846  1
  In  In10  1  0.32930679  0.80971199  0.12340339  1
  In  In11  1  0.32639218  0.82438771  0.61888801  1
  In  In12  1  0.66367501  0.16214032  0.12877454  1
  In  In13  1  0.66823940  0.18604310  0.62671833  1
  In  In14  1  0.65908421  0.50532585  0.12305089  1
  In  In15  1  0.67080320  0.49832471  0.63079667  1
  In  In16  1  0.66674459  0.84656682  0.12671115  1
  In  In17  1  0.65325779  0.83194392  0.62299072  1
  In  In18  1  0.15844510  0.00664472  0.37857042  1
  In  In19  1  0.16325099  -0.00479793  0.87531862  1
  In  In20  1  0.15917909  0.32878869  0.38218644  1
  In  In21  1  0.18459444  0.34206232  0.86837848  1
  In  In22  1  0.15906530  0.66666655  0.37936135  1
  In  In23  1  0.15906980  0.65451447  0.87004589  1
  In  In24  1  0.49877611  -0.00651308  0.37242448  1
  In  In25  1  0.49780889  0.00515716  0.89097568  1
  In  In26  1  0.48428913  0.32923241  0.36261071  1
  In  In27  1  0.49935848  0.34019644  0.87507550  1
  In  In28  1  0.49132584  0.67464969  0.37287206  1
  In  In29  1  0.49878178  0.66360177  0.87439866  1
  In  In30  1  0.82493983  0.00449330  0.36998522  1
  In  In31  1  0.84329557  0.00388869  0.87869763  1
  In  In32  1  0.83726443  0.34460007  0.36759783  1
  In  In33  1  0.83837140  0.34397519  0.87502643  1
  In  In34  1  0.83806393  0.65093764  0.38316813  1
  In  In35  1  0.83634897  0.67007493  0.86485825  1
  In  In36  1  0.00754403  0.17962224  0.36630607  1
  In  In37  1  0.00861511  0.16755437  0.87820403  1
  In  In38  1  0.00448309  0.49846271  0.37569433  1
  In  In39  1  0.00267679  0.51286061  0.87792606  1
  In  In40  1  0.00093638  0.84377040  0.37430915  1
  In  In41  1  0.01385882  0.82157598  0.87605071  1
  In  In42  1  0.32650629  0.17089173  0.38136633  1
  In  In43  1  0.33404715  0.18176963  0.87554128  1
  In  In44  1  0.27277090  0.46137488  0.32377599  1
  In  In45  1  0.33362169  0.50525703  0.87209658  1
  In  In46  1  0.33393228  0.82818772  0.37406259  1
  In  In47  1  0.35044012  0.82642689  0.88319470  1
  In  In48  1  0.65057575  0.16503502  0.37101387  1
  In  In49  1  0.65446167  0.17536287  0.87645546  1
  In  In50  1  0.67259599  0.50161538  0.37342479  1
  In  In51  1  0.65806430  0.49244918  0.86937467  1
  In  In52  1  0.64986574  0.82599966  0.37215230  1
  In  In53  1  0.66496090  0.82256664  0.87171425  1
  In  In54  1  0.16119575  -0.02170692  0.13614538  1
  In  In55  1  0.16868660  -0.00220548  0.61666178  1
  In  In56  1  0.17230987  0.33678784  0.13792328  1
  In  In57  1  0.18099146  0.36520467  0.59853803  1
  In  In58  1  0.20928906  0.62293424  0.18819481  1
  In  In59  1  0.17925340  0.66415272  0.62292397  1
  In  In60  1  0.50111608  0.00683476  0.11246164  1
  In  In61  1  0.49421454  -0.00020041  0.61843390  1
  In  In62  1  0.50402714  0.33146706  0.12462422  1
  In  In63  1  0.50190356  0.33484250  0.62974391  1
  In  In64  1  0.48450653  0.65225432  0.10284954  1
  In  In65  1  0.48894702  0.67485405  0.63393301  1
  In  In66  1  0.88737444  -0.07366757  0.18055645  1
  In  In67  1  0.83654357  0.00830588  0.61989020  1
  In  In68  1  0.83909119  0.33241259  0.13727577  1
  In  In69  1  0.82309319  0.34176161  0.62494566  1
  In  In70  1  0.84591025  0.67462385  0.12637522  1
  In  In71  1  0.85423042  0.64633283  0.63445749  1
  In  In72  1  0.00031622  0.34142340  0.73462473  1
  In  In73  1  0.17339165  0.16837988  0.00433099  1
  In  In74  1  0.66957561  0.67933878  0.24439527  1
  In  In75  1  0.82653760  0.17010072  0.02165781  1
  In  In76  1  0.81872310  0.16152697  0.48578749  1
  In  In77  1  0.83288984  0.50266293  -0.00165079  1
  In  In78  1  0.33414901  -0.00170715  0.24653273  1
  In  In79  1  0.83396768  0.83499349  0.00885372  1
  In  In80  1  0.49779026  0.50951085  0.49385948  1
  In  In81  1  0.82592714  0.82521186  0.49581368  1
  In  In82  1  0.00118055  -0.00472148  0.73724415  1
  In  In83  1  0.66696522  0.00234864  0.74955165  1
  In  In84  1  0.16514423  0.81257796  0.01710305  1
  In  In85  1  0.33288102  -0.00176097  0.75802350  1
  Cu  Cu86  1  0.65522028  0.33502807  0.50290932  1
  Cu  Cu87  1  0.83001982  0.17723838  0.75181325  1
  Cu  Cu88  1  0.16153530  0.49919462  0.73696698  1
  Cu  Cu89  1  0.50104418  0.50096274  0.75345182  1
  Cu  Cu90  1  0.83090708  0.50017758  0.75264230  1
  Cu  Cu91  1  0.67110604  0.00041068  0.00319167  1
  Cu  Cu92  1  0.33708399  0.33908383  0.48818413  1
  Cu  Cu93  1  0.00225687  0.66289970  0.00695491  1
  Cu  Cu94  1  0.00129671  -0.00198364  0.49894389  1
  Cu  Cu95  1  0.50798273  0.50103116  0.24302104  1
  Cu  Cu96  1  0.83929622  0.83526762  0.74530373  1
  Cu  Cu97  1  0.01653478  0.33880350  0.01176846  1
  Cu  Cu98  1  0.33678956  -0.00043453  0.49525828  1
  Cu  Cu99  1  0.66191782  0.66818182  0.50229201  1
  Cu  Cu100  1  0.50033939  0.16823127  0.24471906  1
  Cu  Cu101  1  0.65129828  -0.00162384  0.49695890  1
  Cu  Cu102  1  0.33755668  0.34229074  -0.00320478  1
  Cu  Cu103  1  0.82566009  0.16264668  0.24932969  1
  Cu  Cu104  1  0.49945961  0.83320892  0.24439321  1
  Cu  Cu105  1  0.65915500  0.66551401  -0.00518108  1
  Cu  Cu106  1  0.16744028  0.16642015  0.25581871  1
  Cu  Cu107  1  0.83738828  0.50350233  0.25528258  1
  Cu  Cu108  1  0.50082828  0.17658459  0.74929298  1
  Cu  Cu109  1  -0.00192891  -0.00259018  0.00721254  1
  Cu  Cu110  1  0.17121820  0.81685702  0.74889989  1
  Cu  Cu111  1  0.49948858  0.83329819  0.75227584  1
  Cu  Cu112  1  0.17151296  0.16741308  0.74502402  1
  Cu  Cu113  1  0.33529624  0.66343929  0.49872300  1
  Cu  Cu114  1  0.66754097  0.32816918  0.00316084  1
  Se  Se115  1  0.08366715  0.07629771  0.06309055  1
  Se  Se116  1  0.08166536  0.08118844  0.55338647  1
  Se  Se117  1  0.09785499  0.42012722  0.06449787  1
  Se  Se118  1  0.04972858  0.39373774  0.56148387  1
  Se  Se119  1  0.05234134  0.75791045  0.07024510  1
  Se  Se120  1  0.10601498  0.75263131  0.55273284  1
  Se  Se121  1  0.40566502  0.08069008  0.05066810  1
  Se  Se122  1  0.41141291  0.08431158  0.55415142  1
  Se  Se123  1  0.42166740  0.41569529  0.05685249  1
  Se  Se124  1  0.41504802  0.41319129  0.55508753  1
  Se  Se125  1  0.41532574  0.75482617  0.04639542  1
  Se  Se126  1  0.41696783  0.74613312  0.55409758  1
  Se  Se127  1  0.74969459  0.06634324  0.07049179  1
  Se  Se128  1  0.73296364  0.07718330  0.55693365  1
  Se  Se129  1  0.75076992  0.40834689  0.06067506  1
  Se  Se130  1  0.73953296  0.41772324  0.55386818  1
  Se  Se131  1  0.74029978  0.73829651  0.05927308  1
  Se  Se132  1  0.74410568  0.74219841  0.56471235  1
  Se  Se133  1  0.26110711  0.26196947  0.06080534  1
  Se  Se134  1  0.25317167  0.25872354  0.54557471  1
  Se  Se135  1  0.24654691  0.59287202  0.08468582  1
  Se  Se136  1  0.26104119  0.57707604  0.55550380  1
  Se  Se137  1  0.25200050  0.91765109  0.06148344  1
  Se  Se138  1  0.25615495  0.91810842  0.55246938  1
  Se  Se139  1  0.58689246  0.24615398  0.05756405  1
  Se  Se140  1  0.57716919  0.25075793  0.55668412  1
  Se  Se141  1  0.58383101  0.57471514  0.04541859  1
  Se  Se142  1  0.58299898  0.58961244  0.56440797  1
  Se  Se143  1  0.58522260  0.91558783  0.05115729  1
  Se  Se144  1  0.57568242  0.91352062  0.55326318  1
  Se  Se145  1  0.93351515  0.25713815  0.06633282  1
  Se  Se146  1  0.89897262  0.24399757  0.55724240  1
  Se  Se147  1  0.92533503  0.57779603  0.06470245  1
  Se  Se148  1  0.90670830  0.59216954  0.54292182  1
  Se  Se149  1  0.91723096  0.92354273  0.06674515  1
  Se  Se150  1  0.91938792  0.91855700  0.55673412  1
  Se  Se151  1  0.07599718  0.24528633  0.44747523  1
  Se  Se152  1  0.08645327  0.26180273  0.94262831  1
  Se  Se153  1  0.08735983  0.57591362  0.44919203  1
  Se  Se154  1  0.08458318  0.58421397  0.95101314  1
  Se  Se155  1  0.08479699  0.91598821  0.44742047  1
  Se  Se156  1  0.07821928  0.91807169  0.94756818  1
  Se  Se157  1  0.42046771  0.25099858  0.44276926  1
  Se  Se158  1  0.41826219  0.25629724  0.94487582  1
  Se  Se159  1  0.40376713  0.58498865  0.43170040  1
  Se  Se160  1  0.41754309  0.58155882  0.94130904  1
  Se  Se161  1  0.41513897  0.91445657  0.44079321  1
  Se  Se162  1  0.40188228  0.92972122  0.94781898  1
  Se  Se163  1  0.73360906  0.26225238  0.43526069  1
  Se  Se164  1  0.75404929  0.25496027  0.94375806  1
  Se  Se165  1  0.74103392  0.58373341  0.44877788  1
  Se  Se166  1  0.74698709  0.59176388  0.93633658  1
  Se  Se167  1  0.73613327  0.92088669  0.44072851  1
  Se  Se168  1  0.74710063  0.92212612  0.93836905  1
  Se  Se169  1  0.24924523  0.08107713  0.44575187  1
  Se  Se170  1  0.25306372  0.08036593  0.93689765  1
  Se  Se171  1  0.25737321  0.41942464  0.43135667  1
  Se  Se172  1  0.25204597  0.42161881  0.94386142  1
  Se  Se173  1  0.25310344  0.74538589  0.44279179  1
  Se  Se174  1  0.24381174  0.74531942  0.93653455  1
  Se  Se175  1  0.57353234  0.08258258  0.44199358  1
  Se  Se176  1  0.59262400  0.08612910  0.94916459  1
  Se  Se177  1  0.58201752  0.41256586  0.43629488  1
  Se  Se178  1  0.59105574  0.41145036  0.94553186  1
  Se  Se179  1  0.57826331  0.74519630  0.44621828  1
  Se  Se180  1  0.58088793  0.75170163  0.94218802  1
  Se  Se181  1  0.92198228  0.07647135  0.43784385  1
  Se  Se182  1  0.92476863  0.08633393  0.95054388  1
  Se  Se183  1  0.91291172  0.42028172  0.43954563  1
  Se  Se184  1  0.93319417  0.40963888  0.94786615  1
  Se  Se185  1  0.92617227  0.74480658  0.44281049  1
  Se  Se186  1  0.92182058  0.74151653  0.94429172  1
  Se  Se187  1  0.24582125  0.24900169  0.31099750  1
  Se  Se188  1  0.25155165  0.24915348  0.79998388  1
  Se  Se189  1  0.24767347  0.60376027  0.29843080  1
  Se  Se190  1  0.24085688  0.57474190  0.80089944  1
  Se  Se191  1  0.24448062  0.91843728  0.31075976  1
  Se  Se192  1  0.24240481  0.90137921  0.81136682  1
  Se  Se193  1  0.57862671  0.25284270  0.30010694  1
  Se  Se194  1  0.58294969  0.25713350  0.80448291  1
  Se  Se195  1  0.58269371  0.58595491  0.30531582  1
  Se  Se196  1  0.58484558  0.58511962  0.80484938  1
  Se  Se197  1  0.57927906  0.91335756  0.30112855  1
  Se  Se198  1  0.57464178  0.91899458  0.81133857  1
  Se  Se199  1  0.90661269  0.24578311  0.30404458  1
  Se  Se200  1  0.92007246  0.24842384  0.80919678  1
  Se  Se201  1  0.92087524  0.58451271  0.30764338  1
  Se  Se202  1  0.91918058  0.58079497  0.80380558  1
  Se  Se203  1  0.90464649  0.91348907  0.30944691  1
  Se  Se204  1  0.91774822  0.91143850  0.80893165  1
  Se  Se205  1  0.08074851  0.08300022  0.30384371  1
  Se  Se206  1  0.08939153  0.08773470  0.80223007  1
  Se  Se207  1  0.10785309  0.43350210  0.31191443  1
  Se  Se208  1  0.08588225  0.42411035  0.80576888  1
  Se  Se209  1  0.08433941  0.75711117  0.31001398  1
  Se  Se210  1  0.08021181  0.74093974  0.80032692  1
  Se  Se211  1  0.41835521  0.09136028  0.30689761  1
  Se  Se212  1  0.42772938  0.09189879  0.81048586  1
  Se  Se213  1  0.42096645  0.43755545  0.30700739  1
  Se  Se214  1  0.41601976  0.41885219  0.80569873  1
  Se  Se215  1  0.41541877  0.75377165  0.29918043  1
  Se  Se216  1  0.41775827  0.74986456  0.80516717  1
  Se  Se217  1  0.73983359  0.08625857  0.30538850  1
  Se  Se218  1  0.75870830  0.09122026  0.81161682  1
  Se  Se219  1  0.74692161  0.42103443  0.30042959  1
  Se  Se220  1  0.75237721  0.41532342  0.80593453  1
  Se  Se221  1  0.75621410  0.74910090  0.31795284  1
  Se  Se222  1  0.75494368  0.75729682  0.80071086  1
  Se  Se223  1  0.24086196  0.08938453  0.18863858  1
  Se  Se224  1  0.25024360  0.08350431  0.68887210  1
  Se  Se225  1  0.26246364  0.41386410  0.20329607  1
  Se  Se226  1  0.24660596  0.41290748  0.68963743  1
  Se  Se227  1  0.22390690  0.77286795  0.19289441  1
  Se  Se228  1  0.26018456  0.74272356  0.69594518  1
  Se  Se229  1  0.57426970  0.07816030  0.19197921  1
  Se  Se230  1  0.57593377  0.09092330  0.68994898  1
  Se  Se231  1  0.58867949  0.41665465  0.19194654  1
  Se  Se232  1  0.58221566  0.41954318  0.69656275  1
  Se  Se233  1  0.57167587  0.75064416  0.18044809  1
  Se  Se234  1  0.58263597  0.75259763  0.69836691  1
  Se  Se235  1  0.89585360  0.08089773  0.18733716  1
  Se  Se236  1  0.91011880  0.09910780  0.69129665  1
  Se  Se237  1  0.92033452  0.41822185  0.20293319  1
  Se  Se238  1  0.90939325  0.43305962  0.68430468  1
  Se  Se239  1  0.90544834  0.76867873  0.19564006  1
  Se  Se240  1  0.92172084  0.75260131  0.69229321  1
  Se  Se241  1  0.08604742  0.24872949  0.19928685  1
  Se  Se242  1  0.09437809  0.24752751  0.68576065  1
  Se  Se243  1  0.06073965  0.61212788  0.19237754  1
  Se  Se244  1  0.08341604  0.57109484  0.67161184  1
  Se  Se245  1  0.05407779  0.92690031  0.19706574  1
  Se  Se246  1  0.09642737  0.90258866  0.68893964  1
  Se  Se247  1  0.41742279  0.25417639  0.19548603  1
  Se  Se248  1  0.41403401  0.25067417  0.69333785  1
  Se  Se249  1  0.42666857  0.58403650  0.18977286  1
  Se  Se250  1  0.41698870  0.58259452  0.70009725  1
  Se  Se251  1  0.41823374  0.90965180  0.18275995  1
  Se  Se252  1  0.41898193  0.91271416  0.69264997  1
  Se  Se253  1  0.74736922  0.24840601  0.19485190  1
  Se  Se254  1  0.74835627  0.25938039  0.69936439  1
  Se  Se255  1  0.76000221  0.57997817  0.18968604  1
  Se  Se256  1  0.75085077  0.58533866  0.69759542  1
  Se  Se257  1  0.74181664  0.91473853  0.20235185  1
  Se  Se258  1  0.75903558  0.91567265  0.68787760  1
