# generated using pymatgen
data_In86Cu29Se144
_symmetry_space_group_name_H-M   'P 1'
_cell_length_a   17.60282040
_cell_length_b   17.60729325
_cell_length_c   23.46062753
_cell_angle_alpha   90.00921361
_cell_angle_beta   90.01168897
_cell_angle_gamma   89.97095636
_symmetry_Int_Tables_number   1
_chemical_formula_structural   In86Cu29Se144
_chemical_formula_sum   'In86 Cu29 Se144'
_cell_volume   7271.33928597
_cell_formula_units_Z   1
loop_
 _symmetry_equiv_pos_site_id
 _symmetry_equiv_pos_as_xyz
  1  'x, y, z'
loop_
 _atom_site_type_symbol
 _atom_site_label
 _atom_site_symmetry_multiplicity
 _atom_site_fract_x
 _atom_site_fract_y
 _atom_site_fract_z
 _atom_site_occupancy
  In  In0  1  -0.00580191  0.16658098  0.13746888  1
  In  In1  1  -0.00378791  0.17667591  0.62615198  1
  In  In2  1  0.00268181  0.49639916  0.13053819  1
  In  In3  1  -0.01263265  0.50123206  0.62358829  1
  In  In4  1  -0.00501859  0.83675490  0.13908216  1
  In  In5  1  -0.00812311  0.82263478  0.61646981  1
  In  In6  1  0.34271664  0.18757522  0.12852037  1
  In  In7  1  0.34453442  0.17379714  0.62163785  1
  In  In8  1  0.33591782  0.50012895  0.12552081  1
  In  In9  1  0.34362407  0.48928356  0.63248530  1
  In  In10  1  0.33938369  0.81410163  0.12898371  1
  In  In11  1  0.33022727  0.83026563  0.62025249  1
  In  In12  1  0.66852516  0.16594367  0.13228909  1
  In  In13  1  0.69041939  0.19769434  0.59331786  1
  In  In14  1  0.65841764  0.50819554  0.13242833  1
  In  In15  1  0.65614144  0.49147205  0.61896506  1
  In  In16  1  0.65006521  0.82809824  0.12474993  1
  In  In17  1  0.64321675  0.79984752  0.59104250  1
  In  In18  1  0.15471754  0.00018590  0.37215407  1
  In  In19  1  0.16613877  -0.01482262  0.87725978  1
  In  In20  1  0.16877142  0.33241606  0.36619650  1
  In  In21  1  0.18012331  0.34651026  0.87035366  1
  In  In22  1  0.17603411  0.67796140  0.36604018  1
  In  In23  1  0.16478581  0.64921904  0.87955120  1
  In  In24  1  0.51196190  -0.00451228  0.38978367  1
  In  In25  1  0.49257610  -0.00069354  0.87714224  1
  In  In26  1  0.50874874  0.33741999  0.38038677  1
  In  In27  1  0.50728421  0.34500921  0.86642693  1
  In  In28  1  0.50591880  0.66384153  0.38110316  1
  In  In29  1  0.50196109  0.66790569  0.87032391  1
  In  In30  1  0.83170908  -0.00416987  0.38581123  1
  In  In31  1  0.83943682  -0.00562593  0.87143916  1
  In  In32  1  0.82775569  0.33529448  0.38311269  1
  In  In33  1  0.83228128  0.33423470  0.86119634  1
  In  In34  1  0.83174842  0.66184893  0.37748968  1
  In  In35  1  0.82895731  0.67445841  0.87019482  1
  In  In36  1  -0.01158741  0.16022783  0.36777694  1
  In  In37  1  -0.01291564  0.17220325  0.87628016  1
  In  In38  1  -0.00750062  0.48794867  0.36665085  1
  In  In39  1  0.01366149  0.50402680  0.87617308  1
  In  In40  1  -0.00383163  0.83555741  0.37138178  1
  In  In41  1  -0.00542635  0.83299968  0.87658551  1
  In  In42  1  0.34697849  0.18111501  0.36821679  1
  In  In43  1  0.32560901  0.16801245  0.87334158  1
  In  In44  1  0.34566096  0.51251704  0.36773733  1
  In  In45  1  0.33801217  0.50552958  0.87302482  1
  In  In46  1  0.34684556  0.81588751  0.38294727  1
  In  In47  1  0.35065010  0.83312274  0.87253344  1
  In  In48  1  0.64547844  0.19177642  0.40159335  1
  In  In49  1  0.65909057  0.17260339  0.87046466  1
  In  In50  1  0.66671395  0.50031353  0.38892485  1
  In  In51  1  0.65766936  0.49448871  0.86841059  1
  In  In52  1  0.68068578  0.81743094  0.39527392  1
  In  In53  1  0.67071763  0.81805095  0.86871566  1
  In  In54  1  0.16111488  -0.00491007  0.12940878  1
  In  In55  1  0.17500098  -0.00971981  0.62569283  1
  In  In56  1  0.15737312  0.34245373  0.12969260  1
  In  In57  1  0.16481257  0.33427747  0.63252232  1
  In  In58  1  0.17255889  0.66080039  0.13113190  1
  In  In59  1  0.16807905  0.67873172  0.62317980  1
  In  In60  1  0.51176663  -0.01729419  0.12441002  1
  In  In61  1  0.51672100  0.00743371  0.60949180  1
  In  In62  1  0.48633975  0.34590002  0.14340400  1
  In  In63  1  0.50185065  0.33693299  0.62227510  1
  In  In64  1  0.50140102  0.65980293  0.12568943  1
  In  In65  1  0.49888850  0.66182774  0.62391637  1
  In  In66  1  0.82801875  0.00670636  0.13242760  1
  In  In67  1  0.81129176  -0.00725890  0.60582453  1
  In  In68  1  0.83168300  0.33057076  0.13734943  1
  In  In69  1  0.83469613  0.34018529  0.62089564  1
  In  In70  1  0.83433342  0.66199918  0.13965162  1
  In  In71  1  0.78403297  0.62118225  0.56865060  1
  In  In72  1  0.16068815  0.16708328  0.00736019  1
  In  In73  1  0.16507778  0.82582186  0.00277909  1
  In  In74  1  0.16566603  0.50386403  0.49221830  1
  In  In75  1  0.33201688  0.00280134  0.25792558  1
  In  In76  1  -0.00081719  0.00840690  0.75149570  1
  In  In77  1  0.83484497  0.50004089  0.00604167  1
  In  In78  1  0.66927671  0.00203908  0.26199235  1
  In  In79  1  0.16652696  0.16421665  0.49408298  1
  In  In80  1  -0.00300488  0.66422577  0.75146223  1
  In  In81  1  0.34419546  0.00844271  0.73978513  1
  In  In82  1  0.50065878  0.16553415  0.00249695  1
  In  In83  1  0.82937898  0.16621996  0.01045461  1
  In  In84  1  0.66648994  0.00518200  0.74163417  1
  In  In85  1  0.82732615  0.83461715  0.00019065  1
  Cu  Cu86  1  0.33373557  0.66164968  0.50006666  1
  Cu  Cu87  1  0.66075982  0.66502650  -0.00126187  1
  Cu  Cu88  1  0.82522502  0.49813939  0.25744486  1
  Cu  Cu89  1  0.16467394  0.83333315  0.24979309  1
  Cu  Cu90  1  0.00643058  -0.00105725  0.49653404  1
  Cu  Cu91  1  0.82638444  0.17140456  0.26023674  1
  Cu  Cu92  1  0.33786942  -0.00308224  0.00332389  1
  Cu  Cu93  1  0.33970041  0.34410913  -0.00287517  1
  Cu  Cu94  1  0.50730455  0.18321232  0.74260751  1
  Cu  Cu95  1  0.00464579  0.67310393  0.49214796  1
  Cu  Cu96  1  0.83098659  0.17027320  0.73873769  1
  Cu  Cu97  1  0.50429325  0.82340365  0.25721821  1
  Cu  Cu98  1  0.82565863  0.82041224  0.73665224  1
  Cu  Cu99  1  0.82462857  0.49972471  0.73778664  1
  Cu  Cu100  1  0.34203337  0.66401672  0.00164204  1
  Cu  Cu101  1  0.16696390  0.16937415  0.25094966  1
  Cu  Cu102  1  0.50212749  0.50556537  0.74802318  1
  Cu  Cu103  1  0.16912631  0.49951406  0.24885771  1
  Cu  Cu104  1  -0.00686519  0.33576647  0.49723739  1
  Cu  Cu105  1  0.16952556  0.49983672  0.75320156  1
  Cu  Cu106  1  0.50535910  0.49865337  0.25675578  1
  Cu  Cu107  1  0.00678022  0.34119526  0.00152550  1
  Cu  Cu108  1  0.32628724  -0.00564458  0.49663564  1
  Cu  Cu109  1  0.34076242  0.33728883  0.49827494  1
  Cu  Cu110  1  0.66364784  0.33202897  -0.00072054  1
  Cu  Cu111  1  0.16416139  0.17652434  0.75293395  1
  Cu  Cu112  1  0.50770842  0.82942268  0.74240244  1
  Cu  Cu113  1  0.17070649  0.83135902  0.74747104  1
  Cu  Cu114  1  0.82863786  0.83378150  0.26318685  1
  Se  Se115  1  0.06836075  0.07648031  0.06220768  1
  Se  Se116  1  0.08121240  0.07834475  0.56229958  1
  Se  Se117  1  0.08704259  0.42512207  0.05450166  1
  Se  Se118  1  0.08082538  0.41108343  0.55560577  1
  Se  Se119  1  0.07471841  0.74693707  0.06799455  1
  Se  Se120  1  0.08692130  0.75190556  0.54928227  1
  Se  Se121  1  0.41068458  0.07755013  0.06659455  1
  Se  Se122  1  0.40583943  0.07576018  0.55501988  1
  Se  Se123  1  0.42301114  0.41577663  0.05859286  1
  Se  Se124  1  0.41953999  0.42328871  0.55272842  1
  Se  Se125  1  0.42433185  0.74884431  0.05436953  1
  Se  Se126  1  0.41453442  0.74667376  0.55481846  1
  Se  Se127  1  0.73264854  0.07026343  0.05728314  1
  Se  Se128  1  0.73611004  0.07932270  0.53687993  1
  Se  Se129  1  0.74393862  0.40769073  0.06249930  1
  Se  Se130  1  0.75646033  0.42502727  0.55267211  1
  Se  Se131  1  0.74599820  0.73719265  0.06087427  1
  Se  Se132  1  0.77809587  0.76837329  0.55820926  1
  Se  Se133  1  0.25626257  0.26269213  0.05489480  1
  Se  Se134  1  0.25172747  0.26031453  0.55386190  1
  Se  Se135  1  0.25497665  0.58702217  0.05698072  1
  Se  Se136  1  0.25393416  0.58232131  0.56109935  1
  Se  Se137  1  0.25780731  0.91752488  0.06368075  1
  Se  Se138  1  0.24445107  0.91088723  0.55046392  1
  Se  Se139  1  0.58695417  0.25559788  0.06363555  1
  Se  Se140  1  0.56271218  0.23974710  0.55216507  1
  Se  Se141  1  0.58260540  0.57785344  0.05323817  1
  Se  Se142  1  0.59432144  0.59692101  0.55463570  1
  Se  Se143  1  0.58671913  0.91173703  0.04855902  1
  Se  Se144  1  0.58199475  0.91473966  0.54022530  1
  Se  Se145  1  0.92667623  0.26155466  0.06108864  1
  Se  Se146  1  0.91605774  0.24987611  0.55282093  1
  Se  Se147  1  0.92215322  0.59266668  0.06293797  1
  Se  Se148  1  0.92761399  0.58558000  0.54661767  1
  Se  Se149  1  0.91538827  0.92234009  0.06357001  1
  Se  Se150  1  0.92249286  0.92281490  0.55423479  1
  Se  Se151  1  0.07551611  0.25681877  0.43805799  1
  Se  Se152  1  0.08076003  0.25699647  0.93955179  1
  Se  Se153  1  0.07843434  0.59069393  0.42955589  1
  Se  Se154  1  0.07427894  0.58940326  0.95156532  1
  Se  Se155  1  0.08467634  0.91296383  0.44303652  1
  Se  Se156  1  0.06982151  0.92322338  0.94839382  1
  Se  Se157  1  0.42101492  0.24940180  0.44758625  1
  Se  Se158  1  0.41293323  0.25521957  0.93881590  1
  Se  Se159  1  0.41915256  0.57889403  0.44893368  1
  Se  Se160  1  0.42300604  0.58512622  0.94215444  1
  Se  Se161  1  0.41542821  0.91387684  0.44749383  1
  Se  Se162  1  0.41896049  0.91529336  0.94874413  1
  Se  Se163  1  0.75466570  0.25355770  0.45787772  1
  Se  Se164  1  0.74795059  0.25612987  0.94114020  1
  Se  Se165  1  0.74335796  0.59614258  0.45204384  1
  Se  Se166  1  0.74631253  0.58676607  0.94029733  1
  Se  Se167  1  0.75234980  0.91587999  0.45635911  1
  Se  Se168  1  0.74013719  0.92289485  0.93513905  1
  Se  Se169  1  0.25923484  0.08005927  0.43251425  1
  Se  Se170  1  0.25404493  0.07281617  0.94543705  1
  Se  Se171  1  0.25813145  0.41232180  0.43665053  1
  Se  Se172  1  0.25370444  0.42501416  0.94485047  1
  Se  Se173  1  0.24869211  0.74576132  0.44839191  1
  Se  Se174  1  0.26135075  0.74521890  0.94017549  1
  Se  Se175  1  0.59716451  0.07380688  0.45827601  1
  Se  Se176  1  0.59155965  0.07769443  0.94069197  1
  Se  Se177  1  0.58369477  0.41669918  0.45472251  1
  Se  Se178  1  0.58349376  0.41657442  0.94509593  1
  Se  Se179  1  0.57096313  0.75724128  0.45263362  1
  Se  Se180  1  0.58413360  0.75074428  0.94194055  1
  Se  Se181  1  0.92154565  0.08440632  0.44751171  1
  Se  Se182  1  0.91888984  0.07564764  0.94578101  1
  Se  Se183  1  0.91411767  0.42486524  0.44724747  1
  Se  Se184  1  0.91840185  0.40887444  0.93936384  1
  Se  Se185  1  0.91538047  0.75250734  0.44118531  1
  Se  Se186  1  0.92239285  0.73942925  0.94524238  1
  Se  Se187  1  0.25460162  0.25054150  0.30005789  1
  Se  Se188  1  0.25484609  0.25417604  0.80317547  1
  Se  Se189  1  0.25162378  0.58411415  0.30135583  1
  Se  Se190  1  0.25104878  0.58758085  0.80391893  1
  Se  Se191  1  0.24748462  0.90556227  0.31443601  1
  Se  Se192  1  0.25258882  0.91687595  0.80152353  1
  Se  Se193  1  0.58582148  0.24836825  0.31210156  1
  Se  Se194  1  0.59161267  0.26049528  0.79959391  1
  Se  Se195  1  0.58703480  0.57905214  0.31341212  1
  Se  Se196  1  0.58772094  0.58807964  0.80050166  1
  Se  Se197  1  0.58466298  0.90231949  0.31726852  1
  Se  Se198  1  0.57735903  0.91514764  0.80589253  1
  Se  Se199  1  0.91203272  0.25867125  0.30838890  1
  Se  Se200  1  0.91679721  0.24625178  0.79762704  1
  Se  Se201  1  0.91303127  0.58259383  0.30520383  1
  Se  Se202  1  0.90517498  0.57005136  0.80857051  1
  Se  Se203  1  0.91085539  0.92512296  0.30746950  1
  Se  Se204  1  0.90658850  0.90074931  0.79670544  1
  Se  Se205  1  0.08221459  0.08559993  0.30111502  1
  Se  Se206  1  0.09439056  0.09237727  0.81514907  1
  Se  Se207  1  0.08447078  0.41394155  0.29962483  1
  Se  Se208  1  0.08306215  0.41690186  0.80457410  1
  Se  Se209  1  0.07908119  0.75087608  0.30211784  1
  Se  Se210  1  0.09041011  0.75660675  0.81125806  1
  Se  Se211  1  0.43465878  0.08080951  0.31311344  1
  Se  Se212  1  0.43118336  0.09976563  0.80411939  1
  Se  Se213  1  0.42095263  0.41370274  0.30754028  1
  Se  Se214  1  0.41683429  0.42176447  0.80134925  1
  Se  Se215  1  0.41837072  0.73814224  0.30639453  1
  Se  Se216  1  0.42055392  0.75191945  0.79803784  1
  Se  Se217  1  0.74913061  0.09517844  0.32414334  1
  Se  Se218  1  0.76059817  0.09174971  0.80681067  1
  Se  Se219  1  0.74479168  0.41847220  0.31496271  1
  Se  Se220  1  0.74596173  0.41850160  0.79876389  1
  Se  Se221  1  0.74469298  0.74718117  0.31064446  1
  Se  Se222  1  0.74495553  0.73936756  0.79353110  1
  Se  Se223  1  0.24841384  0.09269116  0.18839110  1
  Se  Se224  1  0.24054405  0.09685945  0.69026627  1
  Se  Se225  1  0.25214346  0.41599830  0.19427633  1
  Se  Se226  1  0.25037249  0.41532451  0.69857994  1
  Se  Se227  1  0.25093469  0.74805868  0.20081321  1
  Se  Se228  1  0.25449050  0.74968791  0.69576641  1
  Se  Se229  1  0.57511079  0.08053144  0.19484670  1
  Se  Se230  1  0.58342183  0.09966117  0.68293406  1
  Se  Se231  1  0.58994999  0.41553177  0.20213641  1
  Se  Se232  1  0.58104892  0.41577651  0.69625442  1
  Se  Se233  1  0.58351650  0.74209283  0.19796770  1
  Se  Se234  1  0.58958770  0.74965845  0.68647356  1
  Se  Se235  1  0.90752467  0.08590297  0.20408526  1
  Se  Se236  1  0.90388587  0.07926442  0.68342287  1
  Se  Se237  1  0.91190751  0.42159628  0.19922140  1
  Se  Se238  1  0.91775676  0.41535214  0.69646457  1
  Se  Se239  1  0.91186440  0.75295704  0.20503296  1
  Se  Se240  1  0.90799370  0.73793428  0.68264553  1
  Se  Se241  1  0.08212586  0.25257813  0.19774645  1
  Se  Se242  1  0.07759202  0.25272804  0.69826181  1
  Se  Se243  1  0.08309115  0.58305576  0.19835388  1
  Se  Se244  1  0.09083264  0.57736414  0.68927231  1
  Se  Se245  1  0.08116065  0.92250431  0.20343285  1
  Se  Se246  1  0.08299249  0.90879846  0.69300777  1
  Se  Se247  1  0.42869458  0.23958555  0.20573326  1
  Se  Se248  1  0.41279464  0.25932958  0.69426863  1
  Se  Se249  1  0.42173117  0.57722557  0.19676242  1
  Se  Se250  1  0.41461756  0.58673374  0.69669935  1
  Se  Se251  1  0.42251380  0.90667864  0.19874799  1
  Se  Se252  1  0.43196397  0.91483325  0.68275398  1
  Se  Se253  1  0.74397836  0.25032552  0.20267839  1
  Se  Se254  1  0.74782151  0.25255236  0.68588782  1
  Se  Se255  1  0.74404894  0.58376927  0.20324635  1
  Se  Se256  1  0.75461384  0.58029383  0.67517602  1
  Se  Se257  1  0.74873505  0.90683798  0.19476558  1
  Se  Se258  1  0.74677322  0.90776097  0.68375653  1
