# generated using pymatgen
data_In86Cu29Se144
_symmetry_space_group_name_H-M   'P 1'
_cell_length_a   17.59502658
_cell_length_b   17.58926014
_cell_length_c   23.45009700
_cell_angle_alpha   90.00614612
_cell_angle_beta   90.00158324
_cell_angle_gamma   89.99634686
_symmetry_Int_Tables_number   1
_chemical_formula_structural   In86Cu29Se144
_chemical_formula_sum   'In86 Cu29 Se144'
_cell_volume   7257.41802684
_cell_formula_units_Z   1
loop_
 _symmetry_equiv_pos_site_id
 _symmetry_equiv_pos_as_xyz
  1  'x, y, z'
loop_
 _atom_site_type_symbol
 _atom_site_label
 _atom_site_symmetry_multiplicity
 _atom_site_fract_x
 _atom_site_fract_y
 _atom_site_fract_z
 _atom_site_occupancy
  In  In0  1  -0.01646782  0.17346403  0.14296216  1
  In  In1  1  -0.00473475  0.17236750  0.63126959  1
  In  In2  1  -0.01756379  0.50390505  0.12628347  1
  In  In3  1  -0.00266724  0.49628974  0.62720305  1
  In  In4  1  0.00645615  0.84023968  0.12386088  1
  In  In5  1  -0.00765147  0.83931372  0.62728914  1
  In  In6  1  0.34750026  0.14541699  0.12533135  1
  In  In7  1  0.33603246  0.15972714  0.62983679  1
  In  In8  1  0.34205211  0.50510859  0.12854490  1
  In  In9  1  0.31309632  0.47382292  0.59271349  1
  In  In10  1  0.32163981  0.84440490  0.13410798  1
  In  In11  1  0.34065977  0.82990992  0.62078833  1
  In  In12  1  0.65880685  0.16839883  0.12031621  1
  In  In13  1  0.66818843  0.16555211  0.61264474  1
  In  In14  1  0.67906050  0.49272504  0.13490416  1
  In  In15  1  0.66481620  0.49995446  0.61202072  1
  In  In16  1  0.67123810  0.83362910  0.14380480  1
  In  In17  1  0.66498541  0.83082874  0.61298470  1
  In  In18  1  0.16393056  -0.00483657  0.36875507  1
  In  In19  1  0.16480696  -0.00480084  0.87288811  1
  In  In20  1  0.16578749  0.34824760  0.38315032  1
  In  In21  1  0.16497227  0.33169952  0.86106018  1
  In  In22  1  0.16055922  0.65088594  0.37819942  1
  In  In23  1  0.16582372  0.68169042  0.87505715  1
  In  In24  1  0.50147020  0.00131573  0.37516497  1
  In  In25  1  0.50438653  0.01229135  0.87446342  1
  In  In26  1  0.48768677  0.33541110  0.38955476  1
  In  In27  1  0.49130899  0.33112819  0.86936928  1
  In  In28  1  0.50459457  0.66757107  0.36740171  1
  In  In29  1  0.49976428  0.66105294  0.87237619  1
  In  In30  1  0.82595708  0.00312132  0.36504554  1
  In  In31  1  0.84964567  0.00679835  0.87889410  1
  In  In32  1  0.84370794  0.32153883  0.37851988  1
  In  In33  1  0.84423107  0.32165018  0.88619202  1
  In  In34  1  0.82131102  0.67700612  0.38234140  1
  In  In35  1  0.83312501  0.65281648  0.87832551  1
  In  In36  1  -0.01762212  0.15877086  0.36142646  1
  In  In37  1  0.00163276  0.16606262  0.87287538  1
  In  In38  1  0.00300919  0.48888225  0.38222752  1
  In  In39  1  -0.00810012  0.48632858  0.86008091  1
  In  In40  1  -0.02743117  0.83613014  0.36758405  1
  In  In41  1  0.00828193  0.84672672  0.86832120  1
  In  In42  1  0.34763066  0.16989280  0.37983307  1
  In  In43  1  0.33597236  0.16474416  0.87042684  1
  In  In44  1  0.32686237  0.50284578  0.38016410  1
  In  In45  1  0.34167172  0.49380434  0.86809607  1
  In  In46  1  0.34702776  0.84587724  0.36976094  1
  In  In47  1  0.31639821  0.83034632  0.87620319  1
  In  In48  1  0.67658151  0.15659361  0.37621806  1
  In  In49  1  0.66715916  0.17583834  0.89475211  1
  In  In50  1  0.65578957  0.51496383  0.37943137  1
  In  In51  1  0.67144143  0.50720906  0.87767930  1
  In  In52  1  0.66950997  0.83259924  0.36589165  1
  In  In53  1  0.65533365  0.83410482  0.87841388  1
  In  In54  1  0.17818942  -0.00474647  0.12755668  1
  In  In55  1  0.16064788  0.00604564  0.63125932  1
  In  In56  1  0.15876839  0.32012696  0.12247526  1
  In  In57  1  0.15851550  0.34414136  0.63674836  1
  In  In58  1  0.15982493  0.68485197  0.12487379  1
  In  In59  1  0.16465903  0.63815791  0.62587738  1
  In  In60  1  0.49431080  0.00924322  0.13154516  1
  In  In61  1  0.49390059  -0.00803843  0.61575727  1
  In  In62  1  0.51788115  0.32280592  0.12507930  1
  In  In63  1  0.48328321  0.31726577  0.60326345  1
  In  In64  1  0.49717026  0.66061900  0.14366755  1
  In  In65  1  0.49328161  0.66715048  0.61199536  1
  In  In66  1  0.80945163  0.02016123  0.15738190  1
  In  In67  1  0.84265379  0.00612439  0.61748158  1
  In  In68  1  0.83281226  0.34388189  0.12269823  1
  In  In69  1  0.83759692  0.33702114  0.61643521  1
  In  In70  1  0.83529574  0.65864369  0.13124323  1
  In  In71  1  0.83785245  0.67153534  0.61836659  1
  In  In72  1  0.67717710  0.00841622  0.74609074  1
  In  In73  1  0.50497970  0.49184437  -0.00175142  1
  In  In74  1  0.49600874  0.83749069  0.00904672  1
  In  In75  1  0.32869690  0.33480332  0.25893221  1
  In  In76  1  0.83956460  0.84079548  0.00764174  1
  In  In77  1  0.67055148  0.66850212  0.75333452  1
  In  In78  1  0.32846963  0.66438124  0.74507241  1
  In  In79  1  0.66655980  0.33400460  0.25693280  1
  In  In80  1  -0.00063971  0.66816745  0.25133487  1
  In  In81  1  0.66920625  0.33488421  0.74700904  1
  In  In82  1  0.16299053  0.82746213  0.50224699  1
  In  In83  1  0.16562005  0.50237085  -0.01433392  1
  In  In84  1  0.16051810  0.17117150  0.50527542  1
  In  In85  1  0.16549860  0.16007348  -0.00421098  1
  Cu  Cu86  1  0.17570226  0.82883414  0.25268908  1
  Cu  Cu87  1  0.50042060  0.83454700  0.25359956  1
  Cu  Cu88  1  0.49531389  0.16769640  0.74657706  1
  Cu  Cu89  1  -0.01386737  -0.00515112  0.49371357  1
  Cu  Cu90  1  -0.00201064  0.65734380  0.49997245  1
  Cu  Cu91  1  0.84144254  0.16944059  0.75327427  1
  Cu  Cu92  1  0.66972741  0.65847912  0.00830591  1
  Cu  Cu93  1  0.17161221  0.16429505  0.75084554  1
  Cu  Cu94  1  0.67000041  0.33213753  0.49303813  1
  Cu  Cu95  1  0.33514029  0.00594839  0.49886243  1
  Cu  Cu96  1  0.32838632  0.67143497  0.00574171  1
  Cu  Cu97  1  0.66933347  0.67237028  0.49108078  1
  Cu  Cu98  1  0.83347990  0.50040693  0.25425356  1
  Cu  Cu99  1  0.16945925  0.49903307  0.25376943  1
  Cu  Cu100  1  0.34227685  0.31963223  -0.00345746  1
  Cu  Cu101  1  0.66860537  -0.00446451  0.49128553  1
  Cu  Cu102  1  0.16602275  0.16738757  0.24650826  1
  Cu  Cu103  1  0.83992186  0.83471476  0.74830944  1
  Cu  Cu104  1  0.16094521  0.83506621  0.74805991  1
  Cu  Cu105  1  0.34073823  0.67365654  0.49250552  1
  Cu  Cu106  1  0.00054480  0.00829369  0.00453667  1
  Cu  Cu107  1  0.49465465  0.83827135  0.74139692  1
  Cu  Cu108  1  -0.00450629  0.33987278  0.00305726  1
  Cu  Cu109  1  0.67562073  0.00267432  0.00923206  1
  Cu  Cu110  1  -0.00159139  0.67202582  0.00233300  1
  Cu  Cu111  1  -0.00431751  0.32810394  0.50433263  1
  Cu  Cu112  1  0.49309795  0.48948131  0.73714046  1
  Cu  Cu113  1  0.50204515  0.16427863  0.25368706  1
  Cu  Cu114  1  0.83728184  0.49758274  0.74783384  1
  Se  Se115  1  0.07904226  0.08631511  0.06827148  1
  Se  Se116  1  0.06780415  0.07239720  0.55576878  1
  Se  Se117  1  0.08078955  0.42046206  0.05838691  1
  Se  Se118  1  0.07940181  0.41155216  0.55721003  1
  Se  Se119  1  0.08200396  0.75867494  0.04943546  1
  Se  Se120  1  0.07602402  0.73757013  0.56357111  1
  Se  Se121  1  0.42520954  0.07710477  0.04881266  1
  Se  Se122  1  0.41751260  0.08830621  0.55337422  1
  Se  Se123  1  0.41148334  0.40489277  0.06000363  1
  Se  Se124  1  0.44389916  0.44093491  0.55253001  1
  Se  Se125  1  0.41281386  0.74129998  0.06798300  1
  Se  Se126  1  0.42091657  0.76060233  0.54450151  1
  Se  Se127  1  0.75793305  0.08230146  0.06503439  1
  Se  Se128  1  0.75026516  0.07710080  0.54928559  1
  Se  Se129  1  0.74259909  0.41828149  0.05512974  1
  Se  Se130  1  0.75162517  0.41572445  0.54857879  1
  Se  Se131  1  0.74433532  0.74835941  0.06328900  1
  Se  Se132  1  0.75354950  0.75101005  0.54878799  1
  Se  Se133  1  0.25970597  0.24713392  0.05910843  1
  Se  Se134  1  0.24797500  0.25455483  0.56849167  1
  Se  Se135  1  0.24739655  0.58448699  0.05959964  1
  Se  Se136  1  0.25321115  0.59258208  0.54452386  1
  Se  Se137  1  0.25285084  0.91493800  0.05379034  1
  Se  Se138  1  0.25097570  0.92667923  0.55792228  1
  Se  Se139  1  0.58550616  0.25036223  0.04659561  1
  Se  Se140  1  0.58548591  0.24610746  0.54414111  1
  Se  Se141  1  0.58275511  0.58403550  0.06585472  1
  Se  Se142  1  0.58692264  0.59166930  0.54804373  1
  Se  Se143  1  0.59634298  0.91892218  0.06636156  1
  Se  Se144  1  0.58314364  0.91660932  0.54791844  1
  Se  Se145  1  0.92177582  0.25456201  0.06186617  1
  Se  Se146  1  0.91351697  0.23943131  0.55370355  1
  Se  Se147  1  0.91328726  0.58894796  0.05261340  1
  Se  Se148  1  0.91414082  0.57636799  0.55554048  1
  Se  Se149  1  0.91664976  0.93719647  0.06837962  1
  Se  Se150  1  0.91022194  0.90814850  0.55031640  1
  Se  Se151  1  0.07179797  0.25127484  0.43777029  1
  Se  Se152  1  0.08086153  0.26396786  0.94295849  1
  Se  Se153  1  0.08473596  0.57313637  0.45215490  1
  Se  Se154  1  0.06901623  0.59273328  0.93440151  1
  Se  Se155  1  0.07363276  0.91553934  0.43949067  1
  Se  Se156  1  0.07812263  0.92417451  0.94707020  1
  Se  Se157  1  0.40462080  0.25462450  0.45736322  1
  Se  Se158  1  0.42444758  0.24059651  0.94099157  1
  Se  Se159  1  0.42049082  0.58773364  0.43911502  1
  Se  Se160  1  0.40665417  0.58957042  0.94512017  1
  Se  Se161  1  0.41870634  0.92073426  0.44786027  1
  Se  Se162  1  0.41655466  0.91560789  0.93533512  1
  Se  Se163  1  0.75376042  0.24434407  0.44531303  1
  Se  Se164  1  0.76012311  0.24931270  0.95687782  1
  Se  Se165  1  0.75356456  0.57937773  0.44829571  1
  Se  Se166  1  0.75249938  0.57919092  0.95276967  1
  Se  Se167  1  0.75263954  0.91532201  0.43648907  1
  Se  Se168  1  0.74503248  0.92358629  0.94078537  1
  Se  Se169  1  0.24765851  0.07985892  0.44168049  1
  Se  Se170  1  0.26018500  0.07181902  0.94166110  1
  Se  Se171  1  0.26092154  0.41008135  0.45141587  1
  Se  Se172  1  0.26139707  0.40269552  0.93885445  1
  Se  Se173  1  0.25340520  0.74985483  0.43417286  1
  Se  Se174  1  0.24425886  0.75263140  0.95274149  1
  Se  Se175  1  0.58399145  0.08438151  0.44426691  1
  Se  Se176  1  0.58829842  0.07651609  0.95117020  1
  Se  Se177  1  0.58474293  0.41836156  0.44569192  1
  Se  Se178  1  0.59267199  0.40452326  0.93562078  1
  Se  Se179  1  0.58474237  0.75344499  0.43714488  1
  Se  Se180  1  0.58600268  0.73631341  0.94896725  1
  Se  Se181  1  0.91003870  0.08234154  0.43897005  1
  Se  Se182  1  0.92079950  0.09381498  0.95006275  1
  Se  Se183  1  0.91359386  0.41271270  0.44991044  1
  Se  Se184  1  0.91894665  0.42470638  0.94494197  1
  Se  Se185  1  0.92114459  0.74707621  0.44674842  1
  Se  Se186  1  0.91913888  0.75211750  0.93861073  1
  Se  Se187  1  0.23956859  0.24203034  0.31668693  1
  Se  Se188  1  0.25687259  0.24906970  0.80083735  1
  Se  Se189  1  0.24962703  0.58400991  0.30558724  1
  Se  Se190  1  0.24307030  0.57929188  0.81206681  1
  Se  Se191  1  0.25479042  0.91981440  0.30243971  1
  Se  Se192  1  0.24848733  0.91418124  0.80144139  1
  Se  Se193  1  0.57252487  0.24782476  0.31751207  1
  Se  Se194  1  0.58476539  0.23769408  0.80736175  1
  Se  Se195  1  0.59043663  0.58784268  0.29880984  1
  Se  Se196  1  0.57282348  0.56731355  0.80049744  1
  Se  Se197  1  0.58288919  0.92182906  0.30360125  1
  Se  Se198  1  0.58068510  0.91309476  0.80093845  1
  Se  Se199  1  0.91620117  0.25727015  0.29642446  1
  Se  Se200  1  0.92184492  0.25571496  0.80584555  1
  Se  Se201  1  0.91506469  0.57954179  0.31558704  1
  Se  Se202  1  0.91418908  0.58734082  0.80108862  1
  Se  Se203  1  0.93165200  0.94090164  0.29816631  1
  Se  Se204  1  0.91601807  0.92374173  0.80239026  1
  Se  Se205  1  0.08627265  0.08533412  0.30394044  1
  Se  Se206  1  0.08597160  0.08367554  0.80602278  1
  Se  Se207  1  0.08486378  0.41713263  0.30582582  1
  Se  Se208  1  0.09122575  0.42226563  0.79633826  1
  Se  Se209  1  0.08834442  0.75780331  0.31477851  1
  Se  Se210  1  0.07940550  0.75107584  0.80168839  1
  Se  Se211  1  0.41461453  0.08362400  0.30591061  1
  Se  Se212  1  0.41808470  0.07978239  0.80067209  1
  Se  Se213  1  0.42369820  0.42410499  0.31115913  1
  Se  Se214  1  0.41384013  0.40930140  0.79557393  1
  Se  Se215  1  0.41388144  0.75005579  0.30232780  1
  Se  Se216  1  0.42235759  0.75563677  0.80677037  1
  Se  Se217  1  0.75154755  0.09283594  0.29538863  1
  Se  Se218  1  0.75622468  0.09659179  0.81498672  1
  Se  Se219  1  0.75524047  0.42321646  0.31812252  1
  Se  Se220  1  0.75756169  0.42070990  0.81113025  1
  Se  Se221  1  0.76019623  0.75211221  0.30111762  1
  Se  Se222  1  0.75857642  0.76305095  0.81384629  1
  Se  Se223  1  0.25370779  0.08505424  0.19733105  1
  Se  Se224  1  0.25254403  0.07822683  0.69839104  1
  Se  Se225  1  0.24146798  0.41757814  0.18770805  1
  Se  Se226  1  0.25842358  0.42855452  0.68771227  1
  Se  Se227  1  0.25324757  0.74251966  0.19803493  1
  Se  Se228  1  0.23723794  0.75471580  0.68396898  1
  Se  Se229  1  0.58622437  0.08663568  0.19668557  1
  Se  Se230  1  0.57826551  0.08891578  0.68663993  1
  Se  Se231  1  0.57254525  0.42312861  0.19727105  1
  Se  Se232  1  0.57916642  0.41326254  0.68024822  1
  Se  Se233  1  0.58428198  0.74667074  0.20504029  1
  Se  Se234  1  0.57776220  0.75267342  0.68919725  1
  Se  Se235  1  0.93643427  0.05975032  0.20454280  1
  Se  Se236  1  0.91565715  0.08045991  0.69666255  1
  Se  Se237  1  0.91495518  0.41750113  0.19931541  1
  Se  Se238  1  0.91397523  0.40808941  0.69470382  1
  Se  Se239  1  0.91264033  0.76069789  0.19183486  1
  Se  Se240  1  0.91595026  0.74669347  0.69435582  1
  Se  Se241  1  0.08078988  0.25550780  0.20132399  1
  Se  Se242  1  0.08455679  0.24658437  0.69913971  1
  Se  Se243  1  0.08940146  0.57707593  0.18927508  1
  Se  Se244  1  0.07677245  0.57760836  0.69914735  1
  Se  Se245  1  0.09480322  0.91072135  0.19541081  1
  Se  Se246  1  0.07734044  0.91958664  0.69571199  1
  Se  Se247  1  0.42120131  0.24726093  0.19465238  1
  Se  Se248  1  0.41878370  0.25415031  0.69128505  1
  Se  Se249  1  0.40829100  0.57945312  0.20686423  1
  Se  Se250  1  0.41781461  0.57928652  0.68309996  1
  Se  Se251  1  0.41866761  0.91746604  0.19733749  1
  Se  Se252  1  0.41031048  0.92092504  0.69149576  1
  Se  Se253  1  0.75072220  0.25033986  0.18975171  1
  Se  Se254  1  0.75638159  0.23962292  0.68925008  1
  Se  Se255  1  0.74987173  0.58530984  0.20325352  1
  Se  Se256  1  0.75175586  0.57549144  0.68999938  1
  Se  Se257  1  0.75159159  0.91047832  0.21421586  1
  Se  Se258  1  0.75499043  0.90802977  0.68691621  1
