# generated using pymatgen
data_In86Cu29Se144
_symmetry_space_group_name_H-M   'P 1'
_cell_length_a   17.56196282
_cell_length_b   17.55666229
_cell_length_c   23.41038335
_cell_angle_alpha   90.00749905
_cell_angle_beta   89.99066131
_cell_angle_gamma   90.01822431
_symmetry_Int_Tables_number   1
_chemical_formula_structural   In86Cu29Se144
_chemical_formula_sum   'In86 Cu29 Se144'
_cell_volume   7218.11010883
_cell_formula_units_Z   1
loop_
 _symmetry_equiv_pos_site_id
 _symmetry_equiv_pos_as_xyz
  1  'x, y, z'
loop_
 _atom_site_type_symbol
 _atom_site_label
 _atom_site_symmetry_multiplicity
 _atom_site_fract_x
 _atom_site_fract_y
 _atom_site_fract_z
 _atom_site_occupancy
  In  In0  1  0.00356906  0.13906021  0.12686524  1
  In  In1  1  -0.00405080  0.16089442  0.62511497  1
  In  In2  1  0.00809428  0.50957533  0.13156299  1
  In  In3  1  0.02131354  0.53014847  0.59355267  1
  In  In4  1  0.00200007  0.83743838  0.12372023  1
  In  In5  1  0.00182187  0.82689753  0.61681622  1
  In  In6  1  0.33076512  0.16318947  0.12645092  1
  In  In7  1  0.32500134  0.15823983  0.62578439  1
  In  In8  1  0.33743073  0.50026853  0.13951920  1
  In  In9  1  0.34505518  0.49941793  0.60318815  1
  In  In10  1  0.33195357  0.83965932  0.13421554  1
  In  In11  1  0.32956081  0.83441668  0.62315087  1
  In  In12  1  0.65971590  0.18030152  0.12120906  1
  In  In13  1  0.68856212  0.16801320  0.62863294  1
  In  In14  1  0.67434560  0.51358539  0.12974159  1
  In  In15  1  0.66658746  0.50068824  0.61293775  1
  In  In16  1  0.66327389  0.82777994  0.12398308  1
  In  In17  1  0.66375595  0.82925494  0.61055159  1
  In  In18  1  0.15302464  -0.01531200  0.36649615  1
  In  In19  1  0.17073707  -0.01042781  0.87350392  1
  In  In20  1  0.18151476  0.34356351  0.37294604  1
  In  In21  1  0.15049812  0.32289051  0.87446959  1
  In  In22  1  0.16386343  0.66880606  0.38162918  1
  In  In23  1  0.16293733  0.70053194  0.87330784  1
  In  In24  1  0.48309077  -0.01188805  0.36533157  1
  In  In25  1  0.49420648  0.00362398  0.88248256  1
  In  In26  1  0.49234114  0.34490398  0.37770974  1
  In  In27  1  0.49143469  0.31835314  0.86955519  1
  In  In28  1  0.49846605  0.67487294  0.37655799  1
  In  In29  1  0.50717865  0.67264239  0.87769486  1
  In  In30  1  0.85897726  -0.02424459  0.39873240  1
  In  In31  1  0.83864230  -0.01996541  0.87584788  1
  In  In32  1  0.82425762  0.33299013  0.38193496  1
  In  In33  1  0.83115820  0.34676307  0.86221672  1
  In  In34  1  0.84209103  0.67726576  0.38084417  1
  In  In35  1  0.84344143  0.67227318  0.86686363  1
  In  In36  1  -0.00084950  0.14560996  0.37951856  1
  In  In37  1  0.02004105  0.15153442  0.88411766  1
  In  In38  1  -0.01623461  0.52878441  0.39817162  1
  In  In39  1  -0.01011234  0.50497074  0.86917909  1
  In  In40  1  0.01241787  0.83373413  0.38401782  1
  In  In41  1  0.00064328  0.82960925  0.86822390  1
  In  In42  1  0.32796935  0.16572822  0.36269389  1
  In  In43  1  0.33915589  0.14922734  0.87938272  1
  In  In44  1  0.32771507  0.50178003  0.37907009  1
  In  In45  1  0.33307090  0.50311050  0.87432202  1
  In  In46  1  0.33456665  0.82717623  0.37265224  1
  In  In47  1  0.31358734  0.85192299  0.89341609  1
  In  In48  1  0.67367273  0.17235094  0.37313750  1
  In  In49  1  0.65282417  0.16614605  0.87096207  1
  In  In50  1  0.64926743  0.53872549  0.40858810  1
  In  In51  1  0.68320191  0.50310684  0.86396722  1
  In  In52  1  0.67195786  0.81898445  0.38003601  1
  In  In53  1  0.66365294  0.83244209  0.88467355  1
  In  In54  1  0.16565488  -0.00200977  0.12573363  1
  In  In55  1  0.16491353  -0.00889414  0.62832208  1
  In  In56  1  0.18276025  0.33534170  0.12828223  1
  In  In57  1  0.16232438  0.33577166  0.62334090  1
  In  In58  1  0.15488899  0.68250209  0.13853424  1
  In  In59  1  0.16434602  0.67362571  0.62013416  1
  In  In60  1  0.48620694  -0.01350261  0.12271597  1
  In  In61  1  0.49234584  -0.01183232  0.62373026  1
  In  In62  1  0.49545208  0.32260428  0.12336203  1
  In  In63  1  0.50302702  0.35184982  0.61741648  1
  In  In64  1  0.47723817  0.70729402  0.16552972  1
  In  In65  1  0.50657301  0.66671871  0.60640738  1
  In  In66  1  0.85484066  -0.01057619  0.13124577  1
  In  In67  1  0.84842980  0.00012764  0.61093932  1
  In  In68  1  0.82073975  0.33892822  0.13038845  1
  In  In69  1  0.83553399  0.32892162  0.62462315  1
  In  In70  1  0.82307695  0.68008846  0.13917497  1
  In  In71  1  0.84789736  0.69959649  0.58153433  1
  In  In72  1  0.32882014  0.67311398  0.73980961  1
  In  In73  1  0.66162138  0.34375555  0.25512376  1
  In  In74  1  0.50326772  0.16389875  0.48830053  1
  In  In75  1  -0.00816548  0.33205626  0.74350929  1
  In  In76  1  0.50511846  0.50656868  0.00500107  1
  In  In77  1  0.33283620  0.33028413  0.73889823  1
  In  In78  1  0.00706259  0.34048576  0.25409534  1
  In  In79  1  0.66643535  0.00007968  0.25593142  1
  In  In80  1  0.67134036  -0.00177033  0.74944100  1
  In  In81  1  0.16813374  0.16850314  0.50268668  1
  In  In82  1  0.67357289  0.66524428  0.73066614  1
  In  In83  1  0.83398581  0.50725456  -0.00492116  1
  In  In84  1  0.16947997  0.50309608  0.00091221  1
  In  In85  1  0.82871631  0.16165962  -0.00206730  1
  Cu  Cu86  1  0.33300662  0.31922139  -0.00049406  1
  Cu  Cu87  1  0.32674867  -0.00633290  0.49375427  1
  Cu  Cu88  1  0.83603542  0.49982897  0.73380196  1
  Cu  Cu89  1  0.00539731  0.32871980  0.50169280  1
  Cu  Cu90  1  0.33483366  0.67531330  0.01693919  1
  Cu  Cu91  1  0.83593782  0.51102354  0.26788105  1
  Cu  Cu92  1  0.50814093  0.49898311  0.73843618  1
  Cu  Cu93  1  0.84657027  0.83705982  0.26064214  1
  Cu  Cu94  1  0.84152722  0.16306642  0.74915950  1
  Cu  Cu95  1  0.16689376  0.16411665  0.25041342  1
  Cu  Cu96  1  0.66658534  0.00209720  0.00417118  1
  Cu  Cu97  1  0.16424910  0.51214821  0.25759056  1
  Cu  Cu98  1  0.65334523  0.33299290  -0.00775262  1
  Cu  Cu99  1  0.33202139  0.67680453  0.49544318  1
  Cu  Cu100  1  0.50735740  0.16744289  0.75103313  1
  Cu  Cu101  1  0.49281495  0.16449542  0.24394031  1
  Cu  Cu102  1  0.50155085  0.50394633  0.26313557  1
  Cu  Cu103  1  -0.00337709  0.67480101  -0.00215439  1
  Cu  Cu104  1  0.33088467  -0.00149836  0.00530406  1
  Cu  Cu105  1  0.66090684  0.67761420  0.00967414  1
  Cu  Cu106  1  0.66925196  0.32282476  0.50196908  1
  Cu  Cu107  1  0.48850811  0.83525719  0.75045259  1
  Cu  Cu108  1  0.17292416  0.15244531  0.75427465  1
  Cu  Cu109  1  0.83903439  0.15768508  0.25824859  1
  Cu  Cu110  1  0.16888803  0.83344209  0.25411705  1
  Cu  Cu111  1  0.83651204  0.82729787  0.73891899  1
  Cu  Cu112  1  0.16163163  0.51309420  0.74039174  1
  Cu  Cu113  1  0.66529984  0.00107401  0.50132536  1
  Cu  Cu114  1  0.00005689  0.31759637  0.00537429  1
  Se  Se115  1  0.08709485  0.07766578  0.05142729  1
  Se  Se116  1  0.07733948  0.07477499  0.55570201  1
  Se  Se117  1  0.07596779  0.41031897  0.06026606  1
  Se  Se118  1  0.09323597  0.41493345  0.54708780  1
  Se  Se119  1  0.08483447  0.74884396  0.05531611  1
  Se  Se120  1  0.07835107  0.74107236  0.54642034  1
  Se  Se121  1  0.41585972  0.08293747  0.05708263  1
  Se  Se122  1  0.40887751  0.07719143  0.55097864  1
  Se  Se123  1  0.40560707  0.41290199  0.05641316  1
  Se  Se124  1  0.42408084  0.41255102  0.53817156  1
  Se  Se125  1  0.42274778  0.75421958  0.06830780  1
  Se  Se126  1  0.41527175  0.75749481  0.55244729  1
  Se  Se127  1  0.74609789  0.07694842  0.06892008  1
  Se  Se128  1  0.75121569  0.08275354  0.55304204  1
  Se  Se129  1  0.73628677  0.41367429  0.05211206  1
  Se  Se130  1  0.75205650  0.40719099  0.55395499  1
  Se  Se131  1  0.75759054  0.75361188  0.05635210  1
  Se  Se132  1  0.71038841  0.72245527  0.54333607  1
  Se  Se133  1  0.24592320  0.24463482  0.05545928  1
  Se  Se134  1  0.26367717  0.26007590  0.55812399  1
  Se  Se135  1  0.25328016  0.58797537  0.07004848  1
  Se  Se136  1  0.25425249  0.59240405  0.55309034  1
  Se  Se137  1  0.25059536  0.91217224  0.05866514  1
  Se  Se138  1  0.24592414  0.91621439  0.55363606  1
  Se  Se139  1  0.57397386  0.24877739  0.04672173  1
  Se  Se140  1  0.58664125  0.24465721  0.56134272  1
  Se  Se141  1  0.58151902  0.59896054  0.07013375  1
  Se  Se142  1  0.57476547  0.56835170  0.54250014  1
  Se  Se143  1  0.58436538  0.91683234  0.05767277  1
  Se  Se144  1  0.57663169  0.91899101  0.55044816  1
  Se  Se145  1  0.91194918  0.25102498  0.06757997  1
  Se  Se146  1  0.92142412  0.24828219  0.55629436  1
  Se  Se147  1  0.92065814  0.59200172  0.06065531  1
  Se  Se148  1  0.89573825  0.56846521  0.54259230  1
  Se  Se149  1  0.91626562  0.91211473  0.05189725  1
  Se  Se150  1  0.89802608  0.88984850  0.54854067  1
  Se  Se151  1  0.08168906  0.25344914  0.43480633  1
  Se  Se152  1  0.09102877  0.24135767  0.95471870  1
  Se  Se153  1  0.09324789  0.58429648  0.45742889  1
  Se  Se154  1  0.07663051  0.58909743  0.93902771  1
  Se  Se155  1  0.08270725  0.92942660  0.45224301  1
  Se  Se156  1  0.09492912  0.89495819  0.93698758  1
  Se  Se157  1  0.40398567  0.25161527  0.43851963  1
  Se  Se158  1  0.41927235  0.24067553  0.94509058  1
  Se  Se159  1  0.41331499  0.59009560  0.44298817  1
  Se  Se160  1  0.40544721  0.59483932  0.94785997  1
  Se  Se161  1  0.41659842  0.91171577  0.44495176  1
  Se  Se162  1  0.42029952  0.91620343  0.95311246  1
  Se  Se163  1  0.75415444  0.23881224  0.45092167  1
  Se  Se164  1  0.74664841  0.26157263  0.93516186  1
  Se  Se165  1  0.78380556  0.56821291  0.44599669  1
  Se  Se166  1  0.73789423  0.60081197  0.94040535  1
  Se  Se167  1  0.74437349  0.91184010  0.44898734  1
  Se  Se168  1  0.74714047  0.91800907  0.94927245  1
  Se  Se169  1  0.25099568  0.07920556  0.43594552  1
  Se  Se170  1  0.24760056  0.07706510  0.94598862  1
  Se  Se171  1  0.25373658  0.41525988  0.45117010  1
  Se  Se172  1  0.25471855  0.40379149  0.93887491  1
  Se  Se173  1  0.24495668  0.76043204  0.44625531  1
  Se  Se174  1  0.24850674  0.74687899  0.95568471  1
  Se  Se175  1  0.58886150  0.06902568  0.43013426  1
  Se  Se176  1  0.58547923  0.08465670  0.94721808  1
  Se  Se177  1  0.59528864  0.40623048  0.44156277  1
  Se  Se178  1  0.58443469  0.42121770  0.93055506  1
  Se  Se179  1  0.59112268  0.73898430  0.45170751  1
  Se  Se180  1  0.57499678  0.75543883  0.95302982  1
  Se  Se181  1  0.90627097  0.09369810  0.45435115  1
  Se  Se182  1  0.92251107  0.06933894  0.94520690  1
  Se  Se183  1  0.92392380  0.40689215  0.44276451  1
  Se  Se184  1  0.92549723  0.40392692  0.94294439  1
  Se  Se185  1  0.91555305  0.76386648  0.45256823  1
  Se  Se186  1  0.91147951  0.75378749  0.94207944  1
  Se  Se187  1  0.24693416  0.25540800  0.29792027  1
  Se  Se188  1  0.24781678  0.24463915  0.80891916  1
  Se  Se189  1  0.25148959  0.59142380  0.31056261  1
  Se  Se190  1  0.24240144  0.58425538  0.80835084  1
  Se  Se191  1  0.25506326  0.91750061  0.30469501  1
  Se  Se192  1  0.25573394  0.90929995  0.80398778  1
  Se  Se193  1  0.57069516  0.24307652  0.30771909  1
  Se  Se194  1  0.58785862  0.25811166  0.79833576  1
  Se  Se195  1  0.58838845  0.58536177  0.31412052  1
  Se  Se196  1  0.58087863  0.58347849  0.80115631  1
  Se  Se197  1  0.58094688  0.90054848  0.30925072  1
  Se  Se198  1  0.57825655  0.90956528  0.80831776  1
  Se  Se199  1  0.91538314  0.24833999  0.31214586  1
  Se  Se200  1  0.91900064  0.23957399  0.81531746  1
  Se  Se201  1  0.92689903  0.59551789  0.30942812  1
  Se  Se202  1  0.91176794  0.58185104  0.79516772  1
  Se  Se203  1  0.93003304  0.91969409  0.31228230  1
  Se  Se204  1  0.91443936  0.91049636  0.79735684  1
  Se  Se205  1  0.08110650  0.08136284  0.30056267  1
  Se  Se206  1  0.08330425  0.07309013  0.80458447  1
  Se  Se207  1  0.08179921  0.43442505  0.31962861  1
  Se  Se208  1  0.08890284  0.42475132  0.80200018  1
  Se  Se209  1  0.08492345  0.75114639  0.30856495  1
  Se  Se210  1  0.05784336  0.72357911  0.80123588  1
  Se  Se211  1  0.41157703  0.07979135  0.29743445  1
  Se  Se212  1  0.42468621  0.08271056  0.80327672  1
  Se  Se213  1  0.41016932  0.41871430  0.30538886  1
  Se  Se214  1  0.42240968  0.42496591  0.80103580  1
  Se  Se215  1  0.42177568  0.75225106  0.30169750  1
  Se  Se216  1  0.41543213  0.75207565  0.81237637  1
  Se  Se217  1  0.76396482  0.07575746  0.31968005  1
  Se  Se218  1  0.76000209  0.08733318  0.81287349  1
  Se  Se219  1  0.74673687  0.43009601  0.31878894  1
  Se  Se220  1  0.75045291  0.42013451  0.78740973  1
  Se  Se221  1  0.75931789  0.75076110  0.30642423  1
  Se  Se222  1  0.74780148  0.75854057  0.80219585  1
  Se  Se223  1  0.24980401  0.08012734  0.19597131  1
  Se  Se224  1  0.25381246  0.07239323  0.69655214  1
  Se  Se225  1  0.24408326  0.42284045  0.20441186  1
  Se  Se226  1  0.24744603  0.43276063  0.68571027  1
  Se  Se227  1  0.25407633  0.74904804  0.20301319  1
  Se  Se228  1  0.23053448  0.76794006  0.69522097  1
  Se  Se229  1  0.58064330  0.08835313  0.18831548  1
  Se  Se230  1  0.58145350  0.08660967  0.68644987  1
  Se  Se231  1  0.57155709  0.42789473  0.18940953  1
  Se  Se232  1  0.59401287  0.41593572  0.68958694  1
  Se  Se233  1  0.61241120  0.73511583  0.20041625  1
  Se  Se234  1  0.56972256  0.75875353  0.68750618  1
  Se  Se235  1  0.92314295  0.07474645  0.20614619  1
  Se  Se236  1  0.91597226  0.07518631  0.69333552  1
  Se  Se237  1  0.90518204  0.42989836  0.19779239  1
  Se  Se238  1  0.92920367  0.42948570  0.67522089  1
  Se  Se239  1  0.92264838  0.75516782  0.19772829  1
  Se  Se240  1  0.90723623  0.74061051  0.67852927  1
  Se  Se241  1  0.08527729  0.24455135  0.18854486  1
  Se  Se242  1  0.09468951  0.23826817  0.69547341  1
  Se  Se243  1  0.07652803  0.59247852  0.20570374  1
  Se  Se244  1  0.07593595  0.58991273  0.68655775  1
  Se  Se245  1  0.08585745  0.91404631  0.19649427  1
  Se  Se246  1  0.06016851  0.92553776  0.68706797  1
  Se  Se247  1  0.40968558  0.25358017  0.19585346  1
  Se  Se248  1  0.43006839  0.24208807  0.68296048  1
  Se  Se249  1  0.41561851  0.58513659  0.20880299  1
  Se  Se250  1  0.42447744  0.58051771  0.68290745  1
  Se  Se251  1  0.42720118  0.90835759  0.20328497  1
  Se  Se252  1  0.40695605  0.91899803  0.69702257  1
  Se  Se253  1  0.75360594  0.23976613  0.20182614  1
  Se  Se254  1  0.75812801  0.25278356  0.70275640  1
  Se  Se255  1  0.75152398  0.58533620  0.20636534  1
  Se  Se256  1  0.76725476  0.58541757  0.67078851  1
  Se  Se257  1  0.75945993  0.90960378  0.19701549  1
  Se  Se258  1  0.75230220  0.90968307  0.68206506  1
