# generated using pymatgen
data_In86Cu29Se144
_symmetry_space_group_name_H-M   'P 1'
_cell_length_a   17.57763377
_cell_length_b   17.57895615
_cell_length_c   23.44550284
_cell_angle_alpha   90.04172820
_cell_angle_beta   90.00177311
_cell_angle_gamma   90.02534678
_symmetry_Int_Tables_number   1
_chemical_formula_structural   In86Cu29Se144
_chemical_formula_sum   'In86 Cu29 Se144'
_cell_volume   7244.57459166
_cell_formula_units_Z   1
loop_
 _symmetry_equiv_pos_site_id
 _symmetry_equiv_pos_as_xyz
  1  'x, y, z'
loop_
 _atom_site_type_symbol
 _atom_site_label
 _atom_site_symmetry_multiplicity
 _atom_site_fract_x
 _atom_site_fract_y
 _atom_site_fract_z
 _atom_site_occupancy
  In  In0  1  0.01249847  0.15921465  0.13337971  1
  In  In1  1  0.00329202  0.16692689  0.62379207  1
  In  In2  1  0.00091846  0.49768405  0.12720288  1
  In  In3  1  0.00911156  0.48331508  0.63139052  1
  In  In4  1  0.00061010  0.83532286  0.13547340  1
  In  In5  1  0.01424539  0.84672067  0.61303930  1
  In  In6  1  0.33209206  0.16261866  0.10617316  1
  In  In7  1  0.32298536  0.16893873  0.63031369  1
  In  In8  1  0.34202514  0.52190891  0.10557165  1
  In  In9  1  0.31271033  0.52154178  0.65469962  1
  In  In10  1  0.32199235  0.82862871  0.12412727  1
  In  In11  1  0.32110701  0.84438869  0.63516433  1
  In  In12  1  0.66618198  0.17465701  0.11688580  1
  In  In13  1  0.66433432  0.15299823  0.62812338  1
  In  In14  1  0.66970527  0.50201413  0.11668251  1
  In  In15  1  0.66835613  0.51327797  0.63601701  1
  In  In16  1  0.65567765  0.82245488  0.12520713  1
  In  In17  1  0.67016835  0.83248449  0.62595407  1
  In  In18  1  0.15678381  0.01388971  0.39043445  1
  In  In19  1  0.18159644  0.01739651  0.86033868  1
  In  In20  1  0.16022490  0.34486610  0.38270549  1
  In  In21  1  0.16314527  0.33341402  0.86969463  1
  In  In22  1  0.16509634  0.66531251  0.37801284  1
  In  In23  1  0.17971499  0.64855757  0.88025499  1
  In  In24  1  0.48684087  -0.00742319  0.37645602  1
  In  In25  1  0.50182292  0.00567939  0.87511448  1
  In  In26  1  0.49463753  0.33863392  0.37431890  1
  In  In27  1  0.47328794  0.35503318  0.88174787  1
  In  In28  1  0.49409595  0.65836183  0.35757766  1
  In  In29  1  0.47697571  0.63331853  0.84783933  1
  In  In30  1  0.84568534  -0.01138443  0.38492441  1
  In  In31  1  0.83216596  -0.00179591  0.86406101  1
  In  In32  1  0.84024754  0.31798098  0.37922826  1
  In  In33  1  0.85023271  0.33460905  0.87387032  1
  In  In34  1  0.84193227  0.67278187  0.36970959  1
  In  In35  1  0.82228357  0.66427086  0.87317599  1
  In  In36  1  0.00570723  0.16484499  0.37562264  1
  In  In37  1  0.01124669  0.17730674  0.86517058  1
  In  In38  1  0.01106811  0.51005246  0.36633179  1
  In  In39  1  0.01731768  0.48112910  0.88753648  1
  In  In40  1  -0.00060211  0.83266465  0.37782104  1
  In  In41  1  -0.00806653  0.83883221  0.86907582  1
  In  In42  1  0.31848959  0.15685007  0.37809995  1
  In  In43  1  0.32581849  0.16421907  0.87796155  1
  In  In44  1  0.32458288  0.49777811  0.37294517  1
  In  In45  1  0.32979433  0.49631094  0.86653548  1
  In  In46  1  0.33248798  0.82185820  0.38015909  1
  In  In47  1  0.33026784  0.82742703  0.86803304  1
  In  In48  1  0.67214780  0.17906107  0.37820725  1
  In  In49  1  0.65862778  0.15041056  0.87405591  1
  In  In50  1  0.66152573  0.51306658  0.36986565  1
  In  In51  1  0.65366904  0.51277564  0.88321639  1
  In  In52  1  0.67708644  0.83010078  0.37553279  1
  In  In53  1  0.66633793  0.83366723  0.86978280  1
  In  In54  1  0.16161096  -0.00517246  0.12169934  1
  In  In55  1  0.16651102  -0.00240880  0.62561447  1
  In  In56  1  0.16443659  0.32942220  0.12191112  1
  In  In57  1  0.17320827  0.33484899  0.62624166  1
  In  In58  1  0.17457793  0.65653128  0.13390336  1
  In  In59  1  0.16705540  0.67115623  0.62136807  1
  In  In60  1  0.49474341  0.00089131  0.11084416  1
  In  In61  1  0.49657069  0.00685620  0.63939593  1
  In  In62  1  0.49441598  0.33534362  0.11183860  1
  In  In63  1  0.49097246  0.33357876  0.63475669  1
  In  In64  1  0.50231780  0.65516517  0.13370406  1
  In  In65  1  0.49401481  0.67017798  0.63857131  1
  In  In66  1  0.84310053  0.00990042  0.12609908  1
  In  In67  1  0.83470061  0.00251566  0.62214476  1
  In  In68  1  0.83469603  0.34237346  0.12286072  1
  In  In69  1  0.85263883  0.33245343  0.62641682  1
  In  In70  1  0.84277087  0.65729784  0.13274477  1
  In  In71  1  0.82469164  0.67394157  0.62248463  1
  In  In72  1  0.00215742  0.66943528  0.75052386  1
  In  In73  1  0.67443304  -0.00339325  0.24613336  1
  In  In74  1  0.49917759  0.16511626  0.51171900  1
  In  In75  1  0.16891132  0.83426830  -0.00537555  1
  In  In76  1  0.49622876  0.83303433  0.50118423  1
  In  In77  1  0.83069061  0.16969036  -0.00385620  1
  In  In78  1  0.33333393  0.34527116  0.24643082  1
  In  In79  1  0.32514696  -0.00422052  0.25009231  1
  In  In80  1  0.50009710  0.82926255  -0.00642812  1
  In  In81  1  0.83333202  0.83019354  -0.00725612  1
  In  In82  1  0.49642055  0.49662854  0.50272131  1
  In  In83  1  0.84478950  0.50024594  0.50408907  1
  In  In84  1  0.67322225  0.33905395  0.23778790  1
  In  In85  1  0.66459615  0.33467094  0.75869772  1
  Cu  Cu86  1  0.66325470  0.66393986  -0.00231160  1
  Cu  Cu87  1  0.16282660  0.16674294  0.74615047  1
  Cu  Cu88  1  0.00859252  0.32714407  0.50229002  1
  Cu  Cu89  1  0.83555170  0.82775516  0.25570740  1
  Cu  Cu90  1  0.83714393  0.50452077  0.75105908  1
  Cu  Cu91  1  0.67784367  0.33583262  0.50330567  1
  Cu  Cu92  1  0.66099195  0.33473687  -0.00416951  1
  Cu  Cu93  1  0.32275868  0.33503027  -0.00611630  1
  Cu  Cu94  1  0.00192040  0.66527739  0.49459050  1
  Cu  Cu95  1  0.83460086  0.16725631  0.74766309  1
  Cu  Cu96  1  0.16330054  0.17051802  0.25109417  1
  Cu  Cu97  1  0.50044070  0.17079099  0.24289086  1
  Cu  Cu98  1  0.00362069  0.33405956  0.00032289  1
  Cu  Cu99  1  0.50378229  0.83612819  0.75366948  1
  Cu  Cu100  1  0.32564684  0.66317262  0.50472173  1
  Cu  Cu101  1  0.66703595  0.00437969  0.49992532  1
  Cu  Cu102  1  0.16519646  0.50401117  0.24956414  1
  Cu  Cu103  1  0.83373914  0.49523707  0.24802521  1
  Cu  Cu104  1  -0.00169276  0.00250746  0.50259377  1
  Cu  Cu105  1  0.32865435  0.33029793  0.50413551  1
  Cu  Cu106  1  0.15988650  0.83210068  0.25570856  1
  Cu  Cu107  1  0.00381496  0.66072512  0.00849352  1
  Cu  Cu108  1  0.49550251  0.16490704  0.75894777  1
  Cu  Cu109  1  0.84660077  0.15924514  0.25591793  1
  Cu  Cu110  1  0.49824379  0.82770941  0.24787261  1
  Cu  Cu111  1  0.83607372  0.84226796  0.74376768  1
  Cu  Cu112  1  0.00278435  0.00698569  -0.00207359  1
  Cu  Cu113  1  0.16383504  0.83139555  0.74493384  1
  Cu  Cu114  1  0.66681701  0.67296174  0.50001238  1
  Se  Se115  1  0.08581592  0.08553635  0.05421950  1
  Se  Se116  1  0.08509827  0.08246335  0.55574256  1
  Se  Se117  1  0.08397614  0.41831084  0.05587865  1
  Se  Se118  1  0.08870924  0.41512816  0.55418494  1
  Se  Se119  1  0.07996283  0.75069308  0.06232705  1
  Se  Se120  1  0.08520338  0.74844845  0.54972365  1
  Se  Se121  1  0.42505568  0.08907470  0.04264407  1
  Se  Se122  1  0.40687820  0.07231972  0.56320644  1
  Se  Se123  1  0.40975480  0.41773309  0.04584847  1
  Se  Se124  1  0.40594728  0.41283232  0.56408312  1
  Se  Se125  1  0.41644512  0.74547213  0.06306930  1
  Se  Se126  1  0.40847805  0.74378906  0.56338268  1
  Se  Se127  1  0.74507656  0.07317937  0.05570307  1
  Se  Se128  1  0.74993774  0.08751706  0.55309341  1
  Se  Se129  1  0.74862815  0.41197278  0.05038849  1
  Se  Se130  1  0.74820410  0.41826673  0.56705920  1
  Se  Se131  1  0.74717217  0.74128654  0.05782140  1
  Se  Se132  1  0.75052243  0.75768195  0.54990955  1
  Se  Se133  1  0.24263090  0.24984420  0.04842563  1
  Se  Se134  1  0.24611205  0.24428332  0.55436866  1
  Se  Se135  1  0.23496150  0.58772536  0.04876442  1
  Se  Se136  1  0.25231374  0.57597465  0.56223721  1
  Se  Se137  1  0.26160956  0.92758168  0.05288514  1
  Se  Se138  1  0.23767612  0.90340873  0.55757057  1
  Se  Se139  1  0.57990784  0.24876710  0.04785985  1
  Se  Se140  1  0.59187941  0.26246991  0.56455024  1
  Se  Se141  1  0.57874988  0.58456035  0.05403682  1
  Se  Se142  1  0.58654143  0.59335761  0.55981511  1
  Se  Se143  1  0.59574663  0.91879872  0.05329528  1
  Se  Se144  1  0.58288870  0.92872461  0.56034196  1
  Se  Se145  1  0.92465178  0.24974179  0.06051114  1
  Se  Se146  1  0.91831572  0.24773702  0.55173458  1
  Se  Se147  1  0.91487257  0.57836316  0.05655724  1
  Se  Se148  1  0.93082831  0.59076415  0.56639449  1
  Se  Se149  1  0.92537423  0.92106535  0.05517344  1
  Se  Se150  1  0.91244913  0.91642300  0.55149412  1
  Se  Se151  1  0.09090033  0.24516167  0.44579851  1
  Se  Se152  1  0.08319334  0.25039802  0.94393333  1
  Se  Se153  1  0.08568336  0.57687628  0.44751437  1
  Se  Se154  1  0.08616463  0.58209733  0.95028196  1
  Se  Se155  1  0.07940102  0.91520192  0.44903067  1
  Se  Se156  1  0.07831128  0.92454354  0.93578642  1
  Se  Se157  1  0.41261351  0.25338995  0.44347793  1
  Se  Se158  1  0.41080119  0.25087023  0.94469811  1
  Se  Se159  1  0.41188177  0.59193560  0.44198219  1
  Se  Se160  1  0.41886881  0.57364006  0.93610999  1
  Se  Se161  1  0.39835588  0.92530287  0.45003834  1
  Se  Se162  1  0.40669831  0.91896667  0.93834900  1
  Se  Se163  1  0.75629286  0.24637109  0.45346863  1
  Se  Se164  1  0.74190384  0.25788164  0.93338516  1
  Se  Se165  1  0.74828239  0.58684099  0.44476004  1
  Se  Se166  1  0.75334135  0.58174579  0.94909879  1
  Se  Se167  1  0.74657605  0.91611789  0.44775814  1
  Se  Se168  1  0.74473493  0.92679734  0.94061044  1
  Se  Se169  1  0.25479343  0.08059561  0.45611096  1
  Se  Se170  1  0.23942631  0.08383605  0.94647646  1
  Se  Se171  1  0.25325952  0.41951665  0.44911158  1
  Se  Se172  1  0.24388598  0.41917780  0.93840270  1
  Se  Se173  1  0.24585968  0.74777658  0.45016817  1
  Se  Se174  1  0.26495375  0.73871609  0.94682034  1
  Se  Se175  1  0.58423831  0.07932821  0.43783358  1
  Se  Se176  1  0.58178067  0.08015691  0.95031870  1
  Se  Se177  1  0.59584263  0.41035654  0.44219468  1
  Se  Se178  1  0.57580788  0.42029601  0.94621015  1
  Se  Se179  1  0.58027858  0.74147765  0.43676397  1
  Se  Se180  1  0.58596531  0.73867831  0.93303830  1
  Se  Se181  1  0.91827056  0.08740885  0.44622890  1
  Se  Se182  1  0.92146638  0.08180250  0.93490993  1
  Se  Se183  1  0.92959224  0.41089128  0.44072776  1
  Se  Se184  1  0.91434349  0.41665550  0.95245865  1
  Se  Se185  1  0.91388032  0.74916366  0.44704177  1
  Se  Se186  1  0.92945853  0.73715274  0.94080109  1
  Se  Se187  1  0.24744852  0.25060645  0.30831599  1
  Se  Se188  1  0.24622557  0.24460220  0.80492023  1
  Se  Se189  1  0.24851607  0.58542596  0.30547550  1
  Se  Se190  1  0.25104247  0.58564327  0.79814621  1
  Se  Se191  1  0.24035588  0.91217783  0.31687493  1
  Se  Se192  1  0.24900120  0.91270164  0.80044066  1
  Se  Se193  1  0.57903916  0.24998134  0.30353736  1
  Se  Se194  1  0.57109106  0.25025872  0.81867677  1
  Se  Se195  1  0.58492469  0.58202265  0.29401311  1
  Se  Se196  1  0.60417942  0.59564045  0.80117993  1
  Se  Se197  1  0.57638154  0.91153104  0.30760614  1
  Se  Se198  1  0.58473958  0.92204509  0.80555388  1
  Se  Se199  1  0.92498144  0.25053163  0.30487874  1
  Se  Se200  1  0.91849928  0.25222803  0.79820458  1
  Se  Se201  1  0.91468115  0.58136848  0.30212579  1
  Se  Se202  1  0.91944514  0.57869130  0.81483472  1
  Se  Se203  1  0.91747683  0.91541377  0.30588927  1
  Se  Se204  1  0.92203233  0.92364243  0.79564280  1
  Se  Se205  1  0.08863980  0.08069154  0.30598207  1
  Se  Se206  1  0.07747588  0.08047621  0.79717982  1
  Se  Se207  1  0.08666150  0.41448695  0.30210043  1
  Se  Se208  1  0.07472778  0.41283255  0.80222138  1
  Se  Se209  1  0.07937126  0.74617642  0.30915679  1
  Se  Se210  1  0.09451310  0.75365534  0.81495743  1
  Se  Se211  1  0.42079385  0.09305533  0.30494198  1
  Se  Se212  1  0.40963087  0.08004079  0.80813646  1
  Se  Se213  1  0.42984644  0.43339585  0.30388968  1
  Se  Se214  1  0.40656857  0.40982719  0.79412831  1
  Se  Se215  1  0.40834071  0.75208041  0.30101507  1
  Se  Se216  1  0.41500284  0.74954579  0.79780041  1
  Se  Se217  1  0.75628239  0.08630853  0.31298438  1
  Se  Se218  1  0.74897105  0.08644482  0.80045210  1
  Se  Se219  1  0.75695061  0.41747492  0.31368167  1
  Se  Se220  1  0.75728767  0.42682754  0.81464335  1
  Se  Se221  1  0.74622655  0.74459398  0.30241820  1
  Se  Se222  1  0.75930632  0.75908546  0.80300308  1
  Se  Se223  1  0.24594886  0.09395734  0.18881443  1
  Se  Se224  1  0.24764943  0.07859340  0.69816218  1
  Se  Se225  1  0.24527886  0.43021340  0.18424716  1
  Se  Se226  1  0.26674292  0.39674665  0.69962790  1
  Se  Se227  1  0.24609658  0.75371974  0.19971900  1
  Se  Se228  1  0.24848820  0.74419749  0.69698030  1
  Se  Se229  1  0.57973442  0.08645847  0.18721091  1
  Se  Se230  1  0.58483635  0.08593201  0.70618144  1
  Se  Se231  1  0.57247895  0.42147119  0.18519828  1
  Se  Se232  1  0.57788574  0.42639982  0.69751600  1
  Se  Se233  1  0.58539083  0.74330923  0.20039274  1
  Se  Se234  1  0.58676408  0.75481524  0.69690754  1
  Se  Se235  1  0.92731043  0.07542687  0.20111734  1
  Se  Se236  1  0.91671775  0.08511655  0.69193574  1
  Se  Se237  1  0.91835441  0.41162123  0.19705210  1
  Se  Se238  1  0.91866395  0.41565406  0.70291823  1
  Se  Se239  1  0.91973080  0.74676405  0.19994122  1
  Se  Se240  1  0.91781714  0.75997515  0.68591496  1
  Se  Se241  1  0.08306811  0.25668735  0.19829688  1
  Se  Se242  1  0.08292057  0.25322644  0.69241089  1
  Se  Se243  1  0.07705651  0.58604990  0.19816687  1
  Se  Se244  1  0.09207767  0.57659206  0.69432771  1
  Se  Se245  1  0.08636443  0.92129819  0.19939148  1
  Se  Se246  1  0.07967678  0.91747416  0.69642126  1
  Se  Se247  1  0.41464116  0.24518451  0.18513820  1
  Se  Se248  1  0.41559583  0.24207974  0.69868840  1
  Se  Se249  1  0.40056740  0.58501407  0.19380982  1
  Se  Se250  1  0.43086247  0.57433646  0.70552768  1
  Se  Se251  1  0.42358017  0.91268473  0.18851983  1
  Se  Se252  1  0.41535633  0.91686043  0.70171600  1
  Se  Se253  1  0.76503912  0.23482683  0.19169660  1
  Se  Se254  1  0.75170221  0.25033875  0.69035048  1
  Se  Se255  1  0.74881088  0.57557608  0.19358630  1
  Se  Se256  1  0.75745263  0.59272005  0.70074726  1
  Se  Se257  1  0.76239925  0.90375087  0.18593584  1
  Se  Se258  1  0.74816848  0.92293818  0.69204912  1
