# generated using pymatgen
data_In86Cu29Se144
_symmetry_space_group_name_H-M   'P 1'
_cell_length_a   17.57971135
_cell_length_b   17.57268972
_cell_length_c   23.43840237
_cell_angle_alpha   89.99586518
_cell_angle_beta   89.99954063
_cell_angle_gamma   89.99283734
_symmetry_Int_Tables_number   1
_chemical_formula_structural   In86Cu29Se144
_chemical_formula_sum   'In86 Cu29 Se144'
_cell_volume   7240.65711230
_cell_formula_units_Z   1
loop_
 _symmetry_equiv_pos_site_id
 _symmetry_equiv_pos_as_xyz
  1  'x, y, z'
loop_
 _atom_site_type_symbol
 _atom_site_label
 _atom_site_symmetry_multiplicity
 _atom_site_fract_x
 _atom_site_fract_y
 _atom_site_fract_z
 _atom_site_occupancy
  In  In0  1  0.00574890  0.17444789  0.13035581  1
  In  In1  1  0.00584503  0.15706883  0.62311288  1
  In  In2  1  -0.02941395  0.52166390  0.15848585  1
  In  In3  1  0.01292518  0.50690843  0.61922042  1
  In  In4  1  -0.00534830  0.82320174  0.11963069  1
  In  In5  1  -0.00650565  0.81322709  0.60634598  1
  In  In6  1  0.34787176  0.15007033  0.12455374  1
  In  In7  1  0.33773383  0.16199196  0.62797602  1
  In  In8  1  0.34697509  0.51609607  0.12561851  1
  In  In9  1  0.33302206  0.50345302  0.62007181  1
  In  In10  1  0.32426458  0.83438359  0.11587264  1
  In  In11  1  0.33890871  0.83094079  0.61897611  1
  In  In12  1  0.64911096  0.16148033  0.11947065  1
  In  In13  1  0.65428429  0.16608066  0.62919721  1
  In  In14  1  0.66912562  0.51439253  0.12796519  1
  In  In15  1  0.67084482  0.52742767  0.62769774  1
  In  In16  1  0.66766252  0.82723032  0.12770199  1
  In  In17  1  0.66266889  0.83533831  0.62810553  1
  In  In18  1  0.18087095  -0.01029774  0.38201169  1
  In  In19  1  0.16597157  -0.01843340  0.87003351  1
  In  In20  1  0.15878833  0.34502937  0.38526019  1
  In  In21  1  0.17166284  0.32303407  0.86960471  1
  In  In22  1  0.15866763  0.66708490  0.38218469  1
  In  In23  1  0.17855061  0.68005044  0.85810842  1
  In  In24  1  0.50485334  -0.01212488  0.38201602  1
  In  In25  1  0.50034566  -0.00854508  0.87766636  1
  In  In26  1  0.49097246  0.34129406  0.38147812  1
  In  In27  1  0.48725536  0.33577088  0.87109281  1
  In  In28  1  0.50166415  0.66850197  0.37657822  1
  In  In29  1  0.51631206  0.69461438  0.86434962  1
  In  In30  1  0.81357384  -0.00381059  0.36732611  1
  In  In31  1  0.79962554  -0.01805838  0.87032802  1
  In  In32  1  0.84099818  0.33152147  0.36948250  1
  In  In33  1  0.82931034  0.34030727  0.87677818  1
  In  In34  1  0.84496928  0.67491435  0.37017585  1
  In  In35  1  0.83700665  0.67224806  0.86934061  1
  In  In36  1  0.00547312  0.17259659  0.37362204  1
  In  In37  1  0.00643560  0.17248103  0.87630589  1
  In  In38  1  0.01862216  0.52040727  0.36239935  1
  In  In39  1  -0.01050334  0.52115987  0.86995985  1
  In  In40  1  0.01265435  0.81187058  0.39189417  1
  In  In41  1  0.01114053  0.82186286  0.87705056  1
  In  In42  1  0.33538725  0.16522447  0.38631698  1
  In  In43  1  0.34385307  0.16952617  0.86626146  1
  In  In44  1  0.30713470  0.53715907  0.41051586  1
  In  In45  1  0.34193410  0.50310737  0.86030461  1
  In  In46  1  0.35070320  0.80026350  0.40657189  1
  In  In47  1  0.33268112  0.83163235  0.86787489  1
  In  In48  1  0.66324489  0.15176572  0.37244459  1
  In  In49  1  0.65178104  0.13796389  0.87299284  1
  In  In50  1  0.65000687  0.50633464  0.37854506  1
  In  In51  1  0.66774891  0.50838802  0.86851913  1
  In  In52  1  0.66825846  0.83497356  0.37579867  1
  In  In53  1  0.66362161  0.83808966  0.88102961  1
  In  In54  1  0.17665310  -0.01263485  0.12335338  1
  In  In55  1  0.17220228  0.00846706  0.62044863  1
  In  In56  1  0.15791828  0.32905437  0.13203600  1
  In  In57  1  0.18545621  0.34609208  0.61567774  1
  In  In58  1  0.16045739  0.67182556  0.13124900  1
  In  In59  1  0.17759392  0.66229776  0.61583815  1
  In  In60  1  0.51049259  -0.00832356  0.10583004  1
  In  In61  1  0.50040567  -0.00371533  0.62685919  1
  In  In62  1  0.50674575  0.32784635  0.12317533  1
  In  In63  1  0.49205889  0.32082338  0.62176206  1
  In  In64  1  0.49710525  0.67542648  0.13191156  1
  In  In65  1  0.49480818  0.67540296  0.61731555  1
  In  In66  1  0.82753235  -0.02150515  0.11884170  1
  In  In67  1  0.83621421  -0.01692222  0.62755469  1
  In  In68  1  0.83209973  0.35369673  0.13212579  1
  In  In69  1  0.84191675  0.34317238  0.62490067  1
  In  In70  1  0.81877187  0.68428123  0.15207109  1
  In  In71  1  0.82318959  0.67276695  0.63473729  1
  In  In72  1  0.32847121  0.34499326  0.25715280  1
  In  In73  1  -0.00877219  -0.00267552  0.24699943  1
  In  In74  1  0.49943632  0.50531655  0.00267484  1
  In  In75  1  0.16268897  0.49586776  -0.00045800  1
  In  In76  1  0.83183171  0.15608366  -0.00188921  1
  In  In77  1  0.66656917  0.34345888  0.75388722  1
  In  In78  1  0.00455852  -0.00685844  0.74777867  1
  In  In79  1  0.01069808  0.34804595  0.73824473  1
  In  In80  1  0.66370030  0.33918403  0.24927565  1
  In  In81  1  0.83014837  0.51361078  0.00228020  1
  In  In82  1  0.83432170  0.50598674  0.50091679  1
  In  In83  1  0.82727682  0.16133124  0.48989844  1
  In  In84  1  0.17424185  0.15254043  0.00107515  1
  In  In85  1  0.33602562  -0.01026841  0.24692374  1
  Cu  Cu86  1  0.18214378  0.16842541  0.74553632  1
  Cu  Cu87  1  0.49104081  0.51382403  0.25655747  1
  Cu  Cu88  1  0.82448264  0.16560750  0.25074244  1
  Cu  Cu89  1  0.50050402  0.15487385  0.74815494  1
  Cu  Cu90  1  0.33031783  0.67023178  -0.01006709  1
  Cu  Cu91  1  0.66078448  0.33395163  0.50166245  1
  Cu  Cu92  1  0.66491865  0.67854395  0.50168383  1
  Cu  Cu93  1  0.00540397  0.67164269  0.00177392  1
  Cu  Cu94  1  0.66136804  0.32380665  -0.00346231  1
  Cu  Cu95  1  0.16964639  0.82750142  0.25602008  1
  Cu  Cu96  1  0.49709877  0.83098284  0.74850376  1
  Cu  Cu97  1  -0.00369587  -0.00614748  -0.00651267  1
  Cu  Cu98  1  0.83390944  0.83355722  0.25240458  1
  Cu  Cu99  1  0.16226858  0.17054360  0.25599671  1
  Cu  Cu100  1  0.33109505  0.32304767  -0.00517685  1
  Cu  Cu101  1  0.49993201  0.15942067  0.24854839  1
  Cu  Cu102  1  0.34250666  0.32344249  0.50649197  1
  Cu  Cu103  1  0.00033830  0.32726763  0.49701801  1
  Cu  Cu104  1  0.16898859  0.50555667  0.74070252  1
  Cu  Cu105  1  0.00010334  -0.00066449  0.50235661  1
  Cu  Cu106  1  0.83186584  0.17273715  0.75680405  1
  Cu  Cu107  1  0.16934894  0.82868918  0.73894381  1
  Cu  Cu108  1  0.50346111  0.83037596  0.25565816  1
  Cu  Cu109  1  0.00028232  0.34401659  0.01145012  1
  Cu  Cu110  1  0.49784218  0.50560172  0.74068471  1
  Cu  Cu111  1  0.66366309  -0.00177470  0.50196822  1
  Cu  Cu112  1  0.17276807  0.50676012  0.25970229  1
  Cu  Cu113  1  0.33699834  0.00606270  0.50499888  1
  Cu  Cu114  1  0.82747798  0.83275545  0.74920136  1
  Se  Se115  1  0.07128393  0.07237283  0.06097637  1
  Se  Se116  1  0.08546425  0.08605387  0.54877143  1
  Se  Se117  1  0.07363512  0.42502429  0.07271715  1
  Se  Se118  1  0.07979683  0.40898159  0.55398786  1
  Se  Se119  1  0.09213826  0.75294551  0.05362734  1
  Se  Se120  1  0.10486126  0.75654776  0.54700393  1
  Se  Se121  1  0.41582184  0.07553442  0.04790737  1
  Se  Se122  1  0.42434703  0.08603643  0.55745024  1
  Se  Se123  1  0.40649377  0.40715107  0.05780959  1
  Se  Se124  1  0.42060256  0.41543048  0.55598845  1
  Se  Se125  1  0.40821200  0.73999844  0.05710149  1
  Se  Se126  1  0.40528375  0.74275920  0.54413523  1
  Se  Se127  1  0.73790346  0.07005924  0.05620622  1
  Se  Se128  1  0.74738674  0.07788408  0.56211902  1
  Se  Se129  1  0.73669631  0.41124119  0.05537148  1
  Se  Se130  1  0.74063710  0.41438968  0.56117008  1
  Se  Se131  1  0.76242229  0.74718216  0.06515369  1
  Se  Se132  1  0.74959098  0.75395277  0.55963495  1
  Se  Se133  1  0.25495539  0.25110857  0.06410501  1
  Se  Se134  1  0.25371119  0.24179340  0.55655096  1
  Se  Se135  1  0.25530453  0.58894052  0.05462485  1
  Se  Se136  1  0.24024491  0.56406105  0.54595359  1
  Se  Se137  1  0.26111286  0.93191754  0.04677339  1
  Se  Se138  1  0.25290590  0.92052300  0.55512961  1
  Se  Se139  1  0.57264702  0.24482745  0.04729657  1
  Se  Se140  1  0.58311569  0.24493347  0.55318982  1
  Se  Se141  1  0.59103518  0.59842928  0.05719800  1
  Se  Se142  1  0.58482249  0.58932040  0.55215950  1
  Se  Se143  1  0.57150197  0.87908694  0.05014301  1
  Se  Se144  1  0.58108613  0.91436538  0.55515810  1
  Se  Se145  1  0.91433381  0.25644125  0.06032657  1
  Se  Se146  1  0.91700313  0.24915643  0.55518299  1
  Se  Se147  1  0.92563841  0.59245156  0.06429638  1
  Se  Se148  1  0.91890436  0.59677848  0.56211681  1
  Se  Se149  1  0.91772364  0.90884045  0.04937954  1
  Se  Se150  1  0.91421527  0.91464882  0.55042913  1
  Se  Se151  1  0.08756123  0.24400648  0.44775625  1
  Se  Se152  1  0.08150086  0.26124124  0.95123161  1
  Se  Se153  1  0.08062928  0.57678995  0.44989062  1
  Se  Se154  1  0.08408238  0.59425896  0.93789545  1
  Se  Se155  1  0.08325218  0.91922485  0.44640379  1
  Se  Se156  1  0.08645945  0.91164415  0.94640009  1
  Se  Se157  1  0.42641147  0.24410996  0.44974833  1
  Se  Se158  1  0.42069720  0.24574107  0.94380478  1
  Se  Se159  1  0.43524857  0.57865282  0.45058600  1
  Se  Se160  1  0.41584068  0.58958510  0.93437819  1
  Se  Se161  1  0.41638052  0.91761492  0.45288849  1
  Se  Se162  1  0.43265371  0.88667302  0.93869169  1
  Se  Se163  1  0.73788030  0.25945695  0.43643490  1
  Se  Se164  1  0.74186838  0.24711461  0.93488174  1
  Se  Se165  1  0.74264623  0.59438848  0.44050713  1
  Se  Se166  1  0.73866464  0.59857426  0.94087897  1
  Se  Se167  1  0.74974433  0.91929186  0.44765211  1
  Se  Se168  1  0.75179307  0.90748247  0.95542741  1
  Se  Se169  1  0.24813455  0.08385822  0.45106853  1
  Se  Se170  1  0.25694361  0.07460469  0.93082390  1
  Se  Se171  1  0.26155448  0.40560715  0.44922818  1
  Se  Se172  1  0.25870216  0.41125156  0.93665566  1
  Se  Se173  1  0.22524399  0.75993378  0.45607691  1
  Se  Se174  1  0.24398296  0.75334440  0.93986490  1
  Se  Se175  1  0.58200656  0.08248756  0.44796872  1
  Se  Se176  1  0.57722083  0.07389350  0.95162910  1
  Se  Se177  1  0.57850361  0.41965065  0.44989447  1
  Se  Se178  1  0.58825179  0.41299941  0.93801490  1
  Se  Se179  1  0.58141714  0.75748933  0.44506847  1
  Se  Se180  1  0.56864578  0.76658642  0.95212273  1
  Se  Se181  1  0.92187650  0.07275226  0.43346245  1
  Se  Se182  1  0.92087014  0.07327777  0.93041325  1
  Se  Se183  1  0.92211944  0.41282418  0.44095680  1
  Se  Se184  1  0.92516396  0.41841999  0.94390574  1
  Se  Se185  1  0.90622373  0.75090409  0.45189326  1
  Se  Se186  1  0.91872704  0.74725934  0.94387860  1
  Se  Se187  1  0.24589348  0.24588120  0.31514117  1
  Se  Se188  1  0.26036069  0.25590115  0.79885840  1
  Se  Se189  1  0.25252514  0.58975196  0.31535806  1
  Se  Se190  1  0.25510873  0.58547601  0.79564217  1
  Se  Se191  1  0.25788959  0.89928112  0.31407047  1
  Se  Se192  1  0.24887907  0.91250736  0.79585167  1
  Se  Se193  1  0.57388175  0.24682382  0.30837469  1
  Se  Se194  1  0.57910559  0.24249612  0.80734280  1
  Se  Se195  1  0.58662291  0.59177137  0.30200524  1
  Se  Se196  1  0.57554107  0.58289746  0.80395661  1
  Se  Se197  1  0.58539600  0.91926628  0.30506414  1
  Se  Se198  1  0.58208956  0.91129367  0.80447058  1
  Se  Se199  1  0.91456075  0.24075685  0.30222164  1
  Se  Se200  1  0.91818448  0.25630313  0.80646140  1
  Se  Se201  1  0.91031911  0.57750917  0.30358437  1
  Se  Se202  1  0.91973325  0.59839722  0.79513746  1
  Se  Se203  1  0.91559421  0.90844944  0.31619834  1
  Se  Se204  1  0.91136191  0.91091056  0.81183793  1
  Se  Se205  1  0.09035192  0.07737355  0.30943939  1
  Se  Se206  1  0.09343291  0.09352769  0.80517473  1
  Se  Se207  1  0.08860798  0.41492186  0.30359169  1
  Se  Se208  1  0.09377543  0.42978587  0.81116813  1
  Se  Se209  1  0.08067441  0.74730596  0.30676445  1
  Se  Se210  1  0.08045327  0.75236039  0.79423428  1
  Se  Se211  1  0.41869264  0.08422311  0.31090153  1
  Se  Se212  1  0.41887492  0.07296456  0.80426189  1
  Se  Se213  1  0.41203053  0.43617409  0.31762591  1
  Se  Se214  1  0.42000420  0.41461205  0.79266791  1
  Se  Se215  1  0.41407722  0.75473012  0.31183584  1
  Se  Se216  1  0.41094465  0.74433994  0.79720105  1
  Se  Se217  1  0.73836975  0.07910189  0.29446297  1
  Se  Se218  1  0.74667862  0.08208433  0.79935211  1
  Se  Se219  1  0.74980711  0.42427910  0.31371219  1
  Se  Se220  1  0.76857362  0.43412671  0.80338397  1
  Se  Se221  1  0.74965588  0.75070337  0.30597918  1
  Se  Se222  1  0.74412326  0.75529459  0.80859768  1
  Se  Se223  1  0.24201451  0.09082147  0.19435712  1
  Se  Se224  1  0.25677223  0.07506437  0.69679441  1
  Se  Se225  1  0.24480370  0.43209645  0.18797407  1
  Se  Se226  1  0.25551411  0.41836751  0.69504843  1
  Se  Se227  1  0.25221578  0.75447638  0.19322628  1
  Se  Se228  1  0.25524641  0.74639871  0.68808821  1
  Se  Se229  1  0.57268299  0.07516344  0.18839245  1
  Se  Se230  1  0.58823493  0.07374054  0.69881753  1
  Se  Se231  1  0.56780697  0.43219166  0.19215386  1
  Se  Se232  1  0.58115666  0.42233579  0.68411844  1
  Se  Se233  1  0.58812543  0.74664720  0.20194747  1
  Se  Se234  1  0.57912468  0.74776599  0.69269454  1
  Se  Se235  1  0.90226418  0.08861105  0.18414456  1
  Se  Se236  1  0.90929766  0.09134578  0.69476293  1
  Se  Se237  1  0.92812165  0.39680017  0.20645209  1
  Se  Se238  1  0.91079347  0.43982180  0.69161651  1
  Se  Se239  1  0.92850048  0.75478246  0.20436117  1
  Se  Se240  1  0.91751895  0.75893043  0.69340798  1
  Se  Se241  1  0.07702925  0.25449209  0.20640525  1
  Se  Se242  1  0.09540322  0.24552177  0.68640945  1
  Se  Se243  1  0.08696807  0.58818777  0.20458650  1
  Se  Se244  1  0.08721245  0.59111974  0.69015975  1
  Se  Se245  1  0.09063539  0.90829554  0.19408385  1
  Se  Se246  1  0.08444151  0.90760396  0.67974869  1
  Se  Se247  1  0.41822569  0.24817592  0.19641027  1
  Se  Se248  1  0.41969492  0.24473315  0.69909318  1
  Se  Se249  1  0.40906180  0.59828539  0.20319743  1
  Se  Se250  1  0.41534108  0.58820870  0.68770793  1
  Se  Se251  1  0.42875927  0.90599573  0.18628983  1
  Se  Se252  1  0.41455919  0.91397571  0.69370377  1
  Se  Se253  1  0.74735467  0.24548623  0.18497679  1
  Se  Se254  1  0.75763001  0.25134361  0.69108000  1
  Se  Se255  1  0.77588533  0.55622355  0.19479622  1
  Se  Se256  1  0.74721964  0.59007878  0.70694883  1
  Se  Se257  1  0.74863438  0.91410497  0.19803088  1
  Se  Se258  1  0.74484901  0.91977182  0.69917460  1
