# generated using pymatgen
data_In86Cu29Se144
_symmetry_space_group_name_H-M   'P 1'
_cell_length_a   17.56970557
_cell_length_b   17.56720420
_cell_length_c   23.42534062
_cell_angle_alpha   89.99325918
_cell_angle_beta   90.01266175
_cell_angle_gamma   90.00606401
_symmetry_Int_Tables_number   1
_chemical_formula_structural   In86Cu29Se144
_chemical_formula_sum   'In86 Cu29 Se144'
_cell_volume   7230.24529780
_cell_formula_units_Z   1
loop_
 _symmetry_equiv_pos_site_id
 _symmetry_equiv_pos_as_xyz
  1  'x, y, z'
loop_
 _atom_site_type_symbol
 _atom_site_label
 _atom_site_symmetry_multiplicity
 _atom_site_fract_x
 _atom_site_fract_y
 _atom_site_fract_z
 _atom_site_occupancy
  In  In0  1  -0.00660767  0.16306704  0.12162158  1
  In  In1  1  0.01369707  0.17330557  0.62901847  1
  In  In2  1  -0.00352611  0.51188417  0.13124288  1
  In  In3  1  0.00336109  0.50459614  0.62891488  1
  In  In4  1  -0.00338539  0.83161367  0.13635930  1
  In  In5  1  -0.01415272  0.81725613  0.61410805  1
  In  In6  1  0.34132540  0.17556225  0.11532259  1
  In  In7  1  0.32232999  0.18235830  0.63397902  1
  In  In8  1  0.31902129  0.48727546  0.12666612  1
  In  In9  1  0.30887159  0.51861126  0.65636690  1
  In  In10  1  0.34231066  0.82336657  0.12056379  1
  In  In11  1  0.32230543  0.82502257  0.61242682  1
  In  In12  1  0.67427087  0.17485904  0.11485357  1
  In  In13  1  0.67081186  0.18305279  0.62993371  1
  In  In14  1  0.68009945  0.48760628  0.13583015  1
  In  In15  1  0.67122486  0.49719254  0.63082840  1
  In  In16  1  0.65943262  0.83117289  0.12552078  1
  In  In17  1  0.65867749  0.82611153  0.61514362  1
  In  In18  1  0.16221897  0.00612233  0.37958712  1
  In  In19  1  0.17442612  0.00463622  0.87354933  1
  In  In20  1  0.17231711  0.32739315  0.38506899  1
  In  In21  1  0.14111045  0.32021244  0.84508451  1
  In  In22  1  0.16068473  0.67169955  0.38501183  1
  In  In23  1  0.15295052  0.64308992  0.84688422  1
  In  In24  1  0.49781706  -0.00206437  0.37734969  1
  In  In25  1  0.49995795  -0.00408396  0.88486158  1
  In  In26  1  0.50422597  0.33424217  0.36682104  1
  In  In27  1  0.49216420  0.32897007  0.86525186  1
  In  In28  1  0.51265042  0.66794016  0.37626350  1
  In  In29  1  0.50072813  0.66236954  0.86615610  1
  In  In30  1  0.83320609  -0.01769995  0.37651899  1
  In  In31  1  0.84344287  0.00565538  0.87705245  1
  In  In32  1  0.83503729  0.35413280  0.37454676  1
  In  In33  1  0.83425078  0.33667274  0.87805609  1
  In  In34  1  0.83870551  0.66197061  0.37798411  1
  In  In35  1  0.81983343  0.65921274  0.86513527  1
  In  In36  1  0.01624992  0.17280822  0.37420523  1
  In  In37  1  -0.00586015  0.17300231  0.88155234  1
  In  In38  1  -0.00955665  0.50889198  0.38520249  1
  In  In39  1  -0.00740714  0.48994685  0.86842313  1
  In  In40  1  -0.00020947  0.82817429  0.37829830  1
  In  In41  1  0.00533792  0.83148892  0.86655361  1
  In  In42  1  0.32717682  0.17182963  0.37706581  1
  In  In43  1  0.31955299  0.18305361  0.88228233  1
  In  In44  1  0.33065251  0.48580595  0.37723087  1
  In  In45  1  0.31738892  0.48013451  0.84791800  1
  In  In46  1  0.33613494  0.82617327  0.38873336  1
  In  In47  1  0.34061516  0.82936912  0.87239698  1
  In  In48  1  0.65902743  0.17351562  0.37047321  1
  In  In49  1  0.66229233  0.17234241  0.88604509  1
  In  In50  1  0.68731120  0.51729606  0.35682436  1
  In  In51  1  0.67292535  0.51152359  0.86645379  1
  In  In52  1  0.69213726  0.81857944  0.39819504  1
  In  In53  1  0.66032483  0.81150598  0.87073217  1
  In  In54  1  0.15146398  0.00350721  0.12964612  1
  In  In55  1  0.17030237  0.00488554  0.61613607  1
  In  In56  1  0.18122431  0.34033276  0.12696462  1
  In  In57  1  0.16202879  0.33602909  0.62897504  1
  In  In58  1  0.15063976  0.65522880  0.12703116  1
  In  In59  1  0.15884634  0.66228748  0.62562090  1
  In  In60  1  0.49842891  -0.00121294  0.11639685  1
  In  In61  1  0.50722294  -0.01070898  0.61797642  1
  In  In62  1  0.50280213  0.33066044  0.12357520  1
  In  In63  1  0.48823630  0.35424248  0.64707577  1
  In  In64  1  0.50224430  0.67715016  0.11946197  1
  In  In65  1  0.48751165  0.66722884  0.63722841  1
  In  In66  1  0.83452886  0.00833369  0.12866609  1
  In  In67  1  0.83521720  -0.00424509  0.61752977  1
  In  In68  1  0.83304897  0.33086177  0.11920136  1
  In  In69  1  0.82587096  0.35048515  0.63160303  1
  In  In70  1  0.83758716  0.65595043  0.13426101  1
  In  In71  1  0.83745593  0.66688050  0.62811762  1
  In  In72  1  0.67001904  -0.00272243  0.25069268  1
  In  In73  1  0.50193727  0.50576765  -0.01145917  1
  In  In74  1  0.49980805  0.49651043  0.50088698  1
  In  In75  1  0.67123286  -0.00134139  0.74200365  1
  In  In76  1  0.00266183  0.34049561  0.25264979  1
  In  In77  1  0.17795600  0.83654084  -0.00453089  1
  In  In78  1  0.16503220  0.49649821  -0.00394447  1
  In  In79  1  0.33141154  0.00312852  0.25817380  1
  In  In80  1  0.83506776  0.16514807  0.50224959  1
  In  In81  1  0.82809765  0.83580335  -0.00487927  1
  In  In82  1  -0.00213537  -0.00357895  0.74779626  1
  In  In83  1  0.32860111  0.66038465  0.24602801  1
  In  In84  1  0.33176484  0.00300137  0.74491333  1
  In  In85  1  0.49869380  0.16733674  0.50415414  1
  Cu  Cu86  1  0.66520735  -0.00280837  0.00422898  1
  Cu  Cu87  1  0.33286249  0.65978852  0.51003951  1
  Cu  Cu88  1  0.83936758  0.82098507  0.25836959  1
  Cu  Cu89  1  0.66957064  0.33797940  0.00041973  1
  Cu  Cu90  1  0.50148678  0.17776350  0.23921981  1
  Cu  Cu91  1  0.83820532  0.16777186  0.24380526  1
  Cu  Cu92  1  0.16886956  0.17003513  0.25426884  1
  Cu  Cu93  1  0.49648795  0.49676006  0.25103156  1
  Cu  Cu94  1  0.00202169  0.33730214  0.50266012  1
  Cu  Cu95  1  -0.00197499  0.66588012  0.50327689  1
  Cu  Cu96  1  -0.00561458  0.66788512  0.00196378  1
  Cu  Cu97  1  0.32604816  0.33688684  0.50906824  1
  Cu  Cu98  1  0.00194411  0.33247440  -0.00482384  1
  Cu  Cu99  1  0.15886198  0.82727297  0.25650553  1
  Cu  Cu100  1  0.50636290  0.83282485  0.25243740  1
  Cu  Cu101  1  0.33411978  0.00109733  0.49805359  1
  Cu  Cu102  1  0.16361980  0.82653834  0.73782353  1
  Cu  Cu103  1  0.00087418  0.01000031  0.00284287  1
  Cu  Cu104  1  0.33313298  0.00631986  -0.00318725  1
  Cu  Cu105  1  0.66611768  0.66276289  -0.00580665  1
  Cu  Cu106  1  0.50171472  0.82792669  0.74675932  1
  Cu  Cu107  1  0.83713244  0.17578594  0.75445323  1
  Cu  Cu108  1  0.66492142  0.34012098  0.50184780  1
  Cu  Cu109  1  0.33296197  0.66705222  -0.00965488  1
  Cu  Cu110  1  0.50046251  0.16288668  0.76016936  1
  Cu  Cu111  1  0.00403323  -0.00265731  0.49883300  1
  Cu  Cu112  1  0.66994500  0.66152700  0.50083231  1
  Cu  Cu113  1  0.33241249  0.33209115  -0.00629943  1
  Cu  Cu114  1  0.83831051  0.50017669  0.74895805  1
  Se  Se115  1  0.08869398  0.09019066  0.05382297  1
  Se  Se116  1  0.07941400  0.08688216  0.55310486  1
  Se  Se117  1  0.07513051  0.41216653  0.06204803  1
  Se  Se118  1  0.08447262  0.42021279  0.55763140  1
  Se  Se119  1  0.07819669  0.75159741  0.05607499  1
  Se  Se120  1  0.08774668  0.74939695  0.55202772  1
  Se  Se121  1  0.42049966  0.08676748  0.04959005  1
  Se  Se122  1  0.40478478  0.08050172  0.56572452  1
  Se  Se123  1  0.40972686  0.41702423  0.05247477  1
  Se  Se124  1  0.40733310  0.41840568  0.56583414  1
  Se  Se125  1  0.41731337  0.74815027  0.04431717  1
  Se  Se126  1  0.42220220  0.74478967  0.55573094  1
  Se  Se127  1  0.75340915  0.07887824  0.05358900  1
  Se  Se128  1  0.73559767  0.08276776  0.56052765  1
  Se  Se129  1  0.75267728  0.42159080  0.05319334  1
  Se  Se130  1  0.75074339  0.42314480  0.55319970  1
  Se  Se131  1  0.74554986  0.74274127  0.05734419  1
  Se  Se132  1  0.75377227  0.74514448  0.55461876  1
  Se  Se133  1  0.24788680  0.25439382  0.05170933  1
  Se  Se134  1  0.24211402  0.24859261  0.55642488  1
  Se  Se135  1  0.25493874  0.59199612  0.05621379  1
  Se  Se136  1  0.25218233  0.57627962  0.56409923  1
  Se  Se137  1  0.25807204  0.92802619  0.06440884  1
  Se  Se138  1  0.24649698  0.91740417  0.54747603  1
  Se  Se139  1  0.58244351  0.25331683  0.05023961  1
  Se  Se140  1  0.58119515  0.26600239  0.56244954  1
  Se  Se141  1  0.58981261  0.58287615  0.05889794  1
  Se  Se142  1  0.58581251  0.58757464  0.56266231  1
  Se  Se143  1  0.58110224  0.90981542  0.05251213  1
  Se  Se144  1  0.58753603  0.91757488  0.54574701  1
  Se  Se145  1  0.91897313  0.25018885  0.05176362  1
  Se  Se146  1  0.91888260  0.25811011  0.56362642  1
  Se  Se147  1  0.91457479  0.58362019  0.05576964  1
  Se  Se148  1  0.91671209  0.58110253  0.55795504  1
  Se  Se149  1  0.92389513  0.91996140  0.05848128  1
  Se  Se150  1  0.91620803  0.91536321  0.54808743  1
  Se  Se151  1  0.08426232  0.24840410  0.45351519  1
  Se  Se152  1  0.08994020  0.25840273  0.93880352  1
  Se  Se153  1  0.08372143  0.58182532  0.45258970  1
  Se  Se154  1  0.07711823  0.59202454  0.93920040  1
  Se  Se155  1  0.08632713  0.91348735  0.44456161  1
  Se  Se156  1  0.07580831  0.92543277  0.94145355  1
  Se  Se157  1  0.41180770  0.26371076  0.44576938  1
  Se  Se158  1  0.42250154  0.25083688  0.94447313  1
  Se  Se159  1  0.40994140  0.58975260  0.43966420  1
  Se  Se160  1  0.40024796  0.57971424  0.92845267  1
  Se  Se161  1  0.42065420  0.91714237  0.44937856  1
  Se  Se162  1  0.40988596  0.91280859  0.94786881  1
  Se  Se163  1  0.74443657  0.25670931  0.44239809  1
  Se  Se164  1  0.75471636  0.25142024  0.94925114  1
  Se  Se165  1  0.75047702  0.57789830  0.44538288  1
  Se  Se166  1  0.75351908  0.58067351  0.94495466  1
  Se  Se167  1  0.75003698  0.92817451  0.45602206  1
  Se  Se168  1  0.73679981  0.92320139  0.93350744  1
  Se  Se169  1  0.25117515  0.08654016  0.44595718  1
  Se  Se170  1  0.24503145  0.08746447  0.94740240  1
  Se  Se171  1  0.24578651  0.42073708  0.45352300  1
  Se  Se172  1  0.24985118  0.40734369  0.93280874  1
  Se  Se173  1  0.25092358  0.74529605  0.45488072  1
  Se  Se174  1  0.24382012  0.73677311  0.92912071  1
  Se  Se175  1  0.59145352  0.08072485  0.44322707  1
  Se  Se176  1  0.58217117  0.08182177  0.95059004  1
  Se  Se177  1  0.59187988  0.41809931  0.43457829  1
  Se  Se178  1  0.59163431  0.41090441  0.93372843  1
  Se  Se179  1  0.58281630  0.74780577  0.45212931  1
  Se  Se180  1  0.57577973  0.74193036  0.94431862  1
  Se  Se181  1  0.92479106  0.08017472  0.43745621  1
  Se  Se182  1  0.91266746  0.08927514  0.95121101  1
  Se  Se183  1  0.91302073  0.41902852  0.45429027  1
  Se  Se184  1  0.91783058  0.42049429  0.94805328  1
  Se  Se185  1  0.91479993  0.74921137  0.44847031  1
  Se  Se186  1  0.92060822  0.74705903  0.93698013  1
  Se  Se187  1  0.25097602  0.25506254  0.30585370  1
  Se  Se188  1  0.26016455  0.25848094  0.80001717  1
  Se  Se189  1  0.24519240  0.58057616  0.31526175  1
  Se  Se190  1  0.27171781  0.59936621  0.79306138  1
  Se  Se191  1  0.24660747  0.90373508  0.31364477  1
  Se  Se192  1  0.24047268  0.90573972  0.80234995  1
  Se  Se193  1  0.58743306  0.25432699  0.29606797  1
  Se  Se194  1  0.58944688  0.24570353  0.80737586  1
  Se  Se195  1  0.57862048  0.58506084  0.30021877  1
  Se  Se196  1  0.58950385  0.58915434  0.79781562  1
  Se  Se197  1  0.58597007  0.90833580  0.31502555  1
  Se  Se198  1  0.57640880  0.91479020  0.80567224  1
  Se  Se199  1  0.91112684  0.24637713  0.31160683  1
  Se  Se200  1  0.92132550  0.25662195  0.80793686  1
  Se  Se201  1  0.90325356  0.56687291  0.30790370  1
  Se  Se202  1  0.91912847  0.58535744  0.80370823  1
  Se  Se203  1  0.92054422  0.91236580  0.30522063  1
  Se  Se204  1  0.90232544  0.90727970  0.80436627  1
  Se  Se205  1  0.08561825  0.08265705  0.30287026  1
  Se  Se206  1  0.08319563  0.08750025  0.80970165  1
  Se  Se207  1  0.08615919  0.42083722  0.32165506  1
  Se  Se208  1  0.11041775  0.45357816  0.80658558  1
  Se  Se209  1  0.07881984  0.74099754  0.30813457  1
  Se  Se210  1  0.07714092  0.74883257  0.79321688  1
  Se  Se211  1  0.43001078  0.09892032  0.30736218  1
  Se  Se212  1  0.41592554  0.08423670  0.81618309  1
  Se  Se213  1  0.41267840  0.41377891  0.30261848  1
  Se  Se214  1  0.43842019  0.43154171  0.79740354  1
  Se  Se215  1  0.41811244  0.75338086  0.30746838  1
  Se  Se216  1  0.41487212  0.74806188  0.79937245  1
  Se  Se217  1  0.76064040  0.08977289  0.31006827  1
  Se  Se218  1  0.75494795  0.08956570  0.80870257  1
  Se  Se219  1  0.73555426  0.39941042  0.30232177  1
  Se  Se220  1  0.75595267  0.41846205  0.80588461  1
  Se  Se221  1  0.74854609  0.74741642  0.31213045  1
  Se  Se222  1  0.75049555  0.75356667  0.79818266  1
  Se  Se223  1  0.24884081  0.09057933  0.19124158  1
  Se  Se224  1  0.23131983  0.09298581  0.69748704  1
  Se  Se225  1  0.23966227  0.42512879  0.20494980  1
  Se  Se226  1  0.26850580  0.38928150  0.69659084  1
  Se  Se227  1  0.23856547  0.75794865  0.18794742  1
  Se  Se228  1  0.25340456  0.74597855  0.68937271  1
  Se  Se229  1  0.58053204  0.08632300  0.18732898  1
  Se  Se230  1  0.57297776  0.09079634  0.68945887  1
  Se  Se231  1  0.57912830  0.41438077  0.19479783  1
  Se  Se232  1  0.61077157  0.39448297  0.69672091  1
  Se  Se233  1  0.58322110  0.74689943  0.19697755  1
  Se  Se234  1  0.58752746  0.74812576  0.69334321  1
  Se  Se235  1  0.92393806  0.08022193  0.19865549  1
  Se  Se236  1  0.90682814  0.09207932  0.68946607  1
  Se  Se237  1  0.90560888  0.42260347  0.19373873  1
  Se  Se238  1  0.92396048  0.41566360  0.69850343  1
  Se  Se239  1  0.92189532  0.73989801  0.20128422  1
  Se  Se240  1  0.92496986  0.74572834  0.69666722  1
  Se  Se241  1  0.08819085  0.24703621  0.19040768  1
  Se  Se242  1  0.07663329  0.26065636  0.70238692  1
  Se  Se243  1  0.09041396  0.57147024  0.20293192  1
  Se  Se244  1  0.09338822  0.57483598  0.70046838  1
  Se  Se245  1  0.08229871  0.91596116  0.20157178  1
  Se  Se246  1  0.08547578  0.91260160  0.68163455  1
  Se  Se247  1  0.40940072  0.25730216  0.19220368  1
  Se  Se248  1  0.42072929  0.24395520  0.70166658  1
  Se  Se249  1  0.42244183  0.57459814  0.18340707  1
  Se  Se250  1  0.44156657  0.55250185  0.69707171  1
  Se  Se251  1  0.42184438  0.91188080  0.19475890  1
  Se  Se252  1  0.41982285  0.90814114  0.68753507  1
  Se  Se253  1  0.75290773  0.24804111  0.19094276  1
  Se  Se254  1  0.75262195  0.25809359  0.70149448  1
  Se  Se255  1  0.73084659  0.59903657  0.19593301  1
  Se  Se256  1  0.75327502  0.58385334  0.69693885  1
  Se  Se257  1  0.76248286  0.90234665  0.19344046  1
  Se  Se258  1  0.75776511  0.90487408  0.68558525  1
