# generated using pymatgen
data_In86Cu29Se144
_symmetry_space_group_name_H-M   'P 1'
_cell_length_a   17.58639143
_cell_length_b   17.58499967
_cell_length_c   23.44376110
_cell_angle_alpha   89.99483577
_cell_angle_beta   89.99149643
_cell_angle_gamma   89.99928650
_symmetry_Int_Tables_number   1
_chemical_formula_structural   In86Cu29Se144
_chemical_formula_sum   'In86 Cu29 Se144'
_cell_volume   7250.13979009
_cell_formula_units_Z   1
loop_
 _symmetry_equiv_pos_site_id
 _symmetry_equiv_pos_as_xyz
  1  'x, y, z'
loop_
 _atom_site_type_symbol
 _atom_site_label
 _atom_site_symmetry_multiplicity
 _atom_site_fract_x
 _atom_site_fract_y
 _atom_site_fract_z
 _atom_site_occupancy
  In  In0  1  -0.00550116  0.16953719  0.12944849  1
  In  In1  1  -0.00440047  0.17934214  0.63129687  1
  In  In2  1  -0.00559448  0.48239331  0.12689464  1
  In  In3  1  -0.00351521  0.49370474  0.61831621  1
  In  In4  1  -0.00388020  0.85452481  0.12537790  1
  In  In5  1  0.01153860  0.82680146  0.62646062  1
  In  In6  1  0.33812884  0.16288738  0.13302244  1
  In  In7  1  0.34695764  0.16426006  0.62631176  1
  In  In8  1  0.34074135  0.49528204  0.12716518  1
  In  In9  1  0.32490177  0.50696422  0.62558184  1
  In  In10  1  0.33799652  0.83293208  0.13477933  1
  In  In11  1  0.33097684  0.83156006  0.61887163  1
  In  In12  1  0.65292561  0.15124312  0.11395033  1
  In  In13  1  0.66489602  0.15945744  0.61463044  1
  In  In14  1  0.66093516  0.51670817  0.12780345  1
  In  In15  1  0.67979081  0.50408010  0.62329127  1
  In  In16  1  0.66758780  0.82963346  0.12857993  1
  In  In17  1  0.65383544  0.83849987  0.63007859  1
  In  In18  1  0.15940012  -0.00376857  0.36784156  1
  In  In19  1  0.15998919  0.01785867  0.86958020  1
  In  In20  1  0.17522913  0.33367234  0.36688674  1
  In  In21  1  0.16974181  0.32629166  0.85851007  1
  In  In22  1  0.17724837  0.65668958  0.38437730  1
  In  In23  1  0.17551852  0.65735540  0.87215725  1
  In  In24  1  0.50106309  -0.00094802  0.37359615  1
  In  In25  1  0.51838429  -0.00157794  0.88250491  1
  In  In26  1  0.48359993  0.33194199  0.37288249  1
  In  In27  1  0.49126203  0.33991295  0.89176192  1
  In  In28  1  0.50866013  0.67497627  0.37117184  1
  In  In29  1  0.48325318  0.65690738  0.85952836  1
  In  In30  1  0.84361341  0.00842059  0.36603281  1
  In  In31  1  0.83540287  -0.00357902  0.87991744  1
  In  In32  1  0.84348041  0.32372099  0.38254819  1
  In  In33  1  0.83427036  0.32075904  0.87647772  1
  In  In34  1  0.81906720  0.66702991  0.37655233  1
  In  In35  1  0.82957458  0.68738954  0.87383856  1
  In  In36  1  -0.00313328  0.15557490  0.36499783  1
  In  In37  1  -0.00484441  0.15579577  0.86011280  1
  In  In38  1  0.01120039  0.48957931  0.38452300  1
  In  In39  1  0.01373139  0.49490206  0.87120921  1
  In  In40  1  0.00064094  0.84965152  0.37642346  1
  In  In41  1  -0.02234976  0.84082177  0.87262614  1
  In  In42  1  0.33944962  0.17668133  0.36522711  1
  In  In43  1  0.33639036  0.18264662  0.87929798  1
  In  In44  1  0.32278599  0.49151984  0.36795707  1
  In  In45  1  0.33920387  0.49801707  0.86986416  1
  In  In46  1  0.33706418  0.83339700  0.37634604  1
  In  In47  1  0.34367321  0.81935826  0.87391528  1
  In  In48  1  0.67745623  0.15724158  0.37815984  1
  In  In49  1  0.66798473  0.15880090  0.89435739  1
  In  In50  1  0.66463563  0.51364958  0.37598393  1
  In  In51  1  0.64975216  0.49991499  0.87575556  1
  In  In52  1  0.65786375  0.82484483  0.36930581  1
  In  In53  1  0.67344103  0.83243452  0.86967996  1
  In  In54  1  0.16347278  0.01553099  0.14676407  1
  In  In55  1  0.16880894  -0.01395823  0.62313009  1
  In  In56  1  0.17557831  0.31663171  0.14294874  1
  In  In57  1  0.15683475  0.33908632  0.62998329  1
  In  In58  1  0.17394672  0.67058510  0.12866600  1
  In  In59  1  0.17835723  0.67493928  0.61489800  1
  In  In60  1  0.49832827  -0.00070995  0.13294872  1
  In  In61  1  0.50015477  0.00004660  0.61602012  1
  In  In62  1  0.48350943  0.33053351  0.11239866  1
  In  In63  1  0.49814964  0.31763770  0.62622134  1
  In  In64  1  0.49792403  0.66592572  0.12611140  1
  In  In65  1  0.48600695  0.68081350  0.63897850  1
  In  In66  1  0.82762538  0.00320171  0.12235088  1
  In  In67  1  0.82792474  0.01422839  0.62280730  1
  In  In68  1  0.84890350  0.32409235  0.12915322  1
  In  In69  1  0.84043086  0.33865514  0.61829895  1
  In  In70  1  0.81527453  0.66860151  0.12533189  1
  In  In71  1  0.83884975  0.65984989  0.62895891  1
  In  In72  1  0.66597435  0.33605179  0.24785200  1
  In  In73  1  0.50205263  0.49993146  0.49953316  1
  In  In74  1  0.17219069  0.49593445  -0.00162859  1
  In  In75  1  0.16797417  0.83917045  0.00015925  1
  In  In76  1  0.82910357  0.50028726  0.00431635  1
  In  In77  1  0.66936055  -0.00495867  0.75592828  1
  In  In78  1  0.16947186  0.16533933  0.49666606  1
  In  In79  1  0.33151704  -0.00103893  0.75063505  1
  In  In80  1  0.66281435  0.33254634  0.75534167  1
  In  In81  1  0.83493934  0.83519617  0.49952707  1
  In  In82  1  0.50352952  0.83252827  0.00304714  1
  In  In83  1  -0.00003028  0.66705023  0.25463726  1
  In  In84  1  0.16758452  0.17065361  0.00525462  1
  In  In85  1  0.00286348  0.66529515  0.74947102  1
  Cu  Cu86  1  0.66686905  0.32930034  0.50215001  1
  Cu  Cu87  1  0.33961615  0.66738910  0.49889126  1
  Cu  Cu88  1  0.66776870  0.33471974  0.00386595  1
  Cu  Cu89  1  0.83456931  0.17377482  0.74742910  1
  Cu  Cu90  1  0.16682130  0.50160984  0.25583548  1
  Cu  Cu91  1  0.00171588  0.00433846  0.49468081  1
  Cu  Cu92  1  -0.00777996  0.67633954  0.00026665  1
  Cu  Cu93  1  0.49668855  0.49476915  0.75129421  1
  Cu  Cu94  1  0.00533422  0.32578848  0.00004711  1
  Cu  Cu95  1  0.66230308  0.67210754  0.00023890  1
  Cu  Cu96  1  0.83330527  0.49840861  0.24955472  1
  Cu  Cu97  1  0.49795834  0.83564926  0.25107917  1
  Cu  Cu98  1  0.83825412  0.49731535  0.74637610  1
  Cu  Cu99  1  0.83042360  0.15990151  0.24843045  1
  Cu  Cu100  1  0.17179378  0.49749753  0.74603597  1
  Cu  Cu101  1  0.32994299  0.33224575  0.49406764  1
  Cu  Cu102  1  0.83125743  0.83472476  0.25139555  1
  Cu  Cu103  1  0.16896471  0.83118901  0.74747435  1
  Cu  Cu104  1  0.17175680  0.83305618  0.25323999  1
  Cu  Cu105  1  0.33526247  0.00020688  0.01091028  1
  Cu  Cu106  1  0.00167906  0.66534193  0.50419710  1
  Cu  Cu107  1  0.33796268  -0.00090882  0.49704078  1
  Cu  Cu108  1  0.50446110  0.16663390  0.24542811  1
  Cu  Cu109  1  0.66626273  -0.00234972  0.49523247  1
  Cu  Cu110  1  0.00093800  0.33103747  0.50139467  1
  Cu  Cu111  1  0.66507031  0.66842925  0.49946292  1
  Cu  Cu112  1  -0.01021307  0.00509637  -0.00234417  1
  Cu  Cu113  1  0.49484425  0.50455767  0.25168806  1
  Cu  Cu114  1  0.50090824  0.16810663  0.75525593  1
  Se  Se115  1  0.07843442  0.07352618  0.06022367  1
  Se  Se116  1  0.07959057  0.08034279  0.56070624  1
  Se  Se117  1  0.08635894  0.40279554  0.06067766  1
  Se  Se118  1  0.08677609  0.41579650  0.55120941  1
  Se  Se119  1  0.07573497  0.74921915  0.06234690  1
  Se  Se120  1  0.08661333  0.75405734  0.54946714  1
  Se  Se121  1  0.41922825  0.08304455  0.06199262  1
  Se  Se122  1  0.41864854  0.08606572  0.54949061  1
  Se  Se123  1  0.41575029  0.42788748  0.04745026  1
  Se  Se124  1  0.41186486  0.40865996  0.55846551  1
  Se  Se125  1  0.40457763  0.74650979  0.05683812  1
  Se  Se126  1  0.42154527  0.74963650  0.55388278  1
  Se  Se127  1  0.76175950  0.09754392  0.05282594  1
  Se  Se128  1  0.75162909  0.08353882  0.54445101  1
  Se  Se129  1  0.74525974  0.41110790  0.06937330  1
  Se  Se130  1  0.74948944  0.41619006  0.55198339  1
  Se  Se131  1  0.74768902  0.75424369  0.05143827  1
  Se  Se132  1  0.74667772  0.74691596  0.56151787  1
  Se  Se133  1  0.26139028  0.25906582  0.06082151  1
  Se  Se134  1  0.25563312  0.25370941  0.56085671  1
  Se  Se135  1  0.25597201  0.59045675  0.05719959  1
  Se  Se136  1  0.25234874  0.58209570  0.54748858  1
  Se  Se137  1  0.24885868  0.92677649  0.06959547  1
  Se  Se138  1  0.25209086  0.91645987  0.54881333  1
  Se  Se139  1  0.58098954  0.25192880  0.05355461  1
  Se  Se140  1  0.57954071  0.24668605  0.55129684  1
  Se  Se141  1  0.57985885  0.58790341  0.05258348  1
  Se  Se142  1  0.58454614  0.59110736  0.56297681  1
  Se  Se143  1  0.59063578  0.92502615  0.06016987  1
  Se  Se144  1  0.58517062  0.91504254  0.55070465  1
  Se  Se145  1  0.91842182  0.24522035  0.05145279  1
  Se  Se146  1  0.91634112  0.24613814  0.55202506  1
  Se  Se147  1  0.92284469  0.58996362  0.06393155  1
  Se  Se148  1  0.91413190  0.58298958  0.55355493  1
  Se  Se149  1  0.90993094  0.91833103  0.05049603  1
  Se  Se150  1  0.92513764  0.92437266  0.56003850  1
  Se  Se151  1  0.07788193  0.25290610  0.43650001  1
  Se  Se152  1  0.08085834  0.25015030  0.93453797  1
  Se  Se153  1  0.08551085  0.58183832  0.45071501  1
  Se  Se154  1  0.07447895  0.59382629  0.94497799  1
  Se  Se155  1  0.08880268  0.91929609  0.44809065  1
  Se  Se156  1  0.07624886  0.92739858  0.93914145  1
  Se  Se157  1  0.41502241  0.24606865  0.44658558  1
  Se  Se158  1  0.42636909  0.23717831  0.95408476  1
  Se  Se159  1  0.41301558  0.58451373  0.43537922  1
  Se  Se160  1  0.41864946  0.58065628  0.93940593  1
  Se  Se161  1  0.42248075  0.91466460  0.44525250  1
  Se  Se162  1  0.40741772  0.92216673  0.94334588  1
  Se  Se163  1  0.75077411  0.24715952  0.44729849  1
  Se  Se164  1  0.75346121  0.25297287  0.95239164  1
  Se  Se165  1  0.74952183  0.58201486  0.45144632  1
  Se  Se166  1  0.74450466  0.59011941  0.93993698  1
  Se  Se167  1  0.74848104  0.91987378  0.43384135  1
  Se  Se168  1  0.72626601  0.93478046  0.93661883  1
  Se  Se169  1  0.25871210  0.07798525  0.43472864  1
  Se  Se170  1  0.25623199  0.07607118  0.94550428  1
  Se  Se171  1  0.24536211  0.41579431  0.44395356  1
  Se  Se172  1  0.25271931  0.40347374  0.93470217  1
  Se  Se173  1  0.25384154  0.75148769  0.44727548  1
  Se  Se174  1  0.25562117  0.74124037  0.94610819  1
  Se  Se175  1  0.58290313  0.08353945  0.44371647  1
  Se  Se176  1  0.57284935  0.08711653  0.95816131  1
  Se  Se177  1  0.58915306  0.40721600  0.43764776  1
  Se  Se178  1  0.58452133  0.42101193  0.95402880  1
  Se  Se179  1  0.58195055  0.75280531  0.44835406  1
  Se  Se180  1  0.58182290  0.74347137  0.93410688  1
  Se  Se181  1  0.91652825  0.08613459  0.44337749  1
  Se  Se182  1  0.91587176  0.09244425  0.94094677  1
  Se  Se183  1  0.91569232  0.41708960  0.45000855  1
  Se  Se184  1  0.92604162  0.41414760  0.94410373  1
  Se  Se185  1  0.92474379  0.74323242  0.43874877  1
  Se  Se186  1  0.90887728  0.75950284  0.94974553  1
  Se  Se187  1  0.24867321  0.24801479  0.29734500  1
  Se  Se188  1  0.24546237  0.22713330  0.80114297  1
  Se  Se189  1  0.25108684  0.58918610  0.30289301  1
  Se  Se190  1  0.25425465  0.58032899  0.80032843  1
  Se  Se191  1  0.25461528  0.91671742  0.30646817  1
  Se  Se192  1  0.24302615  0.90903459  0.81479473  1
  Se  Se193  1  0.58058192  0.24577549  0.31103927  1
  Se  Se194  1  0.58077734  0.24266826  0.81968711  1
  Se  Se195  1  0.58395694  0.58539747  0.30132559  1
  Se  Se196  1  0.58305014  0.58036798  0.79901959  1
  Se  Se197  1  0.58460805  0.91756736  0.30278542  1
  Se  Se198  1  0.56840155  0.90446898  0.80381051  1
  Se  Se199  1  0.91026343  0.24559968  0.30315289  1
  Se  Se200  1  0.91835924  0.25705339  0.80029437  1
  Se  Se201  1  0.91176701  0.57590180  0.31472554  1
  Se  Se202  1  0.91185844  0.57808915  0.81346438  1
  Se  Se203  1  0.92020260  0.91689767  0.29927748  1
  Se  Se204  1  0.91474334  0.93020802  0.80149372  1
  Se  Se205  1  0.08675953  0.08348818  0.29819142  1
  Se  Se206  1  0.08297379  0.08204457  0.79146435  1
  Se  Se207  1  0.08159050  0.41667264  0.30467451  1
  Se  Se208  1  0.08420257  0.41535374  0.79614951  1
  Se  Se209  1  0.09022650  0.75472913  0.31534943  1
  Se  Se210  1  0.08832939  0.75659961  0.81427426  1
  Se  Se211  1  0.42248687  0.08543216  0.30333727  1
  Se  Se212  1  0.42512705  0.08207883  0.81482679  1
  Se  Se213  1  0.41256871  0.41539074  0.29974970  1
  Se  Se214  1  0.42191476  0.40618326  0.80686851  1
  Se  Se215  1  0.41691958  0.74972523  0.30474748  1
  Se  Se216  1  0.41233221  0.75127072  0.79344138  1
  Se  Se217  1  0.74530098  0.07712955  0.30017393  1
  Se  Se218  1  0.75137844  0.09809327  0.80959963  1
  Se  Se219  1  0.75438300  0.42036877  0.31372430  1
  Se  Se220  1  0.75707119  0.42410075  0.81280600  1
  Se  Se221  1  0.74843151  0.74768488  0.30122595  1
  Se  Se222  1  0.74840804  0.75002537  0.79721632  1
  Se  Se223  1  0.24946876  0.09914577  0.20758734  1
  Se  Se224  1  0.24541849  0.08605183  0.68676208  1
  Se  Se225  1  0.24917300  0.42266042  0.19670745  1
  Se  Se226  1  0.25499787  0.41270212  0.69352900  1
  Se  Se227  1  0.25293486  0.74798971  0.20076580  1
  Se  Se228  1  0.25186336  0.75065846  0.69265802  1
  Se  Se229  1  0.58926820  0.08024274  0.19829468  1
  Se  Se230  1  0.57850673  0.08751258  0.69328264  1
  Se  Se231  1  0.57293536  0.42350064  0.18885924  1
  Se  Se232  1  0.57881042  0.42062546  0.68744600  1
  Se  Se233  1  0.57872007  0.75083677  0.19466813  1
  Se  Se234  1  0.59630271  0.73879561  0.69670200  1
  Se  Se235  1  0.91570817  0.07776070  0.19412246  1
  Se  Se236  1  0.91360360  0.08666465  0.69412209  1
  Se  Se237  1  0.91748244  0.41067289  0.20374006  1
  Se  Se238  1  0.91984817  0.41437433  0.69344274  1
  Se  Se239  1  0.91198020  0.75384546  0.18964294  1
  Se  Se240  1  0.91140648  0.75953215  0.69502663  1
  Se  Se241  1  0.06858724  0.25534982  0.19962651  1
  Se  Se242  1  0.08735941  0.24849459  0.69865532  1
  Se  Se243  1  0.08510534  0.57466284  0.19008564  1
  Se  Se244  1  0.09189772  0.58049817  0.68497789  1
  Se  Se245  1  0.08445075  0.91393183  0.20144869  1
  Se  Se246  1  0.08416547  0.91470764  0.69739641  1
  Se  Se247  1  0.42246334  0.25468079  0.19575777  1
  Se  Se248  1  0.41581401  0.24893927  0.70238400  1
  Se  Se249  1  0.41260415  0.58752832  0.19629707  1
  Se  Se250  1  0.41389354  0.57793211  0.69667511  1
  Se  Se251  1  0.41240746  0.92213528  0.20258320  1
  Se  Se252  1  0.42259150  0.91360014  0.68862213  1
  Se  Se253  1  0.75013454  0.24117422  0.18821041  1
  Se  Se254  1  0.74777574  0.24702906  0.68724517  1
  Se  Se255  1  0.74888007  0.58459617  0.20148264  1
  Se  Se256  1  0.75305432  0.58276361  0.69923891  1
  Se  Se257  1  0.75073753  0.91613912  0.19375165  1
  Se  Se258  1  0.75937133  0.91346042  0.68956400  1
