# generated using pymatgen
data_In86Cu29Se144
_symmetry_space_group_name_H-M   'P 1'
_cell_length_a   17.59349384
_cell_length_b   17.58658115
_cell_length_c   23.45997700
_cell_angle_alpha   90.00843877
_cell_angle_beta   90.00613810
_cell_angle_gamma   89.97230644
_symmetry_Int_Tables_number   1
_chemical_formula_structural   In86Cu29Se144
_chemical_formula_sum   'In86 Cu29 Se144'
_cell_volume   7258.73660459
_cell_formula_units_Z   1
loop_
 _symmetry_equiv_pos_site_id
 _symmetry_equiv_pos_as_xyz
  1  'x, y, z'
loop_
 _atom_site_type_symbol
 _atom_site_label
 _atom_site_symmetry_multiplicity
 _atom_site_fract_x
 _atom_site_fract_y
 _atom_site_fract_z
 _atom_site_occupancy
  In  In0  1  0.01761826  0.17182953  0.11765395  1
  In  In1  1  0.00443260  0.16429356  0.63081289  1
  In  In2  1  0.00154715  0.49982497  0.12460136  1
  In  In3  1  0.04644656  0.46373233  0.68171344  1
  In  In4  1  -0.01056084  0.82899585  0.12032765  1
  In  In5  1  0.01706726  0.81866415  0.63461508  1
  In  In6  1  0.32754511  0.18672132  0.11975987  1
  In  In7  1  0.30728277  0.18972472  0.63583170  1
  In  In8  1  0.34114386  0.50283072  0.11010822  1
  In  In9  1  0.30863043  0.46792728  0.59726989  1
  In  In10  1  0.32787959  0.81438682  0.12506643  1
  In  In11  1  0.33981803  0.83858851  0.62422971  1
  In  In12  1  0.66493407  0.17370312  0.13283341  1
  In  In13  1  0.67696307  0.17433674  0.62542530  1
  In  In14  1  0.65806985  0.49581433  0.11553696  1
  In  In15  1  0.65524864  0.50125158  0.62380135  1
  In  In16  1  0.66851010  0.83320655  0.11934294  1
  In  In17  1  0.65061631  0.83629409  0.62045804  1
  In  In18  1  0.16329303  -0.00268256  0.38664767  1
  In  In19  1  0.17432698  0.00885561  0.86536239  1
  In  In20  1  0.15275140  0.35069979  0.39537698  1
  In  In21  1  0.16240158  0.34035896  0.87466524  1
  In  In22  1  0.16786318  0.66384288  0.37556162  1
  In  In23  1  0.15283862  0.65283194  0.86795316  1
  In  In24  1  0.49728244  -0.00656544  0.37112447  1
  In  In25  1  0.49399170  -0.00557917  0.87253428  1
  In  In26  1  0.50662642  0.33500528  0.37646864  1
  In  In27  1  0.50965647  0.34124008  0.86818789  1
  In  In28  1  0.49443581  0.67012855  0.37587628  1
  In  In29  1  0.50921673  0.65788772  0.89210172  1
  In  In30  1  0.83412493  0.01087230  0.37043372  1
  In  In31  1  0.83158535  -0.01150227  0.87340696  1
  In  In32  1  0.84072174  0.33460986  0.36487893  1
  In  In33  1  0.85200904  0.36539920  0.85531601  1
  In  In34  1  0.83894664  0.65180094  0.37087887  1
  In  In35  1  0.85187416  0.64545311  0.90098612  1
  In  In36  1  0.00573403  0.17528611  0.37723864  1
  In  In37  1  0.01179081  0.18338090  0.86406161  1
  In  In38  1  0.00342161  0.50141109  0.36959251  1
  In  In39  1  0.00279649  0.50143228  0.87423399  1
  In  In40  1  0.01276402  0.82910795  0.37812663  1
  In  In41  1  -0.01075978  0.82196710  0.86757788  1
  In  In42  1  0.32207172  0.17134974  0.38304283  1
  In  In43  1  0.32869982  0.16138236  0.86824517  1
  In  In44  1  0.32317210  0.50274548  0.38112436  1
  In  In45  1  0.33338596  0.48992307  0.87798899  1
  In  In46  1  0.34094252  0.82684089  0.38013213  1
  In  In47  1  0.33827811  0.83913823  0.87261970  1
  In  In48  1  0.67463730  0.17177583  0.36430053  1
  In  In49  1  0.65503919  0.17923783  0.87410435  1
  In  In50  1  0.66848705  0.49064716  0.37108485  1
  In  In51  1  0.67602757  0.49473635  0.88935307  1
  In  In52  1  0.64900095  0.82820941  0.36880850  1
  In  In53  1  0.68296105  0.81127381  0.90074210  1
  In  In54  1  0.16164124  0.00822572  0.12067701  1
  In  In55  1  0.16939605  0.00110116  0.62869420  1
  In  In56  1  0.16543810  0.33083933  0.11644484  1
  In  In57  1  0.16583364  0.33070341  0.61872107  1
  In  In58  1  0.18273001  0.65040890  0.13599933  1
  In  In59  1  0.15884777  0.65342415  0.62018872  1
  In  In60  1  0.51204553  0.00662085  0.12798608  1
  In  In61  1  0.49485935  -0.01271592  0.62250409  1
  In  In62  1  0.50124591  0.37157599  0.12337981  1
  In  In63  1  0.48037814  0.34720665  0.63426464  1
  In  In64  1  0.48747444  0.64861709  0.11402318  1
  In  In65  1  0.48778477  0.65877280  0.61734452  1
  In  In66  1  0.83055541  -0.01451432  0.12207775  1
  In  In67  1  0.83514173  0.00726203  0.62968204  1
  In  In68  1  0.82492484  0.34708177  0.12637214  1
  In  In69  1  0.85242515  0.33899301  0.64016241  1
  In  In70  1  0.83829783  0.67592461  0.11718381  1
  In  In71  1  0.84688527  0.65842482  0.63179676  1
  In  In72  1  0.33377518  0.00045195  0.25921785  1
  In  In73  1  0.82877279  0.83138696  0.50557316  1
  In  In74  1  0.49541797  0.16851698  -0.00025134  1
  In  In75  1  0.16701285  0.82929494  -0.00724566  1
  In  In76  1  0.66414454  0.66509684  0.24157622  1
  In  In77  1  0.84165506  0.49787423  0.50217808  1
  In  In78  1  -0.00362457  -0.00346145  0.24249761  1
  In  In79  1  0.83954560  0.16948433  0.51033903  1
  In  In80  1  0.49359952  0.16764811  0.50232063  1
  In  In81  1  0.66145680  0.00071454  0.75105724  1
  In  In82  1  0.83565207  0.16951411  -0.00835782  1
  In  In83  1  0.33342022  0.33954391  0.25096032  1
  In  In84  1  0.67194550  0.66393271  0.75954029  1
  In  In85  1  0.32868067  0.65922186  0.75231005  1
  Cu  Cu86  1  -0.00221729  0.34020943  -0.00578228  1
  Cu  Cu87  1  0.66712731  0.33660788  -0.00122061  1
  Cu  Cu88  1  0.83522664  0.16970768  0.74885888  1
  Cu  Cu89  1  0.16397210  0.49683239  0.25407030  1
  Cu  Cu90  1  0.16417182  0.17081613  0.24945549  1
  Cu  Cu91  1  0.83824330  0.83360010  0.75115398  1
  Cu  Cu92  1  0.65824384  0.66792851  0.50017843  1
  Cu  Cu93  1  0.00802833  0.66290165  0.50083747  1
  Cu  Cu94  1  0.49495677  0.16831703  0.75107248  1
  Cu  Cu95  1  0.50258062  0.83150980  0.75274253  1
  Cu  Cu96  1  0.65792280  -0.00754326  0.49235756  1
  Cu  Cu97  1  0.49796693  0.83505841  0.24922113  1
  Cu  Cu98  1  0.49498011  0.49660575  0.74836850  1
  Cu  Cu99  1  0.00649953  -0.00339612  0.50904112  1
  Cu  Cu100  1  0.00582309  0.00278706  -0.00492974  1
  Cu  Cu101  1  0.83170945  0.83039581  0.24257812  1
  Cu  Cu102  1  0.33022581  0.00298460  0.50515062  1
  Cu  Cu103  1  0.83458270  0.16751134  0.24645611  1
  Cu  Cu104  1  0.33191763  0.00040952  -0.00629422  1
  Cu  Cu105  1  0.84092013  0.49837366  0.24524429  1
  Cu  Cu106  1  0.16409588  0.82030142  0.25187475  1
  Cu  Cu107  1  0.50675297  0.17807208  0.25015249  1
  Cu  Cu108  1  0.66796187  -0.00437651  0.00406651  1
  Cu  Cu109  1  0.66901919  0.33602076  0.49918021  1
  Cu  Cu110  1  0.33117370  0.66019254  -0.00177940  1
  Cu  Cu111  1  0.17131687  0.83774765  0.75070561  1
  Cu  Cu112  1  0.33128184  0.67290315  0.49833667  1
  Cu  Cu113  1  0.16598994  0.16923510  0.74996661  1
  Cu  Cu114  1  0.00645864  0.66361190  0.00214008  1
  Se  Se115  1  0.09002513  0.08676413  0.04467872  1
  Se  Se116  1  0.08571642  0.08487832  0.55963941  1
  Se  Se117  1  0.08143091  0.41886498  0.05249978  1
  Se  Se118  1  0.07355205  0.43186165  0.57548728  1
  Se  Se119  1  0.08863887  0.74259101  0.06285861  1
  Se  Se120  1  0.08811823  0.75090317  0.55259569  1
  Se  Se121  1  0.40639861  0.07732835  0.06213985  1
  Se  Se122  1  0.40558636  0.08454357  0.56762855  1
  Se  Se123  1  0.39182282  0.38703884  0.05358674  1
  Se  Se124  1  0.43295328  0.42454803  0.54906031  1
  Se  Se125  1  0.41153701  0.74697609  0.05090485  1
  Se  Se126  1  0.41695807  0.75490009  0.55217095  1
  Se  Se127  1  0.74539784  0.08490614  0.05901693  1
  Se  Se128  1  0.73810825  0.06977104  0.55440248  1
  Se  Se129  1  0.75286880  0.42200657  0.04828497  1
  Se  Se130  1  0.75112608  0.40841139  0.56356960  1
  Se  Se131  1  0.75465269  0.75798369  0.05123200  1
  Se  Se132  1  0.74092858  0.73721656  0.56492323  1
  Se  Se133  1  0.23664744  0.24026687  0.04625873  1
  Se  Se134  1  0.24663382  0.24795522  0.54786999  1
  Se  Se135  1  0.24293703  0.58097863  0.04997506  1
  Se  Se136  1  0.24855556  0.58567238  0.54826121  1
  Se  Se137  1  0.25455970  0.91961341  0.05796507  1
  Se  Se138  1  0.24953179  0.91667759  0.55792678  1
  Se  Se139  1  0.58547950  0.25887403  0.06025290  1
  Se  Se140  1  0.58807620  0.25666379  0.55959680  1
  Se  Se141  1  0.58973633  0.59015954  0.04889964  1
  Se  Se142  1  0.57779006  0.58024480  0.55104280  1
  Se  Se143  1  0.57873706  0.91855756  0.05592459  1
  Se  Se144  1  0.57337274  0.91283361  0.54605237  1
  Se  Se145  1  0.92018219  0.25789522  0.05695197  1
  Se  Se146  1  0.93061251  0.26409112  0.56110233  1
  Se  Se147  1  0.91860282  0.58301819  0.05458611  1
  Se  Se148  1  0.93289724  0.58170031  0.56259955  1
  Se  Se149  1  0.92335535  0.92200315  0.05001981  1
  Se  Se150  1  0.92209674  0.91717721  0.56605319  1
  Se  Se151  1  0.09195372  0.23850596  0.45028355  1
  Se  Se152  1  0.08094567  0.25357712  0.94499707  1
  Se  Se153  1  0.08427434  0.57814611  0.44273534  1
  Se  Se154  1  0.08635599  0.57826364  0.94859278  1
  Se  Se155  1  0.08307163  0.91018144  0.45336646  1
  Se  Se156  1  0.08063930  0.92011665  0.93191801  1
  Se  Se157  1  0.40823969  0.26321379  0.44456148  1
  Se  Se158  1  0.41511713  0.25354683  0.93268031  1
  Se  Se159  1  0.41290321  0.58784956  0.44446402  1
  Se  Se160  1  0.41531922  0.57335827  0.94853865  1
  Se  Se161  1  0.41207103  0.92561591  0.44478093  1
  Se  Se162  1  0.41757146  0.91550516  0.94731958  1
  Se  Se163  1  0.75177909  0.25501341  0.44211506  1
  Se  Se164  1  0.74813742  0.26333463  0.93493703  1
  Se  Se165  1  0.74323944  0.58818562  0.44375344  1
  Se  Se166  1  0.72141407  0.61441108  0.94352649  1
  Se  Se167  1  0.74618659  0.91812034  0.43533394  1
  Se  Se168  1  0.75818093  0.91817630  0.95285411  1
  Se  Se169  1  0.24627858  0.08382908  0.45082379  1
  Se  Se170  1  0.24896382  0.08411851  0.94309167  1
  Se  Se171  1  0.25603906  0.41567893  0.45464574  1
  Se  Se172  1  0.23986120  0.42235129  0.94674484  1
  Se  Se173  1  0.24574619  0.75363538  0.44408364  1
  Se  Se174  1  0.25528618  0.73746821  0.93239973  1
  Se  Se175  1  0.58864779  0.08535304  0.43605800  1
  Se  Se176  1  0.59041579  0.07581737  0.94197196  1
  Se  Se177  1  0.58685371  0.41918352  0.44625911  1
  Se  Se178  1  0.57677377  0.41755573  0.94908207  1
  Se  Se179  1  0.57824714  0.75266433  0.44606746  1
  Se  Se180  1  0.55830711  0.77363738  0.94808079  1
  Se  Se181  1  0.92467839  0.07402108  0.44713459  1
  Se  Se182  1  0.92665864  0.08091335  0.93202507  1
  Se  Se183  1  0.92627437  0.40587686  0.44021917  1
  Se  Se184  1  0.91212347  0.42484636  0.94504419  1
  Se  Se185  1  0.91824428  0.73987751  0.44450040  1
  Se  Se186  1  0.92432039  0.75459686  0.95348818  1
  Se  Se187  1  0.24072048  0.25168651  0.31065630  1
  Se  Se188  1  0.24521403  0.25236172  0.80698138  1
  Se  Se189  1  0.24929953  0.58100584  0.30485679  1
  Se  Se190  1  0.23845539  0.56335362  0.80443353  1
  Se  Se191  1  0.23806487  0.90835904  0.31107618  1
  Se  Se192  1  0.25762792  0.91876132  0.80215978  1
  Se  Se193  1  0.58991431  0.26087680  0.30331646  1
  Se  Se194  1  0.58383144  0.25302005  0.79607261  1
  Se  Se195  1  0.57943176  0.58038259  0.30792588  1
  Se  Se196  1  0.57395334  0.57464535  0.81104516  1
  Se  Se197  1  0.58256915  0.92077050  0.29818934  1
  Se  Se198  1  0.58921754  0.90235958  0.81474659  1
  Se  Se199  1  0.92183176  0.24313307  0.30214006  1
  Se  Se200  1  0.91786977  0.25695216  0.79851573  1
  Se  Se201  1  0.92281201  0.58319934  0.29772817  1
  Se  Se202  1  0.91144372  0.58712168  0.81315752  1
  Se  Se203  1  0.91149549  0.90660546  0.30876204  1
  Se  Se204  1  0.92015054  0.92071669  0.80125014  1
  Se  Se205  1  0.08868737  0.08114324  0.30618218  1
  Se  Se206  1  0.08049572  0.08358674  0.80000167  1
  Se  Se207  1  0.08556950  0.40860947  0.30706659  1
  Se  Se208  1  0.07515977  0.41329053  0.80132591  1
  Se  Se209  1  0.07778621  0.74162494  0.30495584  1
  Se  Se210  1  0.08837293  0.75350514  0.80336321  1
  Se  Se211  1  0.42305268  0.10218733  0.31116834  1
  Se  Se212  1  0.41777884  0.07884936  0.80260948  1
  Se  Se213  1  0.42204500  0.42686521  0.31193193  1
  Se  Se214  1  0.41296022  0.41389647  0.80335478  1
  Se  Se215  1  0.41594883  0.75188450  0.30305293  1
  Se  Se216  1  0.42664055  0.74426878  0.81117158  1
  Se  Se217  1  0.75139006  0.08127563  0.29687453  1
  Se  Se218  1  0.75312449  0.09256896  0.81064193  1
  Se  Se219  1  0.75577324  0.41883807  0.30037393  1
  Se  Se220  1  0.73013780  0.41427866  0.80730590  1
  Se  Se221  1  0.75544009  0.75181376  0.30840350  1
  Se  Se222  1  0.76237116  0.75592957  0.81491285  1
  Se  Se223  1  0.24845691  0.09057959  0.19299517  1
  Se  Se224  1  0.25153826  0.08257832  0.69974629  1
  Se  Se225  1  0.24310619  0.42335461  0.18767017  1
  Se  Se226  1  0.25360653  0.41144054  0.68784843  1
  Se  Se227  1  0.25651985  0.74213143  0.20395912  1
  Se  Se228  1  0.24751286  0.75377815  0.68934883  1
  Se  Se229  1  0.58644201  0.08663376  0.20137398  1
  Se  Se230  1  0.57533701  0.09089395  0.68667981  1
  Se  Se231  1  0.59515587  0.41980207  0.19739334  1
  Se  Se232  1  0.58298531  0.41572254  0.69610241  1
  Se  Se233  1  0.57003888  0.75299257  0.18441692  1
  Se  Se234  1  0.57669269  0.74606756  0.69251811  1
  Se  Se235  1  0.91235347  0.09092368  0.18107875  1
  Se  Se236  1  0.91812399  0.08272436  0.69943940  1
  Se  Se237  1  0.92307235  0.41148236  0.19401551  1
  Se  Se238  1  0.90568878  0.43736884  0.70945604  1
  Se  Se239  1  0.91908829  0.74706253  0.19540440  1
  Se  Se240  1  0.92012568  0.74798346  0.69953693  1
  Se  Se241  1  0.08553767  0.25423538  0.19324598  1
  Se  Se242  1  0.08474538  0.25281526  0.69546251  1
  Se  Se243  1  0.08256499  0.58066563  0.19766343  1
  Se  Se244  1  0.08333116  0.60280842  0.70523923  1
  Se  Se245  1  0.09381993  0.90485838  0.18794246  1
  Se  Se246  1  0.08417104  0.91943241  0.69821253  1
  Se  Se247  1  0.42687479  0.25293994  0.18798644  1
  Se  Se248  1  0.40945384  0.25325959  0.70052267  1
  Se  Se249  1  0.41440151  0.57253390  0.18914240  1
  Se  Se250  1  0.41240836  0.57108411  0.68727983  1
  Se  Se251  1  0.41497074  0.91497583  0.18880935  1
  Se  Se252  1  0.41918822  0.91508548  0.70064792  1
  Se  Se253  1  0.75305545  0.25568217  0.19616172  1
  Se  Se254  1  0.75395222  0.25457285  0.69614934  1
  Se  Se255  1  0.75929623  0.57796403  0.18480161  1
  Se  Se256  1  0.75254792  0.57423163  0.69284591  1
  Se  Se257  1  0.74542371  0.91455072  0.19476344  1
  Se  Se258  1  0.75181562  0.90550738  0.68998273  1
