# generated using pymatgen
data_In86Cu29Se144
_symmetry_space_group_name_H-M   'P 1'
_cell_length_a   17.59075833
_cell_length_b   17.58816903
_cell_length_c   23.45426609
_cell_angle_alpha   90.00687538
_cell_angle_beta   90.00862825
_cell_angle_gamma   90.00189592
_symmetry_Int_Tables_number   1
_chemical_formula_structural   In86Cu29Se144
_chemical_formula_sum   'In86 Cu29 Se144'
_cell_volume   7256.49720893
_cell_formula_units_Z   1
loop_
 _symmetry_equiv_pos_site_id
 _symmetry_equiv_pos_as_xyz
  1  'x, y, z'
loop_
 _atom_site_type_symbol
 _atom_site_label
 _atom_site_symmetry_multiplicity
 _atom_site_fract_x
 _atom_site_fract_y
 _atom_site_fract_z
 _atom_site_occupancy
  In  In0  1  -0.00601993  0.16654070  0.12552892  1
  In  In1  1  -0.00567478  0.17953858  0.62497732  1
  In  In2  1  0.01656581  0.50612587  0.12081376  1
  In  In3  1  0.00226783  0.49741477  0.62828900  1
  In  In4  1  -0.00547899  0.82238736  0.12221535  1
  In  In5  1  -0.00630964  0.82498331  0.62108655  1
  In  In6  1  0.34552097  0.16313042  0.13122005  1
  In  In7  1  0.33101524  0.14889447  0.62527714  1
  In  In8  1  0.33489547  0.49986042  0.11944688  1
  In  In9  1  0.33766948  0.51937185  0.62553433  1
  In  In10  1  0.33416748  0.84191323  0.11581199  1
  In  In11  1  0.33091425  0.83465984  0.62400515  1
  In  In12  1  0.65895907  0.16637982  0.13516726  1
  In  In13  1  0.67087776  0.17357854  0.61712372  1
  In  In14  1  0.64641971  0.50084856  0.12488099  1
  In  In15  1  0.66497784  0.50386422  0.63386903  1
  In  In16  1  0.67072531  0.84002960  0.12278762  1
  In  In17  1  0.66086006  0.83105358  0.61985708  1
  In  In18  1  0.16913413  -0.01967986  0.37109821  1
  In  In19  1  0.17646186  -0.01949193  0.88077103  1
  In  In20  1  0.18214235  0.32908590  0.37667349  1
  In  In21  1  0.16940946  0.35133263  0.87503337  1
  In  In22  1  0.15585877  0.68096736  0.38142713  1
  In  In23  1  0.16976993  0.66537025  0.87314783  1
  In  In24  1  0.49976502  -0.00397130  0.37521134  1
  In  In25  1  0.48686389  -0.01162975  0.87001597  1
  In  In26  1  0.48700395  0.32594648  0.36731987  1
  In  In27  1  0.50867668  0.33128141  0.87672657  1
  In  In28  1  0.51075821  0.67030471  0.37622455  1
  In  In29  1  0.49568380  0.67132237  0.87510261  1
  In  In30  1  0.82786480  0.00639649  0.38674916  1
  In  In31  1  0.82133850  -0.00445623  0.87372989  1
  In  In32  1  0.82016632  0.33020945  0.37586631  1
  In  In33  1  0.83151027  0.32560464  0.86052213  1
  In  In34  1  0.84642002  0.66608850  0.37388455  1
  In  In35  1  0.84318715  0.67203879  0.86891195  1
  In  In36  1  -0.00292605  0.15347697  0.37977001  1
  In  In37  1  -0.00988563  0.16995112  0.86592874  1
  In  In38  1  0.00377038  0.52064472  0.37009656  1
  In  In39  1  0.01232762  0.51162411  0.86484709  1
  In  In40  1  0.00733500  0.82454505  0.38131284  1
  In  In41  1  0.01236069  0.81892935  0.88077538  1
  In  In42  1  0.34394352  0.17018213  0.36966028  1
  In  In43  1  0.34645763  0.16230773  0.87217889  1
  In  In44  1  0.33173703  0.48713778  0.37442396  1
  In  In45  1  0.31759398  0.50945249  0.88861941  1
  In  In46  1  0.32227925  0.84275568  0.37608141  1
  In  In47  1  0.33952633  0.82695028  0.87397821  1
  In  In48  1  0.66290267  0.16245259  0.38074297  1
  In  In49  1  0.65835872  0.16856569  0.86790313  1
  In  In50  1  0.67220609  0.49767641  0.36981254  1
  In  In51  1  0.65963081  0.49297589  0.87189806  1
  In  In52  1  0.66026230  0.83855676  0.38303324  1
  In  In53  1  0.66903585  0.83020816  0.87903231  1
  In  In54  1  0.18473232  -0.00669958  0.12653541  1
  In  In55  1  0.18492881  -0.00401090  0.62733897  1
  In  In56  1  0.17542145  0.35143326  0.11691853  1
  In  In57  1  0.15199535  0.33658025  0.62375656  1
  In  In58  1  0.16505507  0.66498952  0.12053647  1
  In  In59  1  0.16664586  0.66785517  0.62369156  1
  In  In60  1  0.50305002  -0.00342867  0.12847547  1
  In  In61  1  0.48542700  -0.01110116  0.61710701  1
  In  In62  1  0.48882234  0.35079001  0.14542268  1
  In  In63  1  0.51397884  0.33678530  0.62438385  1
  In  In64  1  0.49165657  0.66507541  0.11422213  1
  In  In65  1  0.48354446  0.69612277  0.64970039  1
  In  In66  1  0.82969535  -0.02608116  0.13325275  1
  In  In67  1  0.83461383  0.00075096  0.61522371  1
  In  In68  1  0.82657105  0.32171754  0.12737133  1
  In  In69  1  0.83102910  0.32879240  0.63108792  1
  In  In70  1  0.83227429  0.68958682  0.12825639  1
  In  In71  1  0.82225744  0.67752229  0.63463557  1
  In  In72  1  0.33419618  0.33651802  0.75517240  1
  In  In73  1  0.66846380  0.66692907  0.25145781  1
  In  In74  1  0.83383525  0.50203488  0.49618270  1
  In  In75  1  0.16486669  0.16305416  0.50232625  1
  In  In76  1  0.00130455  -0.00412974  0.25446049  1
  In  In77  1  0.33146648  0.66556658  0.24343488  1
  In  In78  1  0.17002012  0.16324592  0.00473032  1
  In  In79  1  0.00394948  0.33486881  0.24513097  1
  In  In80  1  0.50231729  0.16513789  -0.00308614  1
  In  In81  1  0.00212146  0.00211977  0.74249620  1
  In  In82  1  0.50136961  0.50618000  0.50167444  1
  In  In83  1  0.83588448  0.50339748  -0.00721486  1
  In  In84  1  0.66214852  -0.00017280  0.75166759  1
  In  In85  1  0.83037068  0.16027839  -0.00138460  1
  Cu  Cu86  1  0.66409246  0.32900824  0.49805692  1
  Cu  Cu87  1  0.16460454  0.16231380  0.74706745  1
  Cu  Cu88  1  0.16622474  0.50366144  0.74913140  1
  Cu  Cu89  1  0.33209217  0.67196987  0.50531128  1
  Cu  Cu90  1  0.50682367  0.15734061  0.25522285  1
  Cu  Cu91  1  0.00081992  -0.00522755  0.50035449  1
  Cu  Cu92  1  0.00188377  0.66784214  0.50182756  1
  Cu  Cu93  1  0.66367400  0.67362153  0.50913308  1
  Cu  Cu94  1  0.00176026  0.66704167  -0.00438801  1
  Cu  Cu95  1  0.50055837  0.50729970  0.75467665  1
  Cu  Cu96  1  0.00536457  0.34044809  -0.00921842  1
  Cu  Cu97  1  0.49901872  0.83456389  0.24885200  1
  Cu  Cu98  1  0.83508673  0.49909447  0.75101265  1
  Cu  Cu99  1  0.66054861  0.67117829  -0.00107688  1
  Cu  Cu100  1  0.33601582  -0.00332315  0.49739862  1
  Cu  Cu101  1  0.66080127  0.33840268  0.00065144  1
  Cu  Cu102  1  0.33051799  0.67071076  -0.00209828  1
  Cu  Cu103  1  0.17883808  0.17078780  0.24797074  1
  Cu  Cu104  1  0.66095763  0.00073632  0.50103670  1
  Cu  Cu105  1  -0.00126231  -0.01303200  0.00233487  1
  Cu  Cu106  1  0.17309445  0.82567467  0.75464670  1
  Cu  Cu107  1  0.50313424  0.16664412  0.74573043  1
  Cu  Cu108  1  0.82414142  0.16242359  0.25734909  1
  Cu  Cu109  1  0.33293873  0.33306937  0.49610142  1
  Cu  Cu110  1  0.17174784  0.50415915  0.24597556  1
  Cu  Cu111  1  -0.00540125  0.33909682  0.50416467  1
  Cu  Cu112  1  0.83513761  0.50315117  0.24982197  1
  Cu  Cu113  1  0.83777143  0.83573640  0.75162787  1
  Cu  Cu114  1  0.66794917  -0.00773602  0.00327372  1
  Se  Se115  1  0.07313260  0.07301222  0.06173810  1
  Se  Se116  1  0.07720438  0.07409162  0.56596743  1
  Se  Se117  1  0.08600748  0.42202805  0.04616799  1
  Se  Se118  1  0.08154750  0.42291617  0.55125604  1
  Se  Se119  1  0.08332178  0.74944606  0.05205806  1
  Se  Se120  1  0.08632281  0.75278721  0.55342854  1
  Se  Se121  1  0.41274972  0.07445352  0.05520988  1
  Se  Se122  1  0.41557297  0.08550472  0.54882703  1
  Se  Se123  1  0.42661060  0.41494782  0.05965827  1
  Se  Se124  1  0.40985087  0.41296221  0.56073076  1
  Se  Se125  1  0.41556791  0.75507084  0.04867835  1
  Se  Se126  1  0.41981023  0.75002603  0.55851122  1
  Se  Se127  1  0.74427815  0.07566815  0.06429641  1
  Se  Se128  1  0.74857854  0.08429509  0.55069161  1
  Se  Se129  1  0.74892887  0.41396535  0.05777719  1
  Se  Se130  1  0.74051302  0.41658581  0.55681635  1
  Se  Se131  1  0.74614763  0.75175970  0.05220924  1
  Se  Se132  1  0.75608261  0.75509388  0.55446929  1
  Se  Se133  1  0.26287660  0.25267754  0.06101309  1
  Se  Se134  1  0.25504961  0.25556134  0.56210932  1
  Se  Se135  1  0.25121692  0.58442824  0.05349871  1
  Se  Se136  1  0.24855232  0.58361559  0.55261273  1
  Se  Se137  1  0.24429758  0.91550435  0.04630775  1
  Se  Se138  1  0.24999433  0.91498065  0.54977812  1
  Se  Se139  1  0.58758164  0.25341024  0.06072511  1
  Se  Se140  1  0.57681136  0.24855020  0.54976194  1
  Se  Se141  1  0.57959552  0.58275475  0.04848152  1
  Se  Se142  1  0.58173130  0.59491023  0.56795561  1
  Se  Se143  1  0.57920840  0.91414337  0.05515942  1
  Se  Se144  1  0.57911146  0.91394679  0.55205033  1
  Se  Se145  1  0.92495888  0.26065631  0.05125996  1
  Se  Se146  1  0.91007635  0.25510303  0.55344965  1
  Se  Se147  1  0.91950860  0.59172550  0.05910617  1
  Se  Se148  1  0.91620384  0.59100708  0.56167845  1
  Se  Se149  1  0.91087261  0.90981280  0.05528117  1
  Se  Se150  1  0.91578141  0.91145258  0.55195284  1
  Se  Se151  1  0.07523247  0.25744688  0.44197628  1
  Se  Se152  1  0.08003797  0.24831067  0.93749945  1
  Se  Se153  1  0.08463432  0.58403946  0.44849080  1
  Se  Se154  1  0.08579994  0.58230500  0.94423698  1
  Se  Se155  1  0.08709511  0.91469100  0.44823862  1
  Se  Se156  1  0.08613313  0.90942199  0.94949299  1
  Se  Se157  1  0.41721087  0.24893511  0.44653629  1
  Se  Se158  1  0.40809098  0.25960980  0.94349332  1
  Se  Se159  1  0.40801049  0.59223127  0.43975663  1
  Se  Se160  1  0.41650067  0.58674593  0.94709957  1
  Se  Se161  1  0.41740101  0.91105816  0.44417489  1
  Se  Se162  1  0.41415934  0.91462056  0.94542768  1
  Se  Se163  1  0.75113461  0.24561696  0.44862885  1
  Se  Se164  1  0.74103862  0.25635404  0.94095519  1
  Se  Se165  1  0.73835073  0.59538018  0.44209451  1
  Se  Se166  1  0.74237551  0.59311231  0.93729331  1
  Se  Se167  1  0.74788000  0.91601135  0.45173200  1
  Se  Se168  1  0.75375585  0.91294842  0.94869294  1
  Se  Se169  1  0.25299154  0.07867600  0.43754963  1
  Se  Se170  1  0.26038838  0.07823499  0.94168324  1
  Se  Se171  1  0.24670341  0.41881615  0.45025661  1
  Se  Se172  1  0.25112707  0.40996907  0.95297282  1
  Se  Se173  1  0.25105308  0.75289950  0.44707376  1
  Se  Se174  1  0.24698679  0.75146277  0.94272640  1
  Se  Se175  1  0.57590958  0.08176693  0.44730398  1
  Se  Se176  1  0.59253133  0.07100384  0.93790258  1
  Se  Se177  1  0.58667182  0.41368992  0.43926192  1
  Se  Se178  1  0.57827167  0.42123611  0.94812495  1
  Se  Se179  1  0.57903224  0.75185164  0.45172719  1
  Se  Se180  1  0.57760232  0.75508171  0.94586611  1
  Se  Se181  1  0.91704165  0.08522841  0.45559638  1
  Se  Se182  1  0.92570626  0.07132476  0.94023084  1
  Se  Se183  1  0.92472021  0.41446601  0.43299363  1
  Se  Se184  1  0.92041767  0.41207784  0.92992677  1
  Se  Se185  1  0.91540927  0.74879227  0.44925700  1
  Se  Se186  1  0.91375930  0.75055502  0.94687454  1
  Se  Se187  1  0.25938610  0.25511934  0.30205439  1
  Se  Se188  1  0.24205767  0.24227744  0.81186404  1
  Se  Se189  1  0.24456474  0.58305672  0.31256282  1
  Se  Se190  1  0.25279743  0.58015034  0.80478069  1
  Se  Se191  1  0.25226739  0.91523209  0.29634462  1
  Se  Se192  1  0.25540533  0.91304505  0.80367010  1
  Se  Se193  1  0.58461043  0.24616785  0.30906037  1
  Se  Se194  1  0.58146183  0.25401411  0.79884470  1
  Se  Se195  1  0.57390407  0.57242072  0.30467063  1
  Se  Se196  1  0.58520916  0.58867078  0.80830169  1
  Se  Se197  1  0.58321415  0.91220242  0.30589062  1
  Se  Se198  1  0.57546889  0.90241752  0.80460453  1
  Se  Se199  1  0.91566466  0.24290921  0.30844831  1
  Se  Se200  1  0.91895161  0.25031954  0.79323701  1
  Se  Se201  1  0.91970399  0.58986920  0.29592612  1
  Se  Se202  1  0.92001355  0.58606558  0.79946212  1
  Se  Se203  1  0.91291512  0.91532587  0.31991498  1
  Se  Se204  1  0.91967627  0.91427346  0.81145626  1
  Se  Se205  1  0.09594200  0.09338402  0.30792465  1
  Se  Se206  1  0.09229576  0.08077284  0.81295399  1
  Se  Se207  1  0.09242216  0.42165156  0.30862779  1
  Se  Se208  1  0.08411892  0.41497893  0.79873190  1
  Se  Se209  1  0.08432895  0.75384911  0.30376600  1
  Se  Se210  1  0.08329016  0.74402969  0.80209796  1
  Se  Se211  1  0.41614047  0.07605148  0.30393001  1
  Se  Se212  1  0.42156409  0.08248323  0.79889813  1
  Se  Se213  1  0.41967919  0.42321802  0.30233542  1
  Se  Se214  1  0.42008770  0.42681996  0.81593092  1
  Se  Se215  1  0.42110193  0.75218995  0.30894128  1
  Se  Se216  1  0.40918078  0.73959840  0.80114051  1
  Se  Se217  1  0.74579622  0.07771195  0.31149310  1
  Se  Se218  1  0.75922893  0.09467703  0.80348727  1
  Se  Se219  1  0.75470591  0.41664149  0.30070975  1
  Se  Se220  1  0.74725778  0.41763405  0.80211259  1
  Se  Se221  1  0.75325491  0.75476475  0.31455606  1
  Se  Se222  1  0.75298715  0.75528110  0.80622694  1
  Se  Se223  1  0.25658685  0.08188193  0.19634495  1
  Se  Se224  1  0.25428895  0.07833943  0.70331952  1
  Se  Se225  1  0.25437434  0.42035034  0.19408863  1
  Se  Se226  1  0.24718698  0.42235996  0.68850817  1
  Se  Se227  1  0.24503034  0.75905337  0.18677212  1
  Se  Se228  1  0.25209716  0.74649579  0.69329303  1
  Se  Se229  1  0.58734865  0.07258853  0.20095577  1
  Se  Se230  1  0.57756060  0.08414219  0.68326998  1
  Se  Se231  1  0.60554208  0.40253901  0.19912553  1
  Se  Se232  1  0.57911988  0.42096385  0.70041328  1
  Se  Se233  1  0.57410104  0.74950173  0.18862904  1
  Se  Se234  1  0.60521630  0.74370121  0.69766065  1
  Se  Se235  1  0.90605280  0.08709427  0.19423660  1
  Se  Se236  1  0.90504068  0.09160239  0.69056319  1
  Se  Se237  1  0.91260556  0.42449883  0.18433011  1
  Se  Se238  1  0.91570354  0.41618700  0.69435790  1
  Se  Se239  1  0.91434120  0.75837204  0.20149205  1
  Se  Se240  1  0.92011682  0.75036389  0.69905908  1
  Se  Se241  1  0.09615831  0.24508975  0.18535310  1
  Se  Se242  1  0.08378930  0.24885676  0.69659204  1
  Se  Se243  1  0.08545197  0.58731275  0.19654188  1
  Se  Se244  1  0.08335863  0.58536373  0.69382976  1
  Se  Se245  1  0.08541460  0.91298857  0.18757859  1
  Se  Se246  1  0.09413724  0.90534224  0.69079317  1
  Se  Se247  1  0.42320399  0.24360394  0.20326749  1
  Se  Se248  1  0.41811572  0.24728336  0.68828700  1
  Se  Se249  1  0.42835853  0.57557953  0.19192806  1
  Se  Se250  1  0.41276157  0.58816275  0.70426866  1
  Se  Se251  1  0.41439600  0.91368401  0.19328061  1
  Se  Se252  1  0.41081000  0.91863071  0.69377518  1
  Se  Se253  1  0.74728505  0.24837846  0.20126535  1
  Se  Se254  1  0.73106585  0.26046624  0.69338885  1
  Se  Se255  1  0.75519297  0.57863381  0.18483196  1
  Se  Se256  1  0.75011420  0.58450757  0.70111652  1
  Se  Se257  1  0.74146045  0.90908415  0.20423135  1
  Se  Se258  1  0.75823560  0.91550629  0.69115355  1
