# generated using pymatgen
data_In86Cu29Se144
_symmetry_space_group_name_H-M   'P 1'
_cell_length_a   17.57684446
_cell_length_b   17.57934604
_cell_length_c   23.44081426
_cell_angle_alpha   89.99917557
_cell_angle_beta   89.98416512
_cell_angle_gamma   89.97432824
_symmetry_Int_Tables_number   1
_chemical_formula_structural   In86Cu29Se144
_chemical_formula_sum   'In86 Cu29 Se144'
_cell_volume   7242.96285443
_cell_formula_units_Z   1
loop_
 _symmetry_equiv_pos_site_id
 _symmetry_equiv_pos_as_xyz
  1  'x, y, z'
loop_
 _atom_site_type_symbol
 _atom_site_label
 _atom_site_symmetry_multiplicity
 _atom_site_fract_x
 _atom_site_fract_y
 _atom_site_fract_z
 _atom_site_occupancy
  In  In0  1  0.00089029  0.15821603  0.12666794  1
  In  In1  1  0.01216355  0.15279344  0.63549150  1
  In  In2  1  0.01813809  0.50915290  0.11636507  1
  In  In3  1  -0.00095942  0.48544041  0.63150524  1
  In  In4  1  0.01934388  0.81845814  0.14121786  1
  In  In5  1  0.01438730  0.84141038  0.61806090  1
  In  In6  1  0.31782427  0.16270732  0.12430795  1
  In  In7  1  0.32779034  0.16525159  0.62437314  1
  In  In8  1  0.33155674  0.50864339  0.11276726  1
  In  In9  1  0.32564866  0.51311779  0.63727677  1
  In  In10  1  0.32235039  0.83923262  0.13149621  1
  In  In11  1  0.33078955  0.83574240  0.62607231  1
  In  In12  1  0.68583605  0.16918003  0.12348221  1
  In  In13  1  0.65554427  0.17750802  0.62122025  1
  In  In14  1  0.64998628  0.49802236  0.12065097  1
  In  In15  1  0.67170599  0.50289662  0.63116329  1
  In  In16  1  0.66415101  0.83147511  0.12626674  1
  In  In17  1  0.66125891  0.83223049  0.61819297  1
  In  In18  1  0.16427533  0.00059185  0.37402518  1
  In  In19  1  0.16666803  0.00031056  0.87461127  1
  In  In20  1  0.17039299  0.32711926  0.38393057  1
  In  In21  1  0.16793467  0.33005925  0.87191652  1
  In  In22  1  0.16824582  0.66739403  0.37507729  1
  In  In23  1  0.18941070  0.65129819  0.89897975  1
  In  In24  1  0.48948278  0.00438103  0.38267998  1
  In  In25  1  0.49053792  0.00906432  0.87177747  1
  In  In26  1  0.49577466  0.31697065  0.37439005  1
  In  In27  1  0.49424738  0.35940077  0.87375496  1
  In  In28  1  0.49584068  0.68087416  0.37941343  1
  In  In29  1  0.47318270  0.63356306  0.84419928  1
  In  In30  1  0.82997639  -0.00998554  0.37593993  1
  In  In31  1  0.85493184  -0.00204549  0.87229546  1
  In  In32  1  0.83179376  0.34935902  0.36882321  1
  In  In33  1  0.82845189  0.31652185  0.88024036  1
  In  In34  1  0.84769634  0.66832885  0.37208578  1
  In  In35  1  0.82861073  0.68115269  0.86798352  1
  In  In36  1  0.01600254  0.16694351  0.36911541  1
  In  In37  1  0.00357422  0.16487444  0.87586108  1
  In  In38  1  0.00237681  0.51032819  0.37215855  1
  In  In39  1  0.02798891  0.50496564  0.88005643  1
  In  In40  1  0.00303405  0.83421883  0.37642697  1
  In  In41  1  0.00385298  0.84196826  0.87203145  1
  In  In42  1  0.33282663  0.15825650  0.37744658  1
  In  In43  1  0.31926517  0.15686556  0.86616745  1
  In  In44  1  0.31453683  0.49953889  0.37770599  1
  In  In45  1  0.33185844  0.49730009  0.87028599  1
  In  In46  1  0.32921977  0.83224412  0.37749566  1
  In  In47  1  0.32048148  0.82069725  0.86725604  1
  In  In48  1  0.65535018  0.15871586  0.37068689  1
  In  In49  1  0.67244862  0.19273721  0.88376005  1
  In  In50  1  0.67565075  0.49894502  0.36879402  1
  In  In51  1  0.63825347  0.50033093  0.87705439  1
  In  In52  1  0.66302224  0.84137091  0.38608453  1
  In  In53  1  0.67380212  0.81506660  0.86711661  1
  In  In54  1  0.16744336  -0.00045353  0.13054447  1
  In  In55  1  0.16820806  -0.00098180  0.62516573  1
  In  In56  1  0.16638290  0.33126949  0.11392439  1
  In  In57  1  0.16732996  0.33225011  0.62694366  1
  In  In58  1  0.16669934  0.67057712  0.12264905  1
  In  In59  1  0.17389880  0.67773043  0.61940315  1
  In  In60  1  0.49144358  -0.01218194  0.12822451  1
  In  In61  1  0.48836963  -0.00622355  0.61738531  1
  In  In62  1  0.49171461  0.34859153  0.12320685  1
  In  In63  1  0.50142084  0.32395793  0.62545548  1
  In  In64  1  0.49292035  0.64993711  0.11808905  1
  In  In65  1  0.48400315  0.67783016  0.63732672  1
  In  In66  1  0.85507103  0.02077831  0.12566195  1
  In  In67  1  0.85201012  0.00026322  0.62616031  1
  In  In68  1  0.83496532  0.31679223  0.12455006  1
  In  In69  1  0.83606791  0.34410948  0.63079700  1
  In  In70  1  0.83877579  0.68185371  0.12338023  1
  In  In71  1  0.82700042  0.67115046  0.62907637  1
  In  In72  1  0.33196266  0.33219501  0.25185661  1
  In  In73  1  0.49562109  0.82561785  -0.00222857  1
  In  In74  1  0.84191418  0.83999143  -0.00436833  1
  In  In75  1  0.66912567  -0.00058848  0.75168002  1
  In  In76  1  0.67072988  -0.00012718  0.25052174  1
  In  In77  1  0.83689417  0.49572727  0.00211738  1
  In  In78  1  0.00090114  0.33093255  0.24164804  1
  In  In79  1  0.49816805  0.50111106  0.51177136  1
  In  In80  1  0.49838385  0.17354372  -0.00177671  1
  In  In81  1  0.83560926  0.50564623  0.50378738  1
  In  In82  1  0.00749066  0.67142070  0.75464264  1
  In  In83  1  0.66425047  0.33558850  0.75188509  1
  In  In84  1  0.83355625  0.16754118  0.50090133  1
  In  In85  1  0.66502653  0.66860595  0.24737568  1
  Cu  Cu86  1  0.00704840  0.32893714  0.50551700  1
  Cu  Cu87  1  0.16896023  0.49950966  0.75435691  1
  Cu  Cu88  1  0.50413533  0.16674403  0.25131753  1
  Cu  Cu89  1  0.00966588  0.00242549  0.00157438  1
  Cu  Cu90  1  0.16559788  0.83301312  0.25473574  1
  Cu  Cu91  1  0.66649908  0.67744816  0.50361540  1
  Cu  Cu92  1  0.65685856  0.32842440  0.49457220  1
  Cu  Cu93  1  0.16955975  0.83488627  0.74881658  1
  Cu  Cu94  1  0.83241586  0.49697413  0.24437902  1
  Cu  Cu95  1  0.49376704  0.50105457  0.24481144  1
  Cu  Cu96  1  0.32810804  -0.00264648  0.50034090  1
  Cu  Cu97  1  0.83938251  0.83660498  0.25156585  1
  Cu  Cu98  1  0.33279266  0.33706921  -0.00569293  1
  Cu  Cu99  1  0.32511971  0.32932341  0.50194367  1
  Cu  Cu100  1  0.66120510  0.66024866  -0.00788209  1
  Cu  Cu101  1  0.00526132  0.66923258  0.49589798  1
  Cu  Cu102  1  0.67474377  0.00394779  -0.00186123  1
  Cu  Cu103  1  0.00598177  -0.00175985  0.50004620  1
  Cu  Cu104  1  0.49945545  0.83483832  0.74212302  1
  Cu  Cu105  1  0.16523097  0.50369470  0.24757124  1
  Cu  Cu106  1  0.48463054  0.83238453  0.25400697  1
  Cu  Cu107  1  0.33209073  0.66915242  0.50506544  1
  Cu  Cu108  1  0.66358507  0.00072523  0.49975506  1
  Cu  Cu109  1  0.83861213  0.16317132  0.75572433  1
  Cu  Cu110  1  0.49000224  0.16601779  0.74789519  1
  Cu  Cu111  1  0.32281423  -0.00335950  -0.00051903  1
  Cu  Cu112  1  0.16294344  0.16660763  0.74934170  1
  Cu  Cu113  1  0.00395008  0.32836344  -0.00263235  1
  Cu  Cu114  1  0.83780278  0.49781927  0.75661246  1
  Se  Se115  1  0.09082405  0.08515899  0.05758175  1
  Se  Se116  1  0.08496453  0.08368258  0.55509984  1
  Se  Se117  1  0.08576476  0.41657881  0.04674394  1
  Se  Se118  1  0.08455475  0.41867576  0.55729332  1
  Se  Se119  1  0.08268416  0.75689423  0.05606729  1
  Se  Se120  1  0.08915863  0.75334100  0.54833875  1
  Se  Se121  1  0.41253413  0.07414749  0.05530279  1
  Se  Se122  1  0.41102179  0.08477278  0.55228336  1
  Se  Se123  1  0.41584715  0.42165096  0.04672100  1
  Se  Se124  1  0.40336301  0.40971046  0.56418957  1
  Se  Se125  1  0.40429691  0.74457439  0.06125265  1
  Se  Se126  1  0.41668546  0.75257544  0.55675923  1
  Se  Se127  1  0.75904314  0.08068202  0.05372840  1
  Se  Se128  1  0.74275411  0.07904833  0.56321349  1
  Se  Se129  1  0.74542322  0.40968997  0.06168871  1
  Se  Se130  1  0.73857958  0.40729011  0.55518575  1
  Se  Se131  1  0.73882215  0.74588892  0.05035038  1
  Se  Se132  1  0.75752550  0.75456797  0.55409191  1
  Se  Se133  1  0.25443948  0.24952392  0.04836233  1
  Se  Se134  1  0.24180600  0.24556097  0.55508791  1
  Se  Se135  1  0.23070773  0.57457812  0.05176758  1
  Se  Se136  1  0.25089568  0.58141131  0.55637182  1
  Se  Se137  1  0.24393368  0.91482402  0.05673196  1
  Se  Se138  1  0.24637035  0.91335667  0.55479301  1
  Se  Se139  1  0.58538482  0.25488301  0.06449686  1
  Se  Se140  1  0.57240488  0.24656072  0.54632920  1
  Se  Se141  1  0.57743533  0.57787324  0.04508496  1
  Se  Se142  1  0.59089676  0.59552320  0.56489340  1
  Se  Se143  1  0.59086992  0.92365414  0.05415109  1
  Se  Se144  1  0.57881506  0.91674123  0.55133787  1
  Se  Se145  1  0.92522569  0.24635502  0.05541072  1
  Se  Se146  1  0.92151096  0.25405376  0.56572813  1
  Se  Se147  1  0.92212640  0.59695607  0.05513216  1
  Se  Se148  1  0.92901011  0.59207168  0.56283833  1
  Se  Se149  1  0.93075536  0.92002315  0.06277776  1
  Se  Se150  1  0.91943982  0.91637931  0.55112643  1
  Se  Se151  1  0.08342601  0.24388874  0.44902307  1
  Se  Se152  1  0.08903090  0.24607404  0.94378433  1
  Se  Se153  1  0.08598292  0.58091180  0.44507855  1
  Se  Se154  1  0.08091081  0.59105153  0.95824601  1
  Se  Se155  1  0.08757894  0.91408694  0.44569068  1
  Se  Se156  1  0.08580396  0.91632513  0.94519328  1
  Se  Se157  1  0.40947905  0.24884355  0.44660633  1
  Se  Se158  1  0.40887077  0.25424777  0.93200538  1
  Se  Se159  1  0.41076173  0.58538163  0.44434456  1
  Se  Se160  1  0.42020939  0.57936150  0.93667673  1
  Se  Se161  1  0.41398613  0.91313303  0.44811305  1
  Se  Se162  1  0.40878286  0.92190144  0.93991249  1
  Se  Se163  1  0.74645637  0.25705400  0.43620941  1
  Se  Se164  1  0.75982752  0.24569859  0.96169982  1
  Se  Se165  1  0.74236910  0.59429054  0.44187669  1
  Se  Se166  1  0.75043684  0.58509810  0.93598402  1
  Se  Se167  1  0.75307766  0.91752860  0.45302114  1
  Se  Se168  1  0.74384619  0.92093673  0.93376254  1
  Se  Se169  1  0.24604968  0.08189970  0.44633886  1
  Se  Se170  1  0.24621022  0.08586135  0.94605945  1
  Se  Se171  1  0.24362024  0.41811538  0.45232078  1
  Se  Se172  1  0.24683611  0.41749476  0.94073597  1
  Se  Se173  1  0.24849947  0.74816417  0.44736508  1
  Se  Se174  1  0.25625609  0.75969933  0.95375074  1
  Se  Se175  1  0.58084983  0.08557657  0.44740806  1
  Se  Se176  1  0.59140495  0.08050360  0.93872754  1
  Se  Se177  1  0.58333819  0.41892796  0.43834733  1
  Se  Se178  1  0.59908348  0.39419112  0.94557577  1
  Se  Se179  1  0.57844411  0.75585351  0.45101416  1
  Se  Se180  1  0.58021537  0.73891821  0.93273398  1
  Se  Se181  1  0.92321107  0.07918303  0.44025633  1
  Se  Se182  1  0.92147710  0.08156509  0.94764049  1
  Se  Se183  1  0.92615200  0.41096540  0.44537130  1
  Se  Se184  1  0.92675261  0.41142682  0.93680700  1
  Se  Se185  1  0.91664767  0.75100980  0.44616807  1
  Se  Se186  1  0.92639678  0.74243264  0.93996747  1
  Se  Se187  1  0.24099457  0.24107823  0.30768173  1
  Se  Se188  1  0.24969208  0.25136822  0.79878328  1
  Se  Se189  1  0.24968612  0.58437171  0.30247223  1
  Se  Se190  1  0.24499619  0.58915204  0.80798064  1
  Se  Se191  1  0.25041854  0.91596308  0.30729561  1
  Se  Se192  1  0.25152972  0.92037201  0.80356591  1
  Se  Se193  1  0.58654894  0.25277751  0.30136815  1
  Se  Se194  1  0.57060638  0.24461448  0.80998857  1
  Se  Se195  1  0.57296343  0.58024014  0.30914200  1
  Se  Se196  1  0.60386550  0.59867448  0.80123777  1
  Se  Se197  1  0.57522755  0.91064905  0.30857131  1
  Se  Se198  1  0.57528264  0.90952984  0.81061136  1
  Se  Se199  1  0.91356079  0.25065609  0.31090814  1
  Se  Se200  1  0.91814269  0.25049217  0.80795387  1
  Se  Se201  1  0.91423131  0.57925670  0.29947618  1
  Se  Se202  1  0.91889408  0.57760972  0.81568269  1
  Se  Se203  1  0.91964859  0.91857809  0.30681786  1
  Se  Se204  1  0.90854387  0.90205181  0.80122509  1
  Se  Se205  1  0.08001206  0.07470305  0.30029177  1
  Se  Se206  1  0.08212160  0.08116245  0.80452937  1
  Se  Se207  1  0.09051502  0.41758596  0.30783305  1
  Se  Se208  1  0.08299835  0.41510459  0.80323798  1
  Se  Se209  1  0.08154139  0.74752229  0.30685997  1
  Se  Se210  1  0.10202063  0.75171177  0.81631232  1
  Se  Se211  1  0.42069925  0.08517866  0.30541801  1
  Se  Se212  1  0.40821428  0.07846867  0.79756539  1
  Se  Se213  1  0.42068471  0.42420340  0.31348189  1
  Se  Se214  1  0.41244285  0.41893201  0.79655065  1
  Se  Se215  1  0.40721478  0.74369787  0.30584001  1
  Se  Se216  1  0.41492071  0.75391774  0.79728748  1
  Se  Se217  1  0.76114389  0.09159386  0.30796728  1
  Se  Se218  1  0.75079888  0.09307081  0.81674350  1
  Se  Se219  1  0.74516625  0.41602118  0.29401531  1
  Se  Se220  1  0.75298934  0.42123222  0.81653752  1
  Se  Se221  1  0.75091715  0.76025135  0.31040947  1
  Se  Se222  1  0.76177173  0.75939673  0.79085342  1
  Se  Se223  1  0.26213947  0.07210400  0.19775461  1
  Se  Se224  1  0.24762775  0.08317527  0.69570269  1
  Se  Se225  1  0.24471507  0.42075658  0.18823586  1
  Se  Se226  1  0.24825325  0.41586342  0.69761681  1
  Se  Se227  1  0.24598564  0.74878298  0.19832786  1
  Se  Se228  1  0.25233848  0.74850628  0.69654838  1
  Se  Se229  1  0.57914481  0.08612794  0.18652990  1
  Se  Se230  1  0.57677746  0.08848891  0.69068003  1
  Se  Se231  1  0.57988366  0.41648721  0.19721701  1
  Se  Se232  1  0.57315174  0.42508338  0.69274812  1
  Se  Se233  1  0.56593459  0.75574927  0.19053693  1
  Se  Se234  1  0.58808306  0.75245722  0.69391549  1
  Se  Se235  1  0.92402346  0.08948284  0.20633105  1
  Se  Se236  1  0.92099060  0.07856732  0.70379554  1
  Se  Se237  1  0.91618450  0.42633694  0.18056436  1
  Se  Se238  1  0.91929226  0.41069506  0.70666250  1
  Se  Se239  1  0.91795516  0.74526816  0.20254734  1
  Se  Se240  1  0.92362473  0.75631979  0.68732804  1
  Se  Se241  1  0.09961392  0.24318558  0.19062806  1
  Se  Se242  1  0.08047625  0.25387813  0.69772950  1
  Se  Se243  1  0.08248884  0.58827273  0.19548292  1
  Se  Se244  1  0.09044911  0.57933352  0.69011420  1
  Se  Se245  1  0.08324969  0.92134916  0.20339227  1
  Se  Se246  1  0.08468462  0.91784289  0.69688230  1
  Se  Se247  1  0.42165004  0.24306311  0.18864358  1
  Se  Se248  1  0.41122407  0.25087823  0.69325695  1
  Se  Se249  1  0.40855111  0.58105032  0.19257621  1
  Se  Se250  1  0.42411043  0.57772603  0.70315808  1
  Se  Se251  1  0.40677022  0.92069663  0.20190826  1
  Se  Se252  1  0.41347220  0.92101796  0.69523404  1
  Se  Se253  1  0.75207922  0.24929779  0.19982090  1
  Se  Se254  1  0.75689607  0.24047814  0.69331272  1
  Se  Se255  1  0.75361067  0.57997949  0.18342171  1
  Se  Se256  1  0.75839595  0.57926190  0.69920945  1
  Se  Se257  1  0.76149400  0.91236089  0.18658963  1
  Se  Se258  1  0.75452929  0.91550916  0.68600659  1
