# generated using pymatgen
data_In86Cu29Se144
_symmetry_space_group_name_H-M   'P 1'
_cell_length_a   17.57392202
_cell_length_b   17.57513330
_cell_length_c   23.43491980
_cell_angle_alpha   90.00046497
_cell_angle_beta   89.94496577
_cell_angle_gamma   90.00298585
_symmetry_Int_Tables_number   1
_chemical_formula_structural   In86Cu29Se144
_chemical_formula_sum   'In86 Cu29 Se144'
_cell_volume   7238.20024036
_cell_formula_units_Z   1
loop_
 _symmetry_equiv_pos_site_id
 _symmetry_equiv_pos_as_xyz
  1  'x, y, z'
loop_
 _atom_site_type_symbol
 _atom_site_label
 _atom_site_symmetry_multiplicity
 _atom_site_fract_x
 _atom_site_fract_y
 _atom_site_fract_z
 _atom_site_occupancy
  In  In0  1  -0.01485402  0.15446031  0.11554323  1
  In  In1  1  -0.00728340  0.17201952  0.63272627  1
  In  In2  1  -0.00688861  0.50293670  0.12537021  1
  In  In3  1  0.00271833  0.49699049  0.62703808  1
  In  In4  1  0.01475313  0.84158969  0.11205163  1
  In  In5  1  -0.00903113  0.84527035  0.63709142  1
  In  In6  1  0.33591376  0.17654053  0.12263266  1
  In  In7  1  0.33899917  0.16354729  0.63037891  1
  In  In8  1  0.33891419  0.49293102  0.13580199  1
  In  In9  1  0.32351617  0.49547928  0.61667452  1
  In  In10  1  0.32490651  0.82542710  0.10866425  1
  In  In11  1  0.34289435  0.83306831  0.62776402  1
  In  In12  1  0.67888528  0.15128717  0.14010620  1
  In  In13  1  0.67569159  0.17621081  0.61427078  1
  In  In14  1  0.65703315  0.49874373  0.13748426  1
  In  In15  1  0.67697592  0.51400285  0.60364076  1
  In  In16  1  0.68233833  0.85984871  0.10461427  1
  In  In17  1  0.66703045  0.83044616  0.61308608  1
  In  In18  1  0.16088545  0.01287732  0.36877257  1
  In  In19  1  0.16594699  0.01040522  0.87563727  1
  In  In20  1  0.17317322  0.33491213  0.37681794  1
  In  In21  1  0.15964430  0.32617037  0.86735126  1
  In  In22  1  0.16325176  0.65444645  0.37296366  1
  In  In23  1  0.15790816  0.68455855  0.88373480  1
  In  In24  1  0.51052332  -0.01490808  0.37865495  1
  In  In25  1  0.48548357  -0.00135817  0.87999285  1
  In  In26  1  0.49702897  0.32866458  0.37749669  1
  In  In27  1  0.49932272  0.34385473  0.86892777  1
  In  In28  1  0.49712329  0.67777110  0.38306838  1
  In  In29  1  0.49716179  0.67506371  0.87272656  1
  In  In30  1  0.83120494  -0.00025388  0.37308704  1
  In  In31  1  0.84499848  -0.01444871  0.88681299  1
  In  In32  1  0.82430902  0.34114038  0.38814374  1
  In  In33  1  0.83439334  0.32131489  0.87277186  1
  In  In34  1  0.81972670  0.67143952  0.39593816  1
  In  In35  1  0.85641897  0.68087254  0.86975170  1
  In  In36  1  0.00435843  0.15543666  0.37590770  1
  In  In37  1  0.00460589  0.16513991  0.87229710  1
  In  In38  1  -0.00654837  0.49982865  0.39403485  1
  In  In39  1  0.00105691  0.50340353  0.85758762  1
  In  In40  1  -0.01343975  0.83113804  0.37293610  1
  In  In41  1  -0.00341829  0.83833705  0.87457326  1
  In  In42  1  0.32769442  0.17996854  0.37228677  1
  In  In43  1  0.32367384  0.15449043  0.86640618  1
  In  In44  1  0.33321173  0.50120909  0.37555581  1
  In  In45  1  0.34120516  0.49773561  0.86558512  1
  In  In46  1  0.35105832  0.83335062  0.36922848  1
  In  In47  1  0.29524803  0.87011825  0.91883032  1
  In  In48  1  0.66384703  0.16115362  0.37405165  1
  In  In49  1  0.67653335  0.16938841  0.88210655  1
  In  In50  1  0.67395747  0.49081462  0.38886015  1
  In  In51  1  0.66333889  0.50097008  0.87263234  1
  In  In52  1  0.66174246  0.83792352  0.37763084  1
  In  In53  1  0.66699192  0.83970968  0.88920460  1
  In  In54  1  0.16148173  -0.01099736  0.11054482  1
  In  In55  1  0.16369478  0.00614981  0.63740316  1
  In  In56  1  0.17996418  0.33390642  0.12326524  1
  In  In57  1  0.15636003  0.34671076  0.63021679  1
  In  In58  1  0.17536148  0.68200132  0.11639181  1
  In  In59  1  0.16538315  0.65224269  0.62754645  1
  In  In60  1  0.50738082  0.00133141  0.12213912  1
  In  In61  1  0.49723535  -0.00512158  0.62227454  1
  In  In62  1  0.49848348  0.33067397  0.13895090  1
  In  In63  1  0.49679529  0.33077138  0.61833638  1
  In  In64  1  0.49076866  0.67156040  0.13214572  1
  In  In65  1  0.50624500  0.67028456  0.60845175  1
  In  In66  1  0.83353781  0.00557505  0.12559251  1
  In  In67  1  0.83745667  0.00702073  0.61868675  1
  In  In68  1  0.83798179  0.31883540  0.13089411  1
  In  In69  1  0.87358895  0.35223267  0.59415480  1
  In  In70  1  0.82616185  0.67402686  0.12444805  1
  In  In71  1  0.83747075  0.67344857  0.62329387  1
  In  In72  1  0.00221274  0.32861378  0.25947766  1
  In  In73  1  0.65984109  0.66948280  0.25818319  1
  In  In74  1  0.16077931  0.17277955  0.50115928  1
  In  In75  1  0.67292789  0.33369511  0.74139749  1
  In  In76  1  0.66885338  0.66735039  0.73682156  1
  In  In77  1  0.49913306  0.50588576  -0.00251518  1
  In  In78  1  0.33543418  -0.00120938  0.24232528  1
  In  In79  1  0.66944278  0.00422227  0.74995162  1
  In  In80  1  0.50137465  0.16349521  0.00373174  1
  In  In81  1  0.32963644  0.66849863  0.75035269  1
  In  In82  1  0.83347521  0.50294305  -0.00308158  1
  In  In83  1  0.16979067  0.83246377  0.50330894  1
  In  In84  1  0.16558340  0.50170247  -0.00298797  1
  In  In85  1  0.00134923  0.66534735  0.24927900  1
  Cu  Cu86  1  0.49896305  0.16773180  0.74795706  1
  Cu  Cu87  1  0.49569326  0.49754043  0.73893050  1
  Cu  Cu88  1  0.83422769  0.84298844  0.24684243  1
  Cu  Cu89  1  -0.00788505  -0.00718995  0.50055523  1
  Cu  Cu90  1  0.67346181  0.32730842  0.00993425  1
  Cu  Cu91  1  0.33412392  0.66786802  0.49960225  1
  Cu  Cu92  1  0.34157244  0.00290670  0.50173621  1
  Cu  Cu93  1  0.17508872  0.50152530  0.25100816  1
  Cu  Cu94  1  -0.00038744  0.00538460  -0.00454706  1
  Cu  Cu95  1  0.00287300  0.32572570  -0.00573363  1
  Cu  Cu96  1  0.16996139  0.83699724  0.23866453  1
  Cu  Cu97  1  0.49963933  0.49051694  0.26012306  1
  Cu  Cu98  1  0.66903252  0.67190203  -0.00022020  1
  Cu  Cu99  1  0.65813960  0.31941949  0.49642023  1
  Cu  Cu100  1  0.16654070  0.49598132  0.74634983  1
  Cu  Cu101  1  0.49034456  0.84057863  0.75173704  1
  Cu  Cu102  1  0.15616847  0.16534250  0.24462858  1
  Cu  Cu103  1  0.83224381  0.83175473  0.75167581  1
  Cu  Cu104  1  0.33466125  0.32679988  -0.00281046  1
  Cu  Cu105  1  0.33258024  0.33653793  0.49865318  1
  Cu  Cu106  1  0.17322999  0.16735285  0.75112736  1
  Cu  Cu107  1  0.00094300  0.66746726  0.50417807  1
  Cu  Cu108  1  0.50774377  0.82861139  0.24820352  1
  Cu  Cu109  1  0.82522865  0.16478106  0.25209303  1
  Cu  Cu110  1  0.83309041  0.49941179  0.26666093  1
  Cu  Cu111  1  0.84489570  0.16349155  0.74872060  1
  Cu  Cu112  1  0.49680044  0.16500280  0.25376329  1
  Cu  Cu113  1  0.16555873  0.83846520  0.76207603  1
  Cu  Cu114  1  0.66641849  -0.00071250  0.49679043  1
  Se  Se115  1  0.08418872  0.08713672  0.05019205  1
  Se  Se116  1  0.07729866  0.07290342  0.55853047  1
  Se  Se117  1  0.07398283  0.40894397  0.05899292  1
  Se  Se118  1  0.08730374  0.42232599  0.55358882  1
  Se  Se119  1  0.07988465  0.74158994  0.04802992  1
  Se  Se120  1  0.07829724  0.74938512  0.56623565  1
  Se  Se121  1  0.40440141  0.07416704  0.05770498  1
  Se  Se122  1  0.42025253  0.08777503  0.55623532  1
  Se  Se123  1  0.41580080  0.40620494  0.05765397  1
  Se  Se124  1  0.41691653  0.41971814  0.55155413  1
  Se  Se125  1  0.41990183  0.74058296  0.05301110  1
  Se  Se126  1  0.41422095  0.75716462  0.54994093  1
  Se  Se127  1  0.74903138  0.08853880  0.05789625  1
  Se  Se128  1  0.75076776  0.08214893  0.54951307  1
  Se  Se129  1  0.74730425  0.41754540  0.06639533  1
  Se  Se130  1  0.73910304  0.39401932  0.55891819  1
  Se  Se131  1  0.75639353  0.75452540  0.04911189  1
  Se  Se132  1  0.74008615  0.73327652  0.55331698  1
  Se  Se133  1  0.24821622  0.24720320  0.04965989  1
  Se  Se134  1  0.25376011  0.25658802  0.56233782  1
  Se  Se135  1  0.26131325  0.57805017  0.06164677  1
  Se  Se136  1  0.24665454  0.58630712  0.54993709  1
  Se  Se137  1  0.25008831  0.91514096  0.04115333  1
  Se  Se138  1  0.25516191  0.92834366  0.56224083  1
  Se  Se139  1  0.58794819  0.25205753  0.06829833  1
  Se  Se140  1  0.57235576  0.23960937  0.55091079  1
  Se  Se141  1  0.59316980  0.58918108  0.06104023  1
  Se  Se142  1  0.57409341  0.57632525  0.54256402  1
  Se  Se143  1  0.56672135  0.90985526  0.04858379  1
  Se  Se144  1  0.58138397  0.91756846  0.55120816  1
  Se  Se145  1  0.91325614  0.25218265  0.05069862  1
  Se  Se146  1  0.91408706  0.22507736  0.54944240  1
  Se  Se147  1  0.92261749  0.59579133  0.05620873  1
  Se  Se148  1  0.91972077  0.58398605  0.55896573  1
  Se  Se149  1  0.91939738  0.92487752  0.05528546  1
  Se  Se150  1  0.91248209  0.90851115  0.55569009  1
  Se  Se151  1  0.07113026  0.26112515  0.44056303  1
  Se  Se152  1  0.09021728  0.24527177  0.94374435  1
  Se  Se153  1  0.08651898  0.58616959  0.45153387  1
  Se  Se154  1  0.06781305  0.58510046  0.93975965  1
  Se  Se155  1  0.08133759  0.92215708  0.44016891  1
  Se  Se156  1  0.08199076  0.92194182  0.94143720  1
  Se  Se157  1  0.41132418  0.24655545  0.44753651  1
  Se  Se158  1  0.41839426  0.25281581  0.93571072  1
  Se  Se159  1  0.41571580  0.58459041  0.44476195  1
  Se  Se160  1  0.40446987  0.59109418  0.93994466  1
  Se  Se161  1  0.41690815  0.91340047  0.44737585  1
  Se  Se162  1  0.43259814  0.90201748  0.95161625  1
  Se  Se163  1  0.74760847  0.24026378  0.44554206  1
  Se  Se164  1  0.75659824  0.25141683  0.95177149  1
  Se  Se165  1  0.76292853  0.56529757  0.45664284  1
  Se  Se166  1  0.74533341  0.59421396  0.93549499  1
  Se  Se167  1  0.75203625  0.91576919  0.44420543  1
  Se  Se168  1  0.74260092  0.92974171  0.95315546  1
  Se  Se169  1  0.25504321  0.07831769  0.44306615  1
  Se  Se170  1  0.25732292  0.08183863  0.94598049  1
  Se  Se171  1  0.24819564  0.42026667  0.44659951  1
  Se  Se172  1  0.25822009  0.41126277  0.93727488  1
  Se  Se173  1  0.25582834  0.74755782  0.43608688  1
  Se  Se174  1  0.25447309  0.73702616  0.95447312  1
  Se  Se175  1  0.57922308  0.08095051  0.44509202  1
  Se  Se176  1  0.59009391  0.07603772  0.94124237  1
  Se  Se177  1  0.57765579  0.41049322  0.44841166  1
  Se  Se178  1  0.59456464  0.40587459  0.94700572  1
  Se  Se179  1  0.59931842  0.74078852  0.44557163  1
  Se  Se180  1  0.57983815  0.74698983  0.94627279  1
  Se  Se181  1  0.91638977  0.07966027  0.44420067  1
  Se  Se182  1  0.91634953  0.09091686  0.94364580  1
  Se  Se183  1  0.91401972  0.41193171  0.45762243  1
  Se  Se184  1  0.92520580  0.41276537  0.93763908  1
  Se  Se185  1  0.91944643  0.75297974  0.45108526  1
  Se  Se186  1  0.90617662  0.76883270  0.94678462  1
  Se  Se187  1  0.23721825  0.24763235  0.30074138  1
  Se  Se188  1  0.25638251  0.25419322  0.80193338  1
  Se  Se189  1  0.25582553  0.58813397  0.30301537  1
  Se  Se190  1  0.23713711  0.58032344  0.81167015  1
  Se  Se191  1  0.24487253  0.91186057  0.30856292  1
  Se  Se192  1  0.25341853  0.91410937  0.81719593  1
  Se  Se193  1  0.58069094  0.24764595  0.30710194  1
  Se  Se194  1  0.58350891  0.24406215  0.80834068  1
  Se  Se195  1  0.57953460  0.57296370  0.31864879  1
  Se  Se196  1  0.57272922  0.57863133  0.80094230  1
  Se  Se197  1  0.58832506  0.91509044  0.30017384  1
  Se  Se198  1  0.58084027  0.91237404  0.80952453  1
  Se  Se199  1  0.90553358  0.24275175  0.31535480  1
  Se  Se200  1  0.92338571  0.25134666  0.80239014  1
  Se  Se201  1  0.91245904  0.58606262  0.31955794  1
  Se  Se202  1  0.90094201  0.57820412  0.80087097  1
  Se  Se203  1  0.91999842  0.92152587  0.30206027  1
  Se  Se204  1  0.91379134  0.91970501  0.80253047  1
  Se  Se205  1  0.07413732  0.07964031  0.29537013  1
  Se  Se206  1  0.08492177  0.08374857  0.80028304  1
  Se  Se207  1  0.08582386  0.43211127  0.31237834  1
  Se  Se208  1  0.08179600  0.41044472  0.79721231  1
  Se  Se209  1  0.09286276  0.76018855  0.30645092  1
  Se  Se210  1  0.07805753  0.75074349  0.80549990  1
  Se  Se211  1  0.41711151  0.08228932  0.31339707  1
  Se  Se212  1  0.42071175  0.08104149  0.80196270  1
  Se  Se213  1  0.40992808  0.40914941  0.30869154  1
  Se  Se214  1  0.41593699  0.41353917  0.79374969  1
  Se  Se215  1  0.42352583  0.74452161  0.29943079  1
  Se  Se216  1  0.40949556  0.76290164  0.81167001  1
  Se  Se217  1  0.74387010  0.07685720  0.30320606  1
  Se  Se218  1  0.76239381  0.08848745  0.81110565  1
  Se  Se219  1  0.74628327  0.41248210  0.31034919  1
  Se  Se220  1  0.75649738  0.42245600  0.80840167  1
  Se  Se221  1  0.76300978  0.75549098  0.30919154  1
  Se  Se222  1  0.74422818  0.75645703  0.80896817  1
  Se  Se223  1  0.24066008  0.08723559  0.18555669  1
  Se  Se224  1  0.25777441  0.08135873  0.70077970  1
  Se  Se225  1  0.25221405  0.40945025  0.20101831  1
  Se  Se226  1  0.25582631  0.41657792  0.69579017  1
  Se  Se227  1  0.25683773  0.75210538  0.19224283  1
  Se  Se228  1  0.23689385  0.76086034  0.69146946  1
  Se  Se229  1  0.57732991  0.07891933  0.20037172  1
  Se  Se230  1  0.58345662  0.09364728  0.68705622  1
  Se  Se231  1  0.58567279  0.41020431  0.20658569  1
  Se  Se232  1  0.58527023  0.42635207  0.68161538  1
  Se  Se233  1  0.59406620  0.75903315  0.18376414  1
  Se  Se234  1  0.56947349  0.76175575  0.68913579  1
  Se  Se235  1  0.91427880  0.08732232  0.19820851  1
  Se  Se236  1  0.92094812  0.07209043  0.69631453  1
  Se  Se237  1  0.91078399  0.42346808  0.20012883  1
  Se  Se238  1  0.92113344  0.40402568  0.68940404  1
  Se  Se239  1  0.91542388  0.75966655  0.18930192  1
  Se  Se240  1  0.91617624  0.74728104  0.69972978  1
  Se  Se241  1  0.08000896  0.24872895  0.18393463  1
  Se  Se242  1  0.08886023  0.24682020  0.69502421  1
  Se  Se243  1  0.09486645  0.57800670  0.18773922  1
  Se  Se244  1  0.08017275  0.58332790  0.70048357  1
  Se  Se245  1  0.08390621  0.92049251  0.19060462  1
  Se  Se246  1  0.08359202  0.91893984  0.70351435  1
  Se  Se247  1  0.40962682  0.24717248  0.20259867  1
  Se  Se248  1  0.41958638  0.25491922  0.69536169  1
  Se  Se249  1  0.42563603  0.57568138  0.20068692  1
  Se  Se250  1  0.41956000  0.58664847  0.68284402  1
  Se  Se251  1  0.42265837  0.90384231  0.18659263  1
  Se  Se252  1  0.41084802  0.92571813  0.69764050  1
  Se  Se253  1  0.74560070  0.25552758  0.20235190  1
  Se  Se254  1  0.76606594  0.24331349  0.68783649  1
  Se  Se255  1  0.75909948  0.57919398  0.19994707  1
  Se  Se256  1  0.75959564  0.56963913  0.68864061  1
  Se  Se257  1  0.74723260  0.92051099  0.19281926  1
  Se  Se258  1  0.75228469  0.90876608  0.68869116  1
