# generated using pymatgen
data_In86Cu29Se144
_symmetry_space_group_name_H-M   'P 1'
_cell_length_a   17.58853504
_cell_length_b   17.58762535
_cell_length_c   23.44620473
_cell_angle_alpha   90.01025167
_cell_angle_beta   89.99658065
_cell_angle_gamma   89.98460143
_symmetry_Int_Tables_number   1
_chemical_formula_structural   In86Cu29Se144
_chemical_formula_sum   'In86 Cu29 Se144'
_cell_volume   7252.86182555
_cell_formula_units_Z   1
loop_
 _symmetry_equiv_pos_site_id
 _symmetry_equiv_pos_as_xyz
  1  'x, y, z'
loop_
 _atom_site_type_symbol
 _atom_site_label
 _atom_site_symmetry_multiplicity
 _atom_site_fract_x
 _atom_site_fract_y
 _atom_site_fract_z
 _atom_site_occupancy
  In  In0  1  -0.01063214  0.17614814  0.12213808  1
  In  In1  1  0.01579425  0.16664066  0.62591102  1
  In  In2  1  0.00158883  0.50857364  0.12264087  1
  In  In3  1  -0.01001293  0.51371215  0.63151758  1
  In  In4  1  -0.00102560  0.81662468  0.12197811  1
  In  In5  1  -0.00994130  0.82129108  0.61811034  1
  In  In6  1  0.32516077  0.16257969  0.12739864  1
  In  In7  1  0.33753022  0.16688932  0.62903135  1
  In  In8  1  0.34844484  0.51992520  0.12378383  1
  In  In9  1  0.34558481  0.49008015  0.63123631  1
  In  In10  1  0.33184026  0.83428749  0.12320816  1
  In  In11  1  0.32759484  0.84171788  0.62919276  1
  In  In12  1  0.66724893  0.15887093  0.11541180  1
  In  In13  1  0.63962549  0.19077170  0.64912851  1
  In  In14  1  0.67522133  0.50068707  0.12549596  1
  In  In15  1  0.66976250  0.49495021  0.61686227  1
  In  In16  1  0.65315809  0.83151962  0.11897081  1
  In  In17  1  0.68295799  0.82270816  0.64224590  1
  In  In18  1  0.17826580  -0.01278396  0.38329490  1
  In  In19  1  0.17462794  -0.01545018  0.87873266  1
  In  In20  1  0.15374307  0.33156669  0.38439653  1
  In  In21  1  0.16245250  0.33198223  0.86321367  1
  In  In22  1  0.17477754  0.67667783  0.37058088  1
  In  In23  1  0.17504874  0.67527086  0.87000786  1
  In  In24  1  0.49754285  0.01100544  0.37897917  1
  In  In25  1  0.48679134  -0.01528904  0.85883531  1
  In  In26  1  0.49698627  0.33844355  0.39282738  1
  In  In27  1  0.49574683  0.32471418  0.85450431  1
  In  In28  1  0.49693877  0.65742835  0.37046750  1
  In  In29  1  0.51098012  0.67725194  0.87000713  1
  In  In30  1  0.81278336  -0.00146358  0.38155585  1
  In  In31  1  0.83831807  0.00983707  0.87208575  1
  In  In32  1  0.84186049  0.34037998  0.38372559  1
  In  In33  1  0.83308536  0.33804495  0.87023191  1
  In  In34  1  0.83319500  0.66529495  0.37588988  1
  In  In35  1  0.81420793  0.65307575  0.86514905  1
  In  In36  1  0.00053724  0.17939776  0.38280762  1
  In  In37  1  -0.01039100  0.17069931  0.87347650  1
  In  In38  1  -0.01035694  0.50017601  0.37758127  1
  In  In39  1  -0.01787088  0.48963137  0.86738824  1
  In  In40  1  0.00898330  0.82342417  0.37943320  1
  In  In41  1  0.01295405  0.83503412  0.87629533  1
  In  In42  1  0.34206170  0.15807507  0.38321510  1
  In  In43  1  0.33370271  0.15738645  0.86053797  1
  In  In44  1  0.33750283  0.50970012  0.37702403  1
  In  In45  1  0.33655000  0.50472850  0.86267067  1
  In  In46  1  0.32699972  0.82642715  0.37337419  1
  In  In47  1  0.33893845  0.83552146  0.87426867  1
  In  In48  1  0.65419356  0.16022033  0.38385798  1
  In  In49  1  0.67038646  0.17669956  0.85661052  1
  In  In50  1  0.64905526  0.51355138  0.39686425  1
  In  In51  1  0.67801407  0.50855525  0.86930211  1
  In  In52  1  0.67906064  0.82980063  0.38192387  1
  In  In53  1  0.65467382  0.81279586  0.86414572  1
  In  In54  1  0.18480165  -0.00358485  0.12537709  1
  In  In55  1  0.17573806  0.00581412  0.61930996  1
  In  In56  1  0.16077737  0.34013090  0.12432254  1
  In  In57  1  0.17926964  0.32458296  0.63520995  1
  In  In58  1  0.16041632  0.67712806  0.12675651  1
  In  In59  1  0.15921294  0.67599242  0.62784895  1
  In  In60  1  0.49750256  -0.01340273  0.12143373  1
  In  In61  1  0.49368922  0.01307245  0.64237536  1
  In  In62  1  0.50777683  0.34438154  0.12230878  1
  In  In63  1  0.50140490  0.33187722  0.61950987  1
  In  In64  1  0.48933087  0.67320131  0.13536357  1
  In  In65  1  0.51246980  0.65306292  0.63007881  1
  In  In66  1  0.81773633  0.00482894  0.11608282  1
  In  In67  1  0.82630358  -0.01699425  0.62766517  1
  In  In68  1  0.83666302  0.34241280  0.10337286  1
  In  In69  1  0.81690871  0.35493261  0.63116434  1
  In  In70  1  0.84073305  0.66217200  0.12825461  1
  In  In71  1  0.83571394  0.66723420  0.62606463  1
  In  In72  1  0.50233832  0.83560096  0.51163705  1
  In  In73  1  0.00061816  -0.00622247  0.25576627  1
  In  In74  1  0.00003204  0.33882422  0.25169778  1
  In  In75  1  0.83187662  0.16242411  0.50978955  1
  In  In76  1  0.00452822  -0.00239795  0.75183000  1
  In  In77  1  0.66887672  0.33923459  0.25325604  1
  In  In78  1  0.15615305  0.49952324  0.00083181  1
  In  In79  1  0.50002606  0.15802581  -0.01202997  1
  In  In80  1  0.16912081  0.50027954  0.50497170  1
  In  In81  1  0.83346208  0.83334877  -0.00499066  1
  In  In82  1  0.50875212  0.50552384  -0.00434766  1
  In  In83  1  0.65776881  -0.00928787  0.24653885  1
  In  In84  1  0.33473277  0.33780173  0.26020537  1
  In  In85  1  0.16211445  0.15998931  -0.01264741  1
  Cu  Cu86  1  -0.00471767  0.66128169  -0.00259336  1
  Cu  Cu87  1  0.83176152  0.50827967  0.25239609  1
  Cu  Cu88  1  0.83896814  0.17157039  0.74724474  1
  Cu  Cu89  1  0.32631232  0.33351313  -0.00654087  1
  Cu  Cu90  1  -0.00239998  0.66916753  0.50159569  1
  Cu  Cu91  1  0.33595429  0.67869746  -0.00189271  1
  Cu  Cu92  1  0.49468074  0.83044531  0.24898449  1
  Cu  Cu93  1  0.33429379  0.32588192  0.50958796  1
  Cu  Cu94  1  0.16964542  0.83500313  0.74875869  1
  Cu  Cu95  1  0.00583334  0.00139489  -0.00303115  1
  Cu  Cu96  1  0.49200397  0.16859322  0.25442183  1
  Cu  Cu97  1  0.33624425  0.66702033  0.49819163  1
  Cu  Cu98  1  0.50225789  0.49910489  0.74603784  1
  Cu  Cu99  1  0.82962067  0.50022088  0.74623480  1
  Cu  Cu100  1  0.16199804  0.50782196  0.74702307  1
  Cu  Cu101  1  0.66873107  0.33369150  -0.01381978  1
  Cu  Cu102  1  0.67155909  0.66786848  0.50629073  1
  Cu  Cu103  1  0.00208428  0.33477528  0.50929443  1
  Cu  Cu104  1  0.66079411  -0.00084515  0.51220129  1
  Cu  Cu105  1  0.83468869  0.82429230  0.25292405  1
  Cu  Cu106  1  0.49754370  0.82657873  0.74628865  1
  Cu  Cu107  1  0.17547683  0.51030086  0.24691854  1
  Cu  Cu108  1  0.66618808  0.00201331  -0.00991978  1
  Cu  Cu109  1  0.00119639  -0.00298669  0.50541420  1
  Cu  Cu110  1  0.33264591  0.00132489  0.50659976  1
  Cu  Cu111  1  0.17118282  0.83075752  0.25036450  1
  Cu  Cu112  1  0.82393209  0.16895589  0.24219386  1
  Cu  Cu113  1  0.17199129  0.16455093  0.74838305  1
  Cu  Cu114  1  0.17026521  0.15785474  0.25422461  1
  Se  Se115  1  0.08059108  0.07999431  0.06395093  1
  Se  Se116  1  0.08609847  0.08383270  0.55137513  1
  Se  Se117  1  0.06374655  0.40229545  0.05378966  1
  Se  Se118  1  0.08294441  0.41445160  0.56983983  1
  Se  Se119  1  0.08187687  0.74563437  0.04756576  1
  Se  Se120  1  0.08600181  0.75213322  0.54975556  1
  Se  Se121  1  0.41089403  0.08013824  0.05790360  1
  Se  Se122  1  0.41919014  0.07986553  0.56021905  1
  Se  Se123  1  0.40782381  0.41373362  0.05293092  1
  Se  Se124  1  0.41767205  0.41915134  0.55114862  1
  Se  Se125  1  0.42133061  0.75242061  0.05684897  1
  Se  Se126  1  0.41261281  0.74076388  0.56624841  1
  Se  Se127  1  0.74933324  0.08786892  0.04068839  1
  Se  Se128  1  0.73973866  0.08138046  0.57178188  1
  Se  Se129  1  0.74030315  0.42156707  0.04517668  1
  Se  Se130  1  0.75363682  0.41713169  0.54525049  1
  Se  Se131  1  0.74922603  0.74597798  0.05994815  1
  Se  Se132  1  0.75181429  0.75407276  0.55825852  1
  Se  Se133  1  0.24902741  0.25514328  0.05517547  1
  Se  Se134  1  0.24727909  0.24333652  0.55811149  1
  Se  Se135  1  0.25477505  0.59167104  0.05395244  1
  Se  Se136  1  0.25876007  0.58906488  0.56422826  1
  Se  Se137  1  0.24783038  0.91144896  0.05185957  1
  Se  Se138  1  0.24829818  0.91138636  0.55132908  1
  Se  Se139  1  0.58640458  0.25739412  0.04950237  1
  Se  Se140  1  0.58520058  0.24235116  0.55613021  1
  Se  Se141  1  0.58460682  0.59222292  0.06524274  1
  Se  Se142  1  0.58316063  0.58108056  0.54995362  1
  Se  Se143  1  0.58583493  0.92177853  0.04738306  1
  Se  Se144  1  0.58944793  0.91729208  0.57720537  1
  Se  Se145  1  0.90590446  0.23893766  0.04730066  1
  Se  Se146  1  0.91901417  0.25634475  0.56829042  1
  Se  Se147  1  0.91317291  0.58013435  0.05227022  1
  Se  Se148  1  0.91487886  0.58398179  0.55251372  1
  Se  Se149  1  0.92349893  0.92369846  0.06002119  1
  Se  Se150  1  0.91336422  0.91564112  0.55362739  1
  Se  Se151  1  0.08370906  0.24789226  0.45836139  1
  Se  Se152  1  0.07474699  0.26224049  0.94038343  1
  Se  Se153  1  0.08162666  0.58891669  0.44115795  1
  Se  Se154  1  0.07682506  0.58712335  0.93299812  1
  Se  Se155  1  0.08193666  0.91508832  0.44692083  1
  Se  Se156  1  0.08905003  0.91305282  0.95172524  1
  Se  Se157  1  0.41746539  0.24412888  0.45296680  1
  Se  Se158  1  0.40802035  0.25545566  0.93518490  1
  Se  Se159  1  0.42175069  0.58288885  0.44947667  1
  Se  Se160  1  0.40967609  0.59041178  0.93934348  1
  Se  Se161  1  0.41205232  0.91910284  0.44492052  1
  Se  Se162  1  0.42375764  0.91623384  0.94265800  1
  Se  Se163  1  0.74896491  0.24862026  0.44111945  1
  Se  Se164  1  0.74893270  0.24692848  0.93482751  1
  Se  Se165  1  0.75586834  0.58576307  0.45070017  1
  Se  Se166  1  0.74483155  0.58657886  0.94737440  1
  Se  Se167  1  0.74426431  0.91741480  0.45738956  1
  Se  Se168  1  0.74490427  0.91865322  0.93124348  1
  Se  Se169  1  0.24978829  0.08269580  0.44925935  1
  Se  Se170  1  0.26643612  0.07402753  0.94183513  1
  Se  Se171  1  0.25927576  0.40736932  0.44355387  1
  Se  Se172  1  0.25052467  0.41791706  0.93578875  1
  Se  Se173  1  0.24979595  0.74992630  0.44910368  1
  Se  Se174  1  0.24946034  0.75656707  0.94385953  1
  Se  Se175  1  0.57785050  0.07972592  0.45646906  1
  Se  Se176  1  0.59034509  0.07749681  0.92431363  1
  Se  Se177  1  0.60041946  0.39941844  0.45423628  1
  Se  Se178  1  0.58051028  0.40771119  0.92889107  1
  Se  Se179  1  0.58606133  0.74624448  0.44620044  1
  Se  Se180  1  0.58771538  0.74636925  0.94758338  1
  Se  Se181  1  0.92030972  0.07475784  0.44141998  1
  Se  Se182  1  0.92049828  0.08325865  0.94650155  1
  Se  Se183  1  0.92210923  0.41966841  0.45523663  1
  Se  Se184  1  0.90743414  0.41955756  0.94478558  1
  Se  Se185  1  0.91454177  0.75142941  0.44512688  1
  Se  Se186  1  0.91936098  0.74190851  0.93416167  1
  Se  Se187  1  0.24059508  0.24579523  0.31518190  1
  Se  Se188  1  0.25352613  0.25228936  0.80001518  1
  Se  Se189  1  0.25667460  0.58763818  0.30567245  1
  Se  Se190  1  0.24979505  0.58871874  0.79928597  1
  Se  Se191  1  0.25205315  0.91633775  0.30353475  1
  Se  Se192  1  0.25458229  0.91697120  0.80192105  1
  Se  Se193  1  0.57479385  0.24748309  0.31161812  1
  Se  Se194  1  0.57723005  0.24349387  0.78753974  1
  Se  Se195  1  0.59859511  0.58739814  0.31068213  1
  Se  Se196  1  0.58236219  0.58122331  0.80385956  1
  Se  Se197  1  0.57378978  0.90649819  0.31543255  1
  Se  Se198  1  0.58435991  0.90912459  0.79779778  1
  Se  Se199  1  0.90529698  0.24270957  0.30606495  1
  Se  Se200  1  0.92032062  0.25605861  0.80063960  1
  Se  Se201  1  0.92099914  0.58635649  0.30491979  1
  Se  Se202  1  0.91327899  0.58424130  0.79963404  1
  Se  Se203  1  0.90296461  0.91185294  0.31522877  1
  Se  Se204  1  0.91411511  0.90785584  0.80956244  1
  Se  Se205  1  0.08526145  0.08796697  0.31673135  1
  Se  Se206  1  0.09433978  0.08730782  0.81452580  1
  Se  Se207  1  0.09588492  0.42974673  0.30857780  1
  Se  Se208  1  0.08070969  0.42172708  0.80054441  1
  Se  Se209  1  0.08324393  0.74915506  0.30136189  1
  Se  Se210  1  0.08513973  0.75294339  0.80182630  1
  Se  Se211  1  0.41241782  0.08006734  0.30420745  1
  Se  Se212  1  0.42798251  0.08954796  0.79522424  1
  Se  Se213  1  0.43251428  0.42491501  0.31246793  1
  Se  Se214  1  0.41234217  0.41672732  0.79461171  1
  Se  Se215  1  0.41536654  0.74763418  0.30715912  1
  Se  Se216  1  0.41413320  0.74649587  0.80401632  1
  Se  Se217  1  0.74549009  0.09062740  0.30432474  1
  Se  Se218  1  0.75793505  0.08404915  0.79810278  1
  Se  Se219  1  0.75952341  0.42476750  0.31457258  1
  Se  Se220  1  0.74638119  0.41566990  0.79981942  1
  Se  Se221  1  0.74657996  0.74683039  0.30632974  1
  Se  Se222  1  0.75427726  0.75183115  0.79671114  1
  Se  Se223  1  0.25521234  0.07854555  0.20147439  1
  Se  Se224  1  0.25312150  0.07871960  0.69599487  1
  Se  Se225  1  0.25070065  0.42391298  0.18876446  1
  Se  Se226  1  0.24889404  0.42255085  0.69864501  1
  Se  Se227  1  0.25329194  0.74810187  0.19432299  1
  Se  Se228  1  0.25156493  0.74944193  0.69556954  1
  Se  Se229  1  0.57313091  0.09251203  0.19011816  1
  Se  Se230  1  0.60375076  0.06806400  0.70215204  1
  Se  Se231  1  0.57567629  0.43061107  0.19684146  1
  Se  Se232  1  0.58370430  0.41879943  0.68836087  1
  Se  Se233  1  0.58546651  0.75399268  0.19752209  1
  Se  Se234  1  0.58576745  0.74138495  0.69998239  1
  Se  Se235  1  0.90765447  0.08209639  0.19167098  1
  Se  Se236  1  0.91608866  0.08621876  0.68820377  1
  Se  Se237  1  0.90568079  0.42185397  0.19010567  1
  Se  Se238  1  0.91893740  0.41726134  0.69703204  1
  Se  Se239  1  0.92126523  0.74611659  0.19892304  1
  Se  Se240  1  0.92183998  0.74584749  0.69538322  1
  Se  Se241  1  0.09116264  0.24029113  0.19509213  1
  Se  Se242  1  0.08453275  0.24947970  0.70152889  1
  Se  Se243  1  0.08439425  0.58416322  0.19345534  1
  Se  Se244  1  0.07819679  0.59331964  0.69743493  1
  Se  Se245  1  0.08740591  0.90888994  0.18972329  1
  Se  Se246  1  0.08921699  0.91204094  0.68517352  1
  Se  Se247  1  0.42171586  0.25160756  0.18902357  1
  Se  Se248  1  0.41407080  0.26021208  0.69176553  1
  Se  Se249  1  0.41973110  0.58176733  0.20511370  1
  Se  Se250  1  0.41585840  0.58580408  0.69797600  1
  Se  Se251  1  0.41511716  0.91634688  0.19556588  1
  Se  Se252  1  0.41303618  0.91578459  0.70042842  1
  Se  Se253  1  0.75113579  0.25224823  0.18165851  1
  Se  Se254  1  0.75296989  0.25750631  0.69954653  1
  Se  Se255  1  0.74902265  0.58727509  0.19629524  1
  Se  Se256  1  0.74734815  0.58017872  0.68847528  1
  Se  Se257  1  0.75823862  0.90583240  0.18989960  1
  Se  Se258  1  0.75762775  0.91420237  0.70890505  1
