# generated using pymatgen
data_In86Cu29Se144
_symmetry_space_group_name_H-M   'P 1'
_cell_length_a   17.59803362
_cell_length_b   17.59256559
_cell_length_c   23.45286776
_cell_angle_alpha   90.02551674
_cell_angle_beta   90.02911630
_cell_angle_gamma   89.98754033
_symmetry_Int_Tables_number   1
_chemical_formula_structural   In86Cu29Se144
_chemical_formula_sum   'In86 Cu29 Se144'
_cell_volume   7260.87846005
_cell_formula_units_Z   1
loop_
 _symmetry_equiv_pos_site_id
 _symmetry_equiv_pos_as_xyz
  1  'x, y, z'
loop_
 _atom_site_type_symbol
 _atom_site_label
 _atom_site_symmetry_multiplicity
 _atom_site_fract_x
 _atom_site_fract_y
 _atom_site_fract_z
 _atom_site_occupancy
  In  In0  1  0.00470879  0.16000055  0.12833547  1
  In  In1  1  0.01266605  0.16730547  0.62241695  1
  In  In2  1  -0.00030447  0.49265649  0.12541631  1
  In  In3  1  -0.01265250  0.49444657  0.62534154  1
  In  In4  1  0.00423912  0.83056754  0.12999439  1
  In  In5  1  0.00734745  0.82298973  0.61841560  1
  In  In6  1  0.32980088  0.15713992  0.12216171  1
  In  In7  1  0.33114388  0.17740398  0.62668025  1
  In  In8  1  0.33060057  0.49729708  0.11565055  1
  In  In9  1  0.33487048  0.48310973  0.62962723  1
  In  In10  1  0.34467345  0.84161286  0.12009836  1
  In  In11  1  0.33576949  0.83730064  0.62095239  1
  In  In12  1  0.66221388  0.17000568  0.13187455  1
  In  In13  1  0.65494504  0.16149632  0.62847102  1
  In  In14  1  0.66397737  0.49744699  0.12037117  1
  In  In15  1  0.67782602  0.51112162  0.62207948  1
  In  In16  1  0.66714989  0.84595815  0.12798380  1
  In  In17  1  0.65201103  0.83702650  0.63655361  1
  In  In18  1  0.16951083  0.00145178  0.36877356  1
  In  In19  1  0.16453767  -0.00075176  0.89397668  1
  In  In20  1  0.15059960  0.33228682  0.37201993  1
  In  In21  1  0.16679988  0.33146104  0.88190649  1
  In  In22  1  0.16531144  0.67842078  0.37284258  1
  In  In23  1  0.16023940  0.66918101  0.88272019  1
  In  In24  1  0.48794484  -0.00145383  0.36644013  1
  In  In25  1  0.50862400  -0.00820397  0.88604453  1
  In  In26  1  0.51380308  0.33474964  0.37130982  1
  In  In27  1  0.49195764  0.34244849  0.87986629  1
  In  In28  1  0.50578237  0.66624663  0.38532745  1
  In  In29  1  0.50533143  0.66585564  0.87842866  1
  In  In30  1  0.83164674  -0.00614955  0.35618512  1
  In  In31  1  0.82477270  0.00686251  0.87717235  1
  In  In32  1  0.83231655  0.34336835  0.36628320  1
  In  In33  1  0.85056538  0.33549221  0.87609396  1
  In  In34  1  0.83273971  0.65349444  0.37159199  1
  In  In35  1  0.81995510  0.66148449  0.87390792  1
  In  In36  1  0.00478251  0.17184018  0.36739012  1
  In  In37  1  0.00168556  0.17984769  0.88730657  1
  In  In38  1  -0.02287651  0.48710509  0.35398936  1
  In  In39  1  0.00534174  0.48735131  0.89191285  1
  In  In40  1  0.00997478  0.84603869  0.35879595  1
  In  In41  1  0.00561609  0.83942460  0.88238937  1
  In  In42  1  0.33648888  0.15055603  0.37081191  1
  In  In43  1  0.32290119  0.17670244  0.88460698  1
  In  In44  1  0.33561534  0.51152624  0.37642153  1
  In  In45  1  0.34189619  0.49263222  0.87730873  1
  In  In46  1  0.32450904  0.84166095  0.38050615  1
  In  In47  1  0.33306472  0.83443558  0.88105925  1
  In  In48  1  0.65629471  0.17164927  0.35982231  1
  In  In49  1  0.66676174  0.14817974  0.87694597  1
  In  In50  1  0.67499166  0.49724537  0.38112544  1
  In  In51  1  0.66431157  0.50183947  0.88228980  1
  In  In52  1  0.65368957  0.83147122  0.37802363  1
  In  In53  1  0.65655578  0.82769350  0.86705988  1
  In  In54  1  0.16672643  0.00606502  0.12180399  1
  In  In55  1  0.16896909  0.00144168  0.61564758  1
  In  In56  1  0.14768409  0.31528788  0.10840511  1
  In  In57  1  0.17098174  0.32439599  0.63057152  1
  In  In58  1  0.15645775  0.65755374  0.11614325  1
  In  In59  1  0.15953895  0.67380671  0.62158722  1
  In  In60  1  0.50348676  0.00155808  0.12583958  1
  In  In61  1  0.50638189  -0.00256645  0.62756243  1
  In  In62  1  0.50480919  0.33580017  0.11751661  1
  In  In63  1  0.48800216  0.32927178  0.62673261  1
  In  In64  1  0.49873802  0.66408984  0.11554115  1
  In  In65  1  0.51333869  0.67624146  0.62112181  1
  In  In66  1  0.83398617  -0.00910111  0.14124117  1
  In  In67  1  0.82659856  -0.01095131  0.62206905  1
  In  In68  1  0.83220110  0.34433845  0.12915643  1
  In  In69  1  0.83469207  0.35331727  0.62839492  1
  In  In70  1  0.84849274  0.65910836  0.13511835  1
  In  In71  1  0.82933555  0.64580314  0.62247592  1
  In  In72  1  0.67085711  0.67032886  0.24778588  1
  In  In73  1  -0.00465976  0.00544686  0.75665144  1
  In  In74  1  0.16652249  0.50540903  0.49819574  1
  In  In75  1  -0.00750574  0.66014281  0.74692525  1
  In  In76  1  0.33043702  0.67270218  0.25152177  1
  In  In77  1  0.49543852  0.16554149  0.49962205  1
  In  In78  1  0.33920832  0.66196180  0.75907543  1
  In  In79  1  0.33809831  0.00436861  0.74884824  1
  In  In80  1  0.33020355  0.33010222  0.23769865  1
  In  In81  1  0.66840601  0.33289831  0.75264176  1
  In  In82  1  0.83926804  0.17266486  0.48694763  1
  In  In83  1  0.83531914  0.82704188  0.49510013  1
  In  In84  1  0.83451367  0.82933186  0.01446214  1
  In  In85  1  0.83512311  0.16676397  0.00363815  1
  Cu  Cu86  1  0.34230277  0.66615695  0.50171952  1
  Cu  Cu87  1  0.50395070  0.49948024  0.75475383  1
  Cu  Cu88  1  0.49621822  0.84284972  0.25130046  1
  Cu  Cu89  1  0.66432476  -0.00495167  0.00525878  1
  Cu  Cu90  1  0.66629771  0.66316702  -0.00085509  1
  Cu  Cu91  1  0.33903999  0.33766135  -0.00020988  1
  Cu  Cu92  1  0.66861899  0.33080205  0.00224303  1
  Cu  Cu93  1  0.66347199  0.00038885  0.50203541  1
  Cu  Cu94  1  0.49537738  0.16512725  0.75307179  1
  Cu  Cu95  1  0.16085474  0.48762823  0.75578364  1
  Cu  Cu96  1  0.33819962  -0.00013180  0.00420014  1
  Cu  Cu97  1  0.82242570  0.83132345  0.74842383  1
  Cu  Cu98  1  0.83470489  0.17415810  0.24581948  1
  Cu  Cu99  1  0.32866378  -0.00593737  0.49436211  1
  Cu  Cu100  1  0.32995416  0.33066104  0.50352475  1
  Cu  Cu101  1  -0.00103501  0.33509908  0.49176975  1
  Cu  Cu102  1  0.16580077  0.16524402  0.24437090  1
  Cu  Cu103  1  0.66682375  0.66600027  0.50208504  1
  Cu  Cu104  1  0.17239136  0.83888906  0.24601621  1
  Cu  Cu105  1  0.16804938  0.83890378  0.74981141  1
  Cu  Cu106  1  0.16196078  0.17719690  0.75610600  1
  Cu  Cu107  1  0.00646567  0.66711536  0.49492604  1
  Cu  Cu108  1  0.15296824  0.50072114  0.24104689  1
  Cu  Cu109  1  0.33043047  0.67269778  -0.00299261  1
  Cu  Cu110  1  0.01209929  -0.00219366  0.48973857  1
  Cu  Cu111  1  -0.00344194  0.66561001  0.00612714  1
  Cu  Cu112  1  0.66709087  0.34616012  0.49747187  1
  Cu  Cu113  1  0.83379495  0.16683060  0.75507175  1
  Cu  Cu114  1  0.50234252  0.49691355  0.24714604  1
  Se  Se115  1  0.09388754  0.09833059  0.05375469  1
  Se  Se116  1  0.08487121  0.08418932  0.54869586  1
  Se  Se117  1  0.09849172  0.43318801  0.05564035  1
  Se  Se118  1  0.08015128  0.41083584  0.55732076  1
  Se  Se119  1  0.08013155  0.75416446  0.05342069  1
  Se  Se120  1  0.09080502  0.75312331  0.54393999  1
  Se  Se121  1  0.42306874  0.08398413  0.05475566  1
  Se  Se122  1  0.40529379  0.07366635  0.56056388  1
  Se  Se123  1  0.42364237  0.42258998  0.05057272  1
  Se  Se124  1  0.41617189  0.41368064  0.55276790  1
  Se  Se125  1  0.41768030  0.75133340  0.05061019  1
  Se  Se126  1  0.42030412  0.75278497  0.55614219  1
  Se  Se127  1  0.75060275  0.07191448  0.06326884  1
  Se  Se128  1  0.74700993  0.08546765  0.55480959  1
  Se  Se129  1  0.75090875  0.41641392  0.05274107  1
  Se  Se130  1  0.75443640  0.42224233  0.55207895  1
  Se  Se131  1  0.74092654  0.73658752  0.06849990  1
  Se  Se132  1  0.74659101  0.74805267  0.56327507  1
  Se  Se133  1  0.25996699  0.25271448  0.05470922  1
  Se  Se134  1  0.24533753  0.24659504  0.55316180  1
  Se  Se135  1  0.25106827  0.58588738  0.05018864  1
  Se  Se136  1  0.26035268  0.58857213  0.56353556  1
  Se  Se137  1  0.25136742  0.91823041  0.05578574  1
  Se  Se138  1  0.24738773  0.91130487  0.55149528  1
  Se  Se139  1  0.58757459  0.24471505  0.05377385  1
  Se  Se140  1  0.59077811  0.25956456  0.55617311  1
  Se  Se141  1  0.58070858  0.57854091  0.05024405  1
  Se  Se142  1  0.58327271  0.58050760  0.55436950  1
  Se  Se143  1  0.57851024  0.91010603  0.05441044  1
  Se  Se144  1  0.58425563  0.91575311  0.55610181  1
  Se  Se145  1  0.92186585  0.25635106  0.06317298  1
  Se  Se146  1  0.92079050  0.25707813  0.55742829  1
  Se  Se147  1  0.91511837  0.57991230  0.05699889  1
  Se  Se148  1  0.92516951  0.58545129  0.55118601  1
  Se  Se149  1  0.92368766  0.92899796  0.06249738  1
  Se  Se150  1  0.92884476  0.92353880  0.55295685  1
  Se  Se151  1  0.08204521  0.24608477  0.44582192  1
  Se  Se152  1  0.09469647  0.24523076  0.95493947  1
  Se  Se153  1  0.07628368  0.58189216  0.43074190  1
  Se  Se154  1  0.08288087  0.58510989  0.95191055  1
  Se  Se155  1  0.09130286  0.91103129  0.43751774  1
  Se  Se156  1  0.08268761  0.91179987  0.95622696  1
  Se  Se157  1  0.40945994  0.25656715  0.43721950  1
  Se  Se158  1  0.42080123  0.24991455  0.94812575  1
  Se  Se159  1  0.42143868  0.57897664  0.44975611  1
  Se  Se160  1  0.41350243  0.58817589  0.94294922  1
  Se  Se161  1  0.42068157  0.91734101  0.44444065  1
  Se  Se162  1  0.41772110  0.91317306  0.94992731  1
  Se  Se163  1  0.73647600  0.25718670  0.43654167  1
  Se  Se164  1  0.74520776  0.25195128  0.93757402  1
  Se  Se165  1  0.75304281  0.58534095  0.44935650  1
  Se  Se166  1  0.75342244  0.57989037  0.95096174  1
  Se  Se167  1  0.74796659  0.92659632  0.44048092  1
  Se  Se168  1  0.74670397  0.91459339  0.94553060  1
  Se  Se169  1  0.24930450  0.08237598  0.44329846  1
  Se  Se170  1  0.25314965  0.08468723  0.95379216  1
  Se  Se171  1  0.25378333  0.41000207  0.43797618  1
  Se  Se172  1  0.25318705  0.41903043  0.94621380  1
  Se  Se173  1  0.25567624  0.74313626  0.44571615  1
  Se  Se174  1  0.24391401  0.75599472  0.94661771  1
  Se  Se175  1  0.58801561  0.08096626  0.43880158  1
  Se  Se176  1  0.58380575  0.08370650  0.95411902  1
  Se  Se177  1  0.57726952  0.42334456  0.44566740  1
  Se  Se178  1  0.58379420  0.41436022  0.94817452  1
  Se  Se179  1  0.58252591  0.75356354  0.45473530  1
  Se  Se180  1  0.58738502  0.75131235  0.94671245  1
  Se  Se181  1  0.92188695  0.07039611  0.43289258  1
  Se  Se182  1  0.92440214  0.07239476  0.94436684  1
  Se  Se183  1  0.91447253  0.41858487  0.44069624  1
  Se  Se184  1  0.91458959  0.40935432  0.95661339  1
  Se  Se185  1  0.92821753  0.74660581  0.43237073  1
  Se  Se186  1  0.91702274  0.74341770  0.94174477  1
  Se  Se187  1  0.24456238  0.24616928  0.30752107  1
  Se  Se188  1  0.25159391  0.25520611  0.80750844  1
  Se  Se189  1  0.23709024  0.57446380  0.30356231  1
  Se  Se190  1  0.23782268  0.57618352  0.81175810  1
  Se  Se191  1  0.25686067  0.91869279  0.30136977  1
  Se  Se192  1  0.24272939  0.91977001  0.81104516  1
  Se  Se193  1  0.57343946  0.25323235  0.29363858  1
  Se  Se194  1  0.57902520  0.24319028  0.81353941  1
  Se  Se195  1  0.57689309  0.58163337  0.30800308  1
  Se  Se196  1  0.58535978  0.58153896  0.80877175  1
  Se  Se197  1  0.58468924  0.91866724  0.30605289  1
  Se  Se198  1  0.59208844  0.93294961  0.80745083  1
  Se  Se199  1  0.91661123  0.25437810  0.30384681  1
  Se  Se200  1  0.92142084  0.24361804  0.80703413  1
  Se  Se201  1  0.91886629  0.59510149  0.29490280  1
  Se  Se202  1  0.91841368  0.57479578  0.81776324  1
  Se  Se203  1  0.91855399  0.91597781  0.29137730  1
  Se  Se204  1  0.90545479  0.90596461  0.81036999  1
  Se  Se205  1  0.08359685  0.08286196  0.30111845  1
  Se  Se206  1  0.09164035  0.08797046  0.81557291  1
  Se  Se207  1  0.07923990  0.41185659  0.29675694  1
  Se  Se208  1  0.07817111  0.41123128  0.81308807  1
  Se  Se209  1  0.08923190  0.75113761  0.29611250  1
  Se  Se210  1  0.08404163  0.75639325  0.80472744  1
  Se  Se211  1  0.42566116  0.09365283  0.29709010  1
  Se  Se212  1  0.41878405  0.08870736  0.81837020  1
  Se  Se213  1  0.41388943  0.42267823  0.30539623  1
  Se  Se214  1  0.41623674  0.41443304  0.80083043  1
  Se  Se215  1  0.42433486  0.75578470  0.31324915  1
  Se  Se216  1  0.42575716  0.76192621  0.80945362  1
  Se  Se217  1  0.75082100  0.09119568  0.29974553  1
  Se  Se218  1  0.74841733  0.07940067  0.79968167  1
  Se  Se219  1  0.73317095  0.41243333  0.30383315  1
  Se  Se220  1  0.75674761  0.42047007  0.81299441  1
  Se  Se221  1  0.75375729  0.75849458  0.31388467  1
  Se  Se222  1  0.74527455  0.74496495  0.80260095  1
  Se  Se223  1  0.25177176  0.08072124  0.19655753  1
  Se  Se224  1  0.23733308  0.09191005  0.69435767  1
  Se  Se225  1  0.23709587  0.42200230  0.18390651  1
  Se  Se226  1  0.24825497  0.41132553  0.70013221  1
  Se  Se227  1  0.24549766  0.75430312  0.18365459  1
  Se  Se228  1  0.24740979  0.75350987  0.69443545  1
  Se  Se229  1  0.60542345  0.06157034  0.19245170  1
  Se  Se230  1  0.57915998  0.08188394  0.70097065  1
  Se  Se231  1  0.58278444  0.41609307  0.19131567  1
  Se  Se232  1  0.57925518  0.41945144  0.68908141  1
  Se  Se233  1  0.56936664  0.75454552  0.19207659  1
  Se  Se234  1  0.58764683  0.73906790  0.70223545  1
  Se  Se235  1  0.91844205  0.08521986  0.19919001  1
  Se  Se236  1  0.90858391  0.08805483  0.68656394  1
  Se  Se237  1  0.92045839  0.41628496  0.19944915  1
  Se  Se238  1  0.92185409  0.41510227  0.70233810  1
  Se  Se239  1  0.89732105  0.77274441  0.19244922  1
  Se  Se240  1  0.90665167  0.75777439  0.68650993  1
  Se  Se241  1  0.08242617  0.25257146  0.19558028  1
  Se  Se242  1  0.07674014  0.25275751  0.69853611  1
  Se  Se243  1  0.07373781  0.59142245  0.19256886  1
  Se  Se244  1  0.09315259  0.57307973  0.69049326  1
  Se  Se245  1  0.08752234  0.92087575  0.19283917  1
  Se  Se246  1  0.08431936  0.91610102  0.69066617  1
  Se  Se247  1  0.42617826  0.24152321  0.18588866  1
  Se  Se248  1  0.41301497  0.24937410  0.70104697  1
  Se  Se249  1  0.41850871  0.57863912  0.19134272  1
  Se  Se250  1  0.42307373  0.57674974  0.69102915  1
  Se  Se251  1  0.41395964  0.92330597  0.19611325  1
  Se  Se252  1  0.42562767  0.90585710  0.69667824  1
  Se  Se253  1  0.74928160  0.25596124  0.19422487  1
  Se  Se254  1  0.75705713  0.24299515  0.68791010  1
  Se  Se255  1  0.75529879  0.57044638  0.19523602  1
  Se  Se256  1  0.75755194  0.57532105  0.70077126  1
  Se  Se257  1  0.74318912  0.91351011  0.20564998  1
  Se  Se258  1  0.74488464  0.92162386  0.69689681  1
