# generated using pymatgen
data_In86Cu29Se144
_symmetry_space_group_name_H-M   'P 1'
_cell_length_a   17.58583535
_cell_length_b   17.58354840
_cell_length_c   23.44242652
_cell_angle_alpha   90.02876421
_cell_angle_beta   90.01083581
_cell_angle_gamma   89.99955151
_symmetry_Int_Tables_number   1
_chemical_formula_structural   In86Cu29Se144
_chemical_formula_sum   'In86 Cu29 Se144'
_cell_volume   7248.89860055
_cell_formula_units_Z   1
loop_
 _symmetry_equiv_pos_site_id
 _symmetry_equiv_pos_as_xyz
  1  'x, y, z'
loop_
 _atom_site_type_symbol
 _atom_site_label
 _atom_site_symmetry_multiplicity
 _atom_site_fract_x
 _atom_site_fract_y
 _atom_site_fract_z
 _atom_site_occupancy
  In  In0  1  0.00469274  0.17118420  0.11637187  1
  In  In1  1  -0.00864709  0.17474869  0.62313285  1
  In  In2  1  -0.01088492  0.51324781  0.13582168  1
  In  In3  1  0.01585099  0.49865436  0.62257902  1
  In  In4  1  -0.01888719  0.82311524  0.10705603  1
  In  In5  1  -0.00646060  0.82616601  0.62289483  1
  In  In6  1  0.33688903  0.17032755  0.11771187  1
  In  In7  1  0.33999854  0.16287866  0.63596776  1
  In  In8  1  0.33229441  0.48897590  0.12276907  1
  In  In9  1  0.32244981  0.50007867  0.62810841  1
  In  In10  1  0.33377833  0.82859496  0.10973154  1
  In  In11  1  0.32943738  0.84371818  0.62263068  1
  In  In12  1  0.65913887  0.15636235  0.11917957  1
  In  In13  1  0.67155494  0.16341009  0.63295956  1
  In  In14  1  0.67938695  0.50957760  0.11910548  1
  In  In15  1  0.65728535  0.49809043  0.62452069  1
  In  In16  1  0.67251448  0.83389410  0.12704366  1
  In  In17  1  0.68005636  0.83795595  0.62410215  1
  In  In18  1  0.15498771  -0.00419725  0.37986324  1
  In  In19  1  0.17577983  -0.00956816  0.88326627  1
  In  In20  1  0.17288153  0.34039370  0.36759972  1
  In  In21  1  0.16703053  0.31977504  0.87477654  1
  In  In22  1  0.15841078  0.67791109  0.38550697  1
  In  In23  1  0.16604761  0.68278307  0.87602609  1
  In  In24  1  0.50852210  -0.01207983  0.37097549  1
  In  In25  1  0.50009207  0.00239299  0.87424968  1
  In  In26  1  0.49548913  0.34489389  0.37136064  1
  In  In27  1  0.50365325  0.33076345  0.87706598  1
  In  In28  1  0.50406589  0.65907355  0.36916142  1
  In  In29  1  0.49237941  0.66711807  0.89287248  1
  In  In30  1  0.82908311  0.00234404  0.37646284  1
  In  In31  1  0.82306620  0.00973719  0.88792246  1
  In  In32  1  0.83350762  0.31354542  0.37343946  1
  In  In33  1  0.82628640  0.33686487  0.88165108  1
  In  In34  1  0.83420709  0.67384247  0.36668021  1
  In  In35  1  0.84097551  0.66404170  0.87778164  1
  In  In36  1  -0.01271310  0.15693670  0.37119926  1
  In  In37  1  0.00012620  0.15506431  0.89868875  1
  In  In38  1  0.00858270  0.51071939  0.36671820  1
  In  In39  1  -0.01538189  0.50125326  0.87529118  1
  In  In40  1  -0.00102126  0.82619507  0.37645935  1
  In  In41  1  0.00862873  0.83044497  0.88468587  1
  In  In42  1  0.31997836  0.17177603  0.37406677  1
  In  In43  1  0.33783900  0.16695133  0.87416816  1
  In  In44  1  0.33813845  0.49040876  0.37401202  1
  In  In45  1  0.35165272  0.50248703  0.87833506  1
  In  In46  1  0.32999604  0.82609674  0.37930664  1
  In  In47  1  0.32319295  0.83950133  0.88327689  1
  In  In48  1  0.68499297  0.16716555  0.37514226  1
  In  In49  1  0.66549861  0.16617110  0.87735090  1
  In  In50  1  0.65631909  0.50402442  0.37151000  1
  In  In51  1  0.67380361  0.49339288  0.88049454  1
  In  In52  1  0.67462509  0.83858806  0.36348168  1
  In  In53  1  0.65708969  0.84319064  0.88079958  1
  In  In54  1  0.15108540  -0.00544496  0.10557478  1
  In  In55  1  0.18080576  -0.00660588  0.62514517  1
  In  In56  1  0.17153939  0.32800405  0.12920131  1
  In  In57  1  0.16676391  0.34424347  0.62600982  1
  In  In58  1  0.15398760  0.66924688  0.12621749  1
  In  In59  1  0.16210833  0.65532030  0.61676163  1
  In  In60  1  0.50879522  0.00486007  0.11963076  1
  In  In61  1  0.49486513  0.00482297  0.63558736  1
  In  In62  1  0.49364597  0.32404446  0.11767281  1
  In  In63  1  0.50718674  0.32944248  0.63760730  1
  In  In64  1  0.51192963  0.68024302  0.10888579  1
  In  In65  1  0.49943459  0.66331890  0.62426977  1
  In  In66  1  0.81779421  -0.01705665  0.10858620  1
  In  In67  1  0.82828436  -0.00579514  0.62314886  1
  In  In68  1  0.83946268  0.34327229  0.12165060  1
  In  In69  1  0.83327803  0.32168370  0.62240687  1
  In  In70  1  0.83479004  0.67133618  0.12847512  1
  In  In71  1  0.83010956  0.68868222  0.62204847  1
  In  In72  1  0.15973672  0.16130571  0.50287222  1
  In  In73  1  0.49803148  0.50201589  0.49738981  1
  In  In74  1  0.33423842  0.66153836  0.24978097  1
  In  In75  1  0.16755024  0.50185592  0.00706331  1
  In  In76  1  -0.00272311  0.33211969  0.75371210  1
  In  In77  1  -0.00465709  -0.00295320  0.24192890  1
  In  In78  1  0.66569717  0.66617997  0.74743804  1
  In  In79  1  0.66800673  0.33352889  0.24994810  1
  In  In80  1  0.83542455  0.50142626  0.49291609  1
  In  In81  1  0.33488909  0.00735151  0.24422167  1
  In  In82  1  0.50151749  0.16437776  0.51327508  1
  In  In83  1  -0.00109020  -0.00051351  0.76239970  1
  In  In84  1  0.33206052  0.66915931  0.75045793  1
  In  In85  1  0.49453738  0.83106364  0.49892115  1
  Cu  Cu86  1  -0.00170952  0.66565477  0.49624051  1
  Cu  Cu87  1  0.83082979  0.16871896  0.75685690  1
  Cu  Cu88  1  0.83127818  0.83718010  0.75002697  1
  Cu  Cu89  1  0.33716341  0.33319465  -0.00175817  1
  Cu  Cu90  1  0.50787225  0.49153267  0.75877512  1
  Cu  Cu91  1  0.17477907  0.16317136  0.75361538  1
  Cu  Cu92  1  0.16456952  0.83597095  0.75657822  1
  Cu  Cu93  1  0.50017171  0.49885009  0.24430017  1
  Cu  Cu94  1  0.33204445  0.33407443  0.50013295  1
  Cu  Cu95  1  -0.00006899  0.33146125  0.49920586  1
  Cu  Cu96  1  0.49804670  0.16934509  0.24232641  1
  Cu  Cu97  1  0.49854948  0.84042527  0.75584129  1
  Cu  Cu98  1  0.83418758  0.16190146  0.24669962  1
  Cu  Cu99  1  0.83330925  0.50140976  0.75445938  1
  Cu  Cu100  1  0.66960555  0.00052792  0.50116293  1
  Cu  Cu101  1  0.83583247  0.50296644  0.24724163  1
  Cu  Cu102  1  0.51000531  0.83516070  0.24156444  1
  Cu  Cu103  1  0.16237185  0.83241197  0.25364903  1
  Cu  Cu104  1  0.66317670  -0.00392980  -0.00128577  1
  Cu  Cu105  1  -0.00596298  0.33943440  0.00234688  1
  Cu  Cu106  1  0.66545912  0.32852275  0.00012877  1
  Cu  Cu107  1  0.33886181  0.00490401  -0.00268342  1
  Cu  Cu108  1  0.67528954  0.66738120  -0.00011508  1
  Cu  Cu109  1  0.50282055  0.16845061  0.75701030  1
  Cu  Cu110  1  -0.00811969  -0.00941559  0.49963413  1
  Cu  Cu111  1  0.16385752  0.49819724  0.24863607  1
  Cu  Cu112  1  0.16882702  0.50230749  0.74688524  1
  Cu  Cu113  1  0.16803836  0.17393605  0.24353864  1
  Cu  Cu114  1  -0.00374211  0.66596095  0.00402236  1
  Se  Se115  1  0.10153956  0.10758705  0.04786095  1
  Se  Se116  1  0.06994682  0.06992673  0.56409103  1
  Se  Se117  1  0.07356568  0.41654346  0.06648575  1
  Se  Se118  1  0.08674352  0.41366537  0.54896462  1
  Se  Se119  1  0.08605746  0.75095286  0.04975046  1
  Se  Se120  1  0.07971527  0.74687850  0.55474203  1
  Se  Se121  1  0.42219994  0.08586036  0.05293149  1
  Se  Se122  1  0.40255571  0.07050779  0.55844211  1
  Se  Se123  1  0.41923283  0.41756617  0.05095942  1
  Se  Se124  1  0.41583127  0.40810097  0.56269413  1
  Se  Se125  1  0.41885014  0.75095090  0.04318306  1
  Se  Se126  1  0.40548998  0.73949372  0.55955419  1
  Se  Se127  1  0.74742204  0.08476668  0.04807599  1
  Se  Se128  1  0.74898546  0.08478324  0.55783998  1
  Se  Se129  1  0.74912617  0.41455400  0.05176303  1
  Se  Se130  1  0.74778295  0.41469187  0.55800191  1
  Se  Se131  1  0.75479778  0.75189619  0.05571040  1
  Se  Se132  1  0.74139921  0.75123438  0.54972429  1
  Se  Se133  1  0.25023527  0.25489787  0.05255000  1
  Se  Se134  1  0.25607391  0.25077383  0.56160013  1
  Se  Se135  1  0.25674053  0.59451015  0.06351626  1
  Se  Se136  1  0.25394220  0.57788552  0.55288428  1
  Se  Se137  1  0.25255071  0.91983073  0.04750703  1
  Se  Se138  1  0.24141636  0.90863000  0.54900199  1
  Se  Se139  1  0.58068768  0.24417174  0.05128608  1
  Se  Se140  1  0.59469390  0.25986775  0.56195793  1
  Se  Se141  1  0.58932454  0.58145186  0.04931871  1
  Se  Se142  1  0.59341765  0.59584143  0.55232602  1
  Se  Se143  1  0.58467543  0.91147212  0.05581896  1
  Se  Se144  1  0.58256460  0.92579590  0.56042523  1
  Se  Se145  1  0.91164336  0.25168501  0.05271890  1
  Se  Se146  1  0.91379098  0.24729203  0.54717557  1
  Se  Se147  1  0.91276043  0.58266054  0.05724282  1
  Se  Se148  1  0.92084414  0.58717975  0.56100980  1
  Se  Se149  1  0.93896877  0.94385009  0.05200751  1
  Se  Se150  1  0.90921770  0.90931836  0.55563909  1
  Se  Se151  1  0.07862674  0.25027216  0.43600311  1
  Se  Se152  1  0.08048069  0.25805077  0.95071805  1
  Se  Se153  1  0.08300123  0.57905674  0.44748426  1
  Se  Se154  1  0.07699370  0.58672611  0.94180782  1
  Se  Se155  1  0.07866736  0.91030224  0.44764000  1
  Se  Se156  1  0.08253763  0.92188718  0.94985415  1
  Se  Se157  1  0.41422628  0.25317791  0.44265714  1
  Se  Se158  1  0.41968662  0.24807959  0.94553444  1
  Se  Se159  1  0.40671138  0.59410776  0.44049956  1
  Se  Se160  1  0.41548016  0.57800418  0.95775768  1
  Se  Se161  1  0.40826145  0.92848675  0.44082962  1
  Se  Se162  1  0.41940218  0.91804568  0.94416502  1
  Se  Se163  1  0.74841784  0.25251110  0.44925417  1
  Se  Se164  1  0.75140795  0.24545470  0.94784049  1
  Se  Se165  1  0.74151375  0.59017243  0.43762327  1
  Se  Se166  1  0.75563634  0.58225798  0.94483351  1
  Se  Se167  1  0.74525297  0.91644202  0.44276755  1
  Se  Se168  1  0.75075879  0.91042777  0.95082051  1
  Se  Se169  1  0.25457114  0.07456239  0.44383140  1
  Se  Se170  1  0.25358628  0.08712430  0.94440546  1
  Se  Se171  1  0.25084964  0.41493058  0.44430051  1
  Se  Se172  1  0.25247364  0.41344896  0.94024887  1
  Se  Se173  1  0.24901470  0.75326073  0.45061469  1
  Se  Se174  1  0.25554319  0.74240036  0.94870024  1
  Se  Se175  1  0.58673089  0.08003525  0.44204929  1
  Se  Se176  1  0.58209492  0.08261489  0.94569175  1
  Se  Se177  1  0.59203102  0.40597922  0.44429397  1
  Se  Se178  1  0.58441452  0.41543755  0.94679718  1
  Se  Se179  1  0.58533141  0.74996195  0.43479920  1
  Se  Se180  1  0.58752056  0.75023925  0.94963349  1
  Se  Se181  1  0.91447098  0.08062333  0.44764660  1
  Se  Se182  1  0.92137382  0.06474053  0.96077177  1
  Se  Se183  1  0.92473867  0.40977293  0.43365782  1
  Se  Se184  1  0.91079938  0.42150424  0.94881482  1
  Se  Se185  1  0.91175266  0.74677148  0.44474202  1
  Se  Se186  1  0.91570109  0.75095211  0.94859443  1
  Se  Se187  1  0.25308292  0.25367320  0.29849774  1
  Se  Se188  1  0.25548497  0.25184871  0.80327458  1
  Se  Se189  1  0.24257438  0.57827162  0.31250635  1
  Se  Se190  1  0.24561999  0.57795230  0.81339043  1
  Se  Se191  1  0.24579203  0.91537325  0.30780460  1
  Se  Se192  1  0.25264731  0.91811259  0.80503484  1
  Se  Se193  1  0.57729377  0.24288063  0.31059238  1
  Se  Se194  1  0.58900261  0.25255181  0.80623198  1
  Se  Se195  1  0.58389337  0.58285322  0.29542701  1
  Se  Se196  1  0.57748271  0.58477339  0.81530245  1
  Se  Se197  1  0.58939842  0.92192229  0.29467133  1
  Se  Se198  1  0.58703640  0.92222298  0.80383600  1
  Se  Se199  1  0.91864810  0.24521432  0.29847536  1
  Se  Se200  1  0.91819555  0.23890700  0.81854622  1
  Se  Se201  1  0.91821305  0.58746566  0.30122501  1
  Se  Se202  1  0.91848433  0.58807202  0.80053857  1
  Se  Se203  1  0.91103238  0.91146682  0.30822244  1
  Se  Se204  1  0.90594092  0.91078019  0.81841554  1
  Se  Se205  1  0.09163068  0.08818003  0.30304944  1
  Se  Se206  1  0.09026950  0.09337111  0.81699512  1
  Se  Se207  1  0.08002037  0.41368749  0.30110874  1
  Se  Se208  1  0.08929269  0.42479571  0.81174268  1
  Se  Se209  1  0.08228632  0.74626124  0.30554904  1
  Se  Se210  1  0.07758393  0.75219212  0.80448539  1
  Se  Se211  1  0.42328588  0.09230479  0.31115837  1
  Se  Se212  1  0.41617862  0.08191350  0.80344860  1
  Se  Se213  1  0.41489510  0.41659368  0.29632710  1
  Se  Se214  1  0.41694023  0.41197866  0.80685363  1
  Se  Se215  1  0.42591238  0.76109434  0.30415357  1
  Se  Se216  1  0.42290712  0.75416222  0.81306090  1
  Se  Se217  1  0.75064279  0.08087934  0.30100542  1
  Se  Se218  1  0.74999832  0.08157931  0.80847442  1
  Se  Se219  1  0.75899642  0.42246548  0.31114624  1
  Se  Se220  1  0.75211910  0.41574697  0.80521242  1
  Se  Se221  1  0.73723325  0.73778071  0.29891210  1
  Se  Se222  1  0.75099900  0.75497402  0.81105766  1
  Se  Se223  1  0.23878917  0.08600164  0.18254387  1
  Se  Se224  1  0.25194655  0.07757310  0.69845806  1
  Se  Se225  1  0.25051194  0.41716280  0.19700584  1
  Se  Se226  1  0.25201090  0.41290009  0.70074035  1
  Se  Se227  1  0.24831728  0.75870880  0.19196056  1
  Se  Se228  1  0.23962998  0.75541707  0.69095163  1
  Se  Se229  1  0.58317628  0.08227132  0.19690938  1
  Se  Se230  1  0.58368179  0.08462620  0.70008891  1
  Se  Se231  1  0.58163880  0.41863020  0.18416687  1
  Se  Se232  1  0.59311637  0.41553144  0.70198094  1
  Se  Se233  1  0.58675695  0.74395254  0.19117771  1
  Se  Se234  1  0.57408479  0.76123464  0.69054714  1
  Se  Se235  1  0.90930431  0.08661046  0.18055749  1
  Se  Se236  1  0.91251720  0.08920815  0.69641040  1
  Se  Se237  1  0.91784906  0.41347568  0.19969881  1
  Se  Se238  1  0.91262601  0.42270151  0.68924102  1
  Se  Se239  1  0.92265149  0.75571052  0.19224502  1
  Se  Se240  1  0.91448482  0.75194946  0.69944930  1
  Se  Se241  1  0.07703605  0.25224551  0.19379792  1
  Se  Se242  1  0.09125611  0.24106918  0.69338175  1
  Se  Se243  1  0.08285280  0.58877476  0.20130490  1
  Se  Se244  1  0.08389741  0.58545817  0.69637076  1
  Se  Se245  1  0.08902207  0.90759448  0.18610887  1
  Se  Se246  1  0.08363640  0.91451052  0.69381110  1
  Se  Se247  1  0.41209118  0.25154279  0.19345674  1
  Se  Se248  1  0.41774166  0.25111976  0.70241494  1
  Se  Se249  1  0.42453913  0.58253871  0.18318892  1
  Se  Se250  1  0.42702716  0.57168661  0.69692265  1
  Se  Se251  1  0.41849644  0.90934178  0.18611953  1
  Se  Se252  1  0.41153498  0.91440340  0.69790277  1
  Se  Se253  1  0.75311124  0.24389714  0.18665353  1
  Se  Se254  1  0.75325808  0.25295313  0.69957557  1
  Se  Se255  1  0.75037937  0.58579555  0.19685777  1
  Se  Se256  1  0.75895226  0.57883563  0.68686053  1
  Se  Se257  1  0.75722578  0.91737091  0.19373073  1
  Se  Se258  1  0.74762315  0.92189691  0.69965104  1
