# generated using pymatgen
data_In86Cu29Se144
_symmetry_space_group_name_H-M   'P 1'
_cell_length_a   17.56842547
_cell_length_b   17.57260940
_cell_length_c   23.42620758
_cell_angle_alpha   89.99591788
_cell_angle_beta   90.00065179
_cell_angle_gamma   89.97642877
_symmetry_Int_Tables_number   1
_chemical_formula_structural   In86Cu29Se144
_chemical_formula_sum   'In86 Cu29 Se144'
_cell_volume   7232.21029128
_cell_formula_units_Z   1
loop_
 _symmetry_equiv_pos_site_id
 _symmetry_equiv_pos_as_xyz
  1  'x, y, z'
loop_
 _atom_site_type_symbol
 _atom_site_label
 _atom_site_symmetry_multiplicity
 _atom_site_fract_x
 _atom_site_fract_y
 _atom_site_fract_z
 _atom_site_occupancy
  In  In0  1  -0.00355737  0.16285238  0.12677413  1
  In  In1  1  -0.00819560  0.15897903  0.62637443  1
  In  In2  1  0.00761735  0.50598229  0.13242135  1
  In  In3  1  0.00702069  0.50586937  0.61103361  1
  In  In4  1  -0.00402246  0.84047746  0.13888121  1
  In  In5  1  -0.00869217  0.84607915  0.62913155  1
  In  In6  1  0.33292655  0.15773752  0.10670103  1
  In  In7  1  0.32296760  0.16311327  0.63529232  1
  In  In8  1  0.32271548  0.51646305  0.13022990  1
  In  In9  1  0.33012757  0.50221748  0.61463064  1
  In  In10  1  0.33194416  0.82532080  0.11711335  1
  In  In11  1  0.33790562  0.84052381  0.63351376  1
  In  In12  1  0.66752676  0.16955651  0.12564434  1
  In  In13  1  0.69146408  0.16964912  0.62960837  1
  In  In14  1  0.67470658  0.48779468  0.13796432  1
  In  In15  1  0.67037722  0.49839172  0.61728738  1
  In  In16  1  0.67228041  0.83694484  0.13544196  1
  In  In17  1  0.66311365  0.82366350  0.62435884  1
  In  In18  1  0.15368968  0.00973177  0.37875355  1
  In  In19  1  0.16687272  -0.00209559  0.86999224  1
  In  In20  1  0.14954434  0.35630329  0.37716147  1
  In  In21  1  0.16234553  0.33427881  0.88959520  1
  In  In22  1  0.13747300  0.62673847  0.33876506  1
  In  In23  1  0.14481682  0.67458013  0.88726218  1
  In  In24  1  0.51437760  -0.01800099  0.37837897  1
  In  In25  1  0.49439845  0.00959813  0.89082662  1
  In  In26  1  0.51642384  0.33428057  0.37244909  1
  In  In27  1  0.50355127  0.32324878  0.87774510  1
  In  In28  1  0.49530690  0.66643856  0.36994873  1
  In  In29  1  0.51002202  0.66739565  0.87729549  1
  In  In30  1  0.83395425  0.00215324  0.37595836  1
  In  In31  1  0.84438196  0.00241210  0.87351880  1
  In  In32  1  0.83957029  0.33883183  0.37336543  1
  In  In33  1  0.82205579  0.33196742  0.87026880  1
  In  In34  1  0.82415300  0.66238865  0.37657960  1
  In  In35  1  0.83667607  0.67166386  0.86609365  1
  In  In36  1  -0.03308715  0.14315712  0.34675838  1
  In  In37  1  0.00713802  0.16250662  0.88608842  1
  In  In38  1  -0.00305023  0.49394557  0.37435321  1
  In  In39  1  0.00124889  0.51073791  0.87760172  1
  In  In40  1  -0.03612515  0.80999876  0.34630465  1
  In  In41  1  0.00354142  0.82653511  0.86277258  1
  In  In42  1  0.32646562  0.16037833  0.36886501  1
  In  In43  1  0.33919568  0.15303480  0.89095737  1
  In  In44  1  0.32418708  0.51555440  0.38269980  1
  In  In45  1  0.32982641  0.48853266  0.87766222  1
  In  In46  1  0.34269340  0.82439713  0.37368883  1
  In  In47  1  0.32716009  0.87207692  0.88298288  1
  In  In48  1  0.70843651  0.19399027  0.33702296  1
  In  In49  1  0.66580402  0.16589243  0.87847808  1
  In  In50  1  0.66452396  0.50035616  0.37949933  1
  In  In51  1  0.67264351  0.50706852  0.86545075  1
  In  In52  1  0.69364073  0.85423661  0.35493247  1
  In  In53  1  0.66927382  0.81882326  0.87688068  1
  In  In54  1  0.16068544  0.00136899  0.12140573  1
  In  In55  1  0.15855835  0.00448323  0.64441005  1
  In  In56  1  0.16178981  0.33599799  0.12228801  1
  In  In57  1  0.15656684  0.33928198  0.62266045  1
  In  In58  1  0.16445778  0.67120738  0.13281391  1
  In  In59  1  0.16221375  0.65817757  0.62219488  1
  In  In60  1  0.51177688  0.00771306  0.10862430  1
  In  In61  1  0.49827380  -0.01172889  0.63063675  1
  In  In62  1  0.50993513  0.32498736  0.12920790  1
  In  In63  1  0.50327756  0.34863217  0.62129311  1
  In  In64  1  0.49995912  0.66893312  0.12543498  1
  In  In65  1  0.50994687  0.66886435  0.62363335  1
  In  In66  1  0.81559316  0.01855179  0.15066586  1
  In  In67  1  0.84640731  0.01390008  0.61400840  1
  In  In68  1  0.84881242  0.31047903  0.14915076  1
  In  In69  1  0.82742473  0.32307284  0.61715603  1
  In  In70  1  0.83957979  0.66506431  0.14264534  1
  In  In71  1  0.83372310  0.66487203  0.61638751  1
  In  In72  1  0.50703251  0.82325380  0.49881303  1
  In  In73  1  0.16460831  0.82892534  0.49423290  1
  In  In74  1  0.15265623  0.18176227  0.50167078  1
  In  In75  1  0.33473745  0.33716128  0.24247486  1
  In  In76  1  0.83890371  0.49686174  0.01394901  1
  In  In77  1  -0.00691621  0.33217754  0.74522869  1
  In  In78  1  0.66774715  -0.00336365  0.75027409  1
  In  In79  1  0.33762971  0.32717755  0.75737602  1
  In  In80  1  0.83737838  0.83733177  0.00240212  1
  In  In81  1  0.33376839  -0.00664487  0.23855530  1
  In  In82  1  0.51159953  0.16549225  0.49262511  1
  In  In83  1  0.49720407  0.49358658  0.00588548  1
  In  In84  1  0.33023701  0.67172480  0.75260088  1
  In  In85  1  0.16590518  0.83907063  0.00532839  1
  Cu  Cu86  1  0.17787382  0.83824582  0.24693181  1
  Cu  Cu87  1  0.51355909  0.50530727  0.74432582  1
  Cu  Cu88  1  -0.00453473  0.00262859  0.00393897  1
  Cu  Cu89  1  0.50418526  0.15009203  0.24534830  1
  Cu  Cu90  1  0.15871061  0.17976808  0.24749077  1
  Cu  Cu91  1  0.50007125  0.49842637  0.25192991  1
  Cu  Cu92  1  0.66896954  -0.00043341  0.00874649  1
  Cu  Cu93  1  0.16490979  0.50034873  0.74868089  1
  Cu  Cu94  1  0.66547314  0.66727251  0.49621598  1
  Cu  Cu95  1  -0.00246467  0.33285222  0.49571994  1
  Cu  Cu96  1  0.66714422  0.32600731  0.00072129  1
  Cu  Cu97  1  -0.00907648  0.33466518  0.01084025  1
  Cu  Cu98  1  0.67706836  0.00506851  0.49303879  1
  Cu  Cu99  1  0.32815117  0.33378146  0.00367895  1
  Cu  Cu100  1  0.49194147  0.83933487  0.75752215  1
  Cu  Cu101  1  0.82725051  0.82655238  0.74433287  1
  Cu  Cu102  1  0.50510468  0.82818619  0.24773772  1
  Cu  Cu103  1  -0.00138032  0.66761860  0.48633055  1
  Cu  Cu104  1  0.82816736  0.50270230  0.25704901  1
  Cu  Cu105  1  0.32674645  0.66351161  0.49454676  1
  Cu  Cu106  1  0.32986996  0.66761757  0.00417659  1
  Cu  Cu107  1  0.33892768  0.34012957  0.49488794  1
  Cu  Cu108  1  0.67430483  0.33105077  0.49171730  1
  Cu  Cu109  1  0.33035278  0.00293498  0.51179425  1
  Cu  Cu110  1  0.83247177  0.50618053  0.74374728  1
  Cu  Cu111  1  0.67441086  0.66111028  0.00296559  1
  Cu  Cu112  1  0.50528518  0.16235787  0.76036103  1
  Cu  Cu113  1  -0.00693912  -0.00500502  0.49426063  1
  Cu  Cu114  1  0.16820073  0.15775487  0.76031131  1
  Se  Se115  1  0.08145344  0.08690274  0.05380204  1
  Se  Se116  1  0.07999377  0.06976662  0.55698158  1
  Se  Se117  1  0.07693134  0.42232780  0.05618338  1
  Se  Se118  1  0.08729933  0.41525625  0.54475587  1
  Se  Se119  1  0.07284017  0.75351882  0.06390627  1
  Se  Se120  1  0.07124233  0.74453132  0.55627145  1
  Se  Se121  1  0.41879453  0.07806790  0.04192791  1
  Se  Se122  1  0.41669773  0.08452358  0.56328870  1
  Se  Se123  1  0.40610991  0.40906193  0.06931937  1
  Se  Se124  1  0.42053346  0.42334727  0.54943298  1
  Se  Se125  1  0.42198264  0.74686071  0.05095937  1
  Se  Se126  1  0.40389441  0.74424933  0.55887564  1
  Se  Se127  1  0.75416323  0.08092799  0.06167954  1
  Se  Se128  1  0.75420896  0.09125789  0.54847351  1
  Se  Se129  1  0.74729747  0.40026532  0.06454835  1
  Se  Se130  1  0.75460948  0.41446872  0.54935010  1
  Se  Se131  1  0.75413151  0.74010077  0.06295614  1
  Se  Se132  1  0.74600937  0.75176968  0.55142158  1
  Se  Se133  1  0.24228114  0.25022979  0.05318743  1
  Se  Se134  1  0.26090644  0.25978879  0.55930605  1
  Se  Se135  1  0.24175768  0.59029484  0.05652560  1
  Se  Se136  1  0.24191316  0.58126613  0.54851109  1
  Se  Se137  1  0.26329387  0.93246816  0.05542191  1
  Se  Se138  1  0.24618867  0.92150674  0.56511576  1
  Se  Se139  1  0.57988968  0.24492958  0.05270796  1
  Se  Se140  1  0.59388178  0.25540083  0.55913227  1
  Se  Se141  1  0.59660758  0.57724911  0.06237990  1
  Se  Se142  1  0.58222228  0.58503704  0.55206734  1
  Se  Se143  1  0.59332953  0.90428981  0.05607157  1
  Se  Se144  1  0.59232474  0.92780765  0.55395466  1
  Se  Se145  1  0.90830988  0.24761706  0.05980929  1
  Se  Se146  1  0.92311552  0.24643910  0.55350633  1
  Se  Se147  1  0.92512441  0.59858725  0.06253350  1
  Se  Se148  1  0.91810459  0.58520762  0.54570056  1
  Se  Se149  1  0.91600266  0.92925985  0.06801549  1
  Se  Se150  1  0.91128712  0.91155867  0.54926303  1
  Se  Se151  1  0.06630449  0.25008541  0.42819348  1
  Se  Se152  1  0.07743583  0.25349128  0.95597866  1
  Se  Se153  1  0.08618419  0.58340845  0.43780686  1
  Se  Se154  1  0.08541370  0.57490078  0.95330986  1
  Se  Se155  1  0.06968582  0.91243570  0.43441655  1
  Se  Se156  1  0.06849167  0.91869851  0.94198712  1
  Se  Se157  1  0.40979887  0.25136312  0.43610228  1
  Se  Se158  1  0.41508964  0.25498725  0.94902782  1
  Se  Se159  1  0.42302070  0.58706700  0.44742493  1
  Se  Se160  1  0.41033237  0.58644968  0.94321586  1
  Se  Se161  1  0.40874171  0.92186382  0.44918505  1
  Se  Se162  1  0.43507382  0.90170787  0.95148014  1
  Se  Se163  1  0.75238709  0.24648806  0.43553222  1
  Se  Se164  1  0.75329644  0.24793844  0.94553877  1
  Se  Se165  1  0.74988536  0.57846675  0.45027270  1
  Se  Se166  1  0.75498147  0.58520995  0.94209106  1
  Se  Se167  1  0.75544484  0.91253614  0.44491228  1
  Se  Se168  1  0.74299128  0.92388406  0.93968162  1
  Se  Se169  1  0.25165165  0.08265294  0.45056482  1
  Se  Se170  1  0.23552961  0.08065196  0.94486145  1
  Se  Se171  1  0.24823678  0.41872415  0.44524097  1
  Se  Se172  1  0.24696192  0.42177014  0.95346733  1
  Se  Se173  1  0.24813068  0.73849009  0.43149025  1
  Se  Se174  1  0.25616415  0.75060214  0.94039790  1
  Se  Se175  1  0.60027533  0.08287694  0.42940121  1
  Se  Se176  1  0.59039603  0.08551901  0.95252149  1
  Se  Se177  1  0.58186587  0.41542851  0.45019001  1
  Se  Se178  1  0.59509276  0.41635296  0.94124681  1
  Se  Se179  1  0.59685489  0.75151149  0.42942561  1
  Se  Se180  1  0.58891920  0.74427069  0.95199223  1
  Se  Se181  1  0.91773105  0.08995258  0.44362226  1
  Se  Se182  1  0.91105733  0.08513772  0.95013289  1
  Se  Se183  1  0.91327969  0.42053959  0.44889592  1
  Se  Se184  1  0.91767292  0.41076804  0.94100882  1
  Se  Se185  1  0.91107886  0.75278758  0.44016638  1
  Se  Se186  1  0.92323317  0.74568192  0.94099060  1
  Se  Se187  1  0.24179054  0.25394516  0.30952965  1
  Se  Se188  1  0.24448477  0.24449364  0.81891187  1
  Se  Se189  1  0.26933185  0.59139323  0.29892998  1
  Se  Se190  1  0.24544118  0.57591561  0.81148866  1
  Se  Se191  1  0.24953087  0.91892320  0.31512519  1
  Se  Se192  1  0.23358531  0.90057671  0.80330566  1
  Se  Se193  1  0.57669282  0.24182483  0.29952612  1
  Se  Se194  1  0.58890972  0.25099869  0.80574415  1
  Se  Se195  1  0.58269828  0.58033658  0.30702487  1
  Se  Se196  1  0.58768337  0.59274260  0.80103687  1
  Se  Se197  1  0.58576518  0.91894103  0.29491885  1
  Se  Se198  1  0.57944558  0.91434135  0.81661545  1
  Se  Se199  1  0.91354263  0.26034448  0.29621017  1
  Se  Se200  1  0.91651937  0.24265620  0.81228132  1
  Se  Se201  1  0.91462548  0.58388884  0.30918811  1
  Se  Se202  1  0.91769432  0.58052771  0.80248442  1
  Se  Se203  1  0.93920770  0.94478213  0.30914372  1
  Se  Se204  1  0.90699612  0.90675128  0.80378701  1
  Se  Se205  1  0.08763210  0.08475608  0.29855480  1
  Se  Se206  1  0.07428060  0.08054607  0.80810890  1
  Se  Se207  1  0.08041166  0.42500447  0.29717351  1
  Se  Se208  1  0.08784104  0.41629784  0.80912864  1
  Se  Se209  1  0.09505468  0.76232913  0.30752495  1
  Se  Se210  1  0.08003033  0.73220970  0.80061479  1
  Se  Se211  1  0.42328843  0.07527510  0.30866443  1
  Se  Se212  1  0.41891638  0.08356040  0.81251303  1
  Se  Se213  1  0.41810950  0.42006940  0.31322872  1
  Se  Se214  1  0.43320880  0.42648648  0.80746126  1
  Se  Se215  1  0.41638263  0.74858551  0.29728992  1
  Se  Se216  1  0.41532739  0.75728722  0.81892802  1
  Se  Se217  1  0.73760151  0.06002047  0.30179540  1
  Se  Se218  1  0.75703010  0.08864690  0.80648632  1
  Se  Se219  1  0.74492297  0.41736172  0.30882473  1
  Se  Se220  1  0.75240727  0.42105800  0.79843815  1
  Se  Se221  1  0.74677798  0.73996126  0.30118032  1
  Se  Se222  1  0.74360103  0.74499119  0.79864407  1
  Se  Se223  1  0.24440047  0.09779319  0.19000154  1
  Se  Se224  1  0.25652399  0.07708385  0.70876030  1
  Se  Se225  1  0.23590150  0.42951156  0.19540049  1
  Se  Se226  1  0.24939223  0.41906573  0.69280931  1
  Se  Se227  1  0.25835597  0.75230821  0.19514927  1
  Se  Se228  1  0.23894800  0.75544342  0.68885563  1
  Se  Se229  1  0.58869255  0.07263461  0.18951841  1
  Se  Se230  1  0.57948839  0.09173895  0.68834121  1
  Se  Se231  1  0.58088106  0.40975187  0.20189091  1
  Se  Se232  1  0.59153531  0.41648023  0.69263742  1
  Se  Se233  1  0.58791267  0.74342571  0.19500639  1
  Se  Se234  1  0.57147353  0.75969774  0.69775749  1
  Se  Se235  1  0.91537767  0.09596601  0.20565522  1
  Se  Se236  1  0.91776740  0.07652670  0.69720523  1
  Se  Se237  1  0.90976142  0.42928282  0.19494318  1
  Se  Se238  1  0.91264379  0.42563312  0.68211207  1
  Se  Se239  1  0.91721273  0.75628036  0.20740649  1
  Se  Se240  1  0.91277565  0.74775604  0.68860753  1
  Se  Se241  1  0.07620848  0.25804154  0.19143133  1
  Se  Se242  1  0.09542262  0.23909702  0.69364248  1
  Se  Se243  1  0.07765750  0.59693842  0.20296017  1
  Se  Se244  1  0.08046938  0.57719443  0.69239670  1
  Se  Se245  1  0.09172112  0.92292303  0.19830821  1
  Se  Se246  1  0.07651665  0.91397273  0.70307482  1
  Se  Se247  1  0.41702985  0.23016595  0.18918665  1
  Se  Se248  1  0.42822633  0.24299885  0.69257647  1
  Se  Se249  1  0.42160144  0.58185320  0.19468014  1
  Se  Se250  1  0.41942701  0.57828102  0.69007771  1
  Se  Se251  1  0.42940142  0.90818186  0.18188872  1
  Se  Se252  1  0.41041973  0.92599911  0.70619516  1
  Se  Se253  1  0.73492395  0.25282974  0.20294797  1
  Se  Se254  1  0.76153021  0.25443073  0.70092644  1
  Se  Se255  1  0.74381119  0.58514111  0.20251711  1
  Se  Se256  1  0.74806157  0.58603949  0.68735085  1
  Se  Se257  1  0.77582644  0.89472094  0.20009931  1
  Se  Se258  1  0.75492160  0.91360710  0.68400865  1
