# generated using pymatgen
data_In86Cu29Se144
_symmetry_space_group_name_H-M   'P 1'
_cell_length_a   17.58631724
_cell_length_b   17.58700208
_cell_length_c   23.44551950
_cell_angle_alpha   90.03318785
_cell_angle_beta   89.99801282
_cell_angle_gamma   90.01914032
_symmetry_Int_Tables_number   1
_chemical_formula_structural   In86Cu29Se144
_chemical_formula_sum   'In86 Cu29 Se144'
_cell_volume   7251.47711946
_cell_formula_units_Z   1
loop_
 _symmetry_equiv_pos_site_id
 _symmetry_equiv_pos_as_xyz
  1  'x, y, z'
loop_
 _atom_site_type_symbol
 _atom_site_label
 _atom_site_symmetry_multiplicity
 _atom_site_fract_x
 _atom_site_fract_y
 _atom_site_fract_z
 _atom_site_occupancy
  In  In0  1  0.00661141  0.15728778  0.12662651  1
  In  In1  1  0.00085165  0.15982516  0.62074168  1
  In  In2  1  -0.00098760  0.49449076  0.12194064  1
  In  In3  1  0.00276516  0.49968354  0.62344301  1
  In  In4  1  -0.00205729  0.85041056  0.12504359  1
  In  In5  1  -0.00895455  0.83827745  0.63099027  1
  In  In6  1  0.33488756  0.17006442  0.11591204  1
  In  In7  1  0.33112788  0.16060870  0.62779524  1
  In  In8  1  0.32615784  0.51457868  0.12795225  1
  In  In9  1  0.31425742  0.49497002  0.62497920  1
  In  In10  1  0.32243801  0.82937195  0.12532323  1
  In  In11  1  0.35149268  0.84136908  0.62659994  1
  In  In12  1  0.65563524  0.16570787  0.12032933  1
  In  In13  1  0.66172295  0.16631901  0.62292233  1
  In  In14  1  0.67201875  0.49065681  0.11993656  1
  In  In15  1  0.67940029  0.48756575  0.63297784  1
  In  In16  1  0.68188100  0.83596763  0.11786159  1
  In  In17  1  0.64425103  0.84949564  0.64565529  1
  In  In18  1  0.16099983  0.01590651  0.37925765  1
  In  In19  1  0.18258770  0.01972243  0.85414768  1
  In  In20  1  0.15584156  0.34469068  0.38207392  1
  In  In21  1  0.17870395  0.32184662  0.88028647  1
  In  In22  1  0.16642573  0.64680280  0.37146719  1
  In  In23  1  0.15336604  0.67289416  0.87766912  1
  In  In24  1  0.50393609  -0.00663259  0.38269008  1
  In  In25  1  0.51666059  0.01234938  0.86407807  1
  In  In26  1  0.50120195  0.32506665  0.38318486  1
  In  In27  1  0.48896251  0.32423169  0.86432615  1
  In  In28  1  0.50081951  0.68032900  0.37784671  1
  In  In29  1  0.50084715  0.65496163  0.87181447  1
  In  In30  1  0.84483126  0.01678563  0.36689223  1
  In  In31  1  0.82294793  -0.00884195  0.86653209  1
  In  In32  1  0.85285085  0.30967778  0.39391960  1
  In  In33  1  0.83895413  0.34711788  0.87251767  1
  In  In34  1  0.82524894  0.66653356  0.37953952  1
  In  In35  1  0.83805056  0.66820421  0.87518108  1
  In  In36  1  -0.00033339  0.16887728  0.37560969  1
  In  In37  1  0.01645349  0.16706948  0.86811113  1
  In  In38  1  0.01338594  0.48460868  0.38164037  1
  In  In39  1  -0.00582965  0.50683817  0.88169674  1
  In  In40  1  -0.01070013  0.84629527  0.37674894  1
  In  In41  1  -0.00121738  0.83134446  0.86903343  1
  In  In42  1  0.33278927  0.16870849  0.38676677  1
  In  In43  1  0.33450072  0.17220849  0.87238060  1
  In  In44  1  0.31611011  0.49796015  0.37515575  1
  In  In45  1  0.33903677  0.48734529  0.87635005  1
  In  In46  1  0.34528912  0.83594003  0.37715378  1
  In  In47  1  0.32240835  0.83542173  0.87306871  1
  In  In48  1  0.68498592  0.15172966  0.39004363  1
  In  In49  1  0.65344890  0.15469027  0.86348716  1
  In  In50  1  0.67897807  0.50010758  0.38326831  1
  In  In51  1  0.67549941  0.50906122  0.86500230  1
  In  In52  1  0.65155534  0.84067797  0.38214979  1
  In  In53  1  0.68221380  0.85200673  0.85982376  1
  In  In54  1  0.15493646  -0.00093001  0.12239579  1
  In  In55  1  0.15436113  0.01882422  0.64265245  1
  In  In56  1  0.15844116  0.32436828  0.11968403  1
  In  In57  1  0.16940908  0.32985542  0.62535881  1
  In  In58  1  0.17885600  0.66182199  0.12700476  1
  In  In59  1  0.16294264  0.65036216  0.62553961  1
  In  In60  1  0.50281614  0.01285794  0.12050844  1
  In  In61  1  0.49675534  0.00049219  0.62864715  1
  In  In62  1  0.51080453  0.32649548  0.12080558  1
  In  In63  1  0.51693995  0.31333531  0.63258443  1
  In  In64  1  0.49407683  0.66148552  0.12494350  1
  In  In65  1  0.50180555  0.68293880  0.62773479  1
  In  In66  1  0.83835150  -0.00048073  0.12349251  1
  In  In67  1  0.82715142  0.00375049  0.62779832  1
  In  In68  1  0.83511061  0.34732487  0.12098247  1
  In  In69  1  0.81533104  0.31921677  0.61006763  1
  In  In70  1  0.82970048  0.66421961  0.11692091  1
  In  In71  1  0.83541942  0.65927093  0.62877843  1
  In  In72  1  0.17230746  0.83826341  0.49895538  1
  In  In73  1  0.50136192  0.83406957  -0.00489958  1
  In  In74  1  -0.00058711  0.66947770  0.24878494  1
  In  In75  1  0.32742197  -0.00228307  0.24982325  1
  In  In76  1  0.83205631  0.16637680  -0.00727663  1
  In  In77  1  0.49991328  0.49447471  -0.00058334  1
  In  In78  1  0.15903988  0.83468555  -0.00140263  1
  In  In79  1  0.49794601  0.49598751  0.50557072  1
  In  In80  1  0.32886872  0.33509153  0.25046264  1
  In  In81  1  -0.00047122  0.33285435  0.74461556  1
  In  In82  1  0.32867763  0.66358787  0.74869225  1
  In  In83  1  0.82605942  0.83769299  0.51236505  1
  In  In84  1  0.67205845  0.33156837  0.25109325  1
  In  In85  1  0.66594629  0.67302390  0.25179835  1
  Cu  Cu86  1  0.50443989  0.15969897  0.25190493  1
  Cu  Cu87  1  0.33698162  0.00261862  0.50565030  1
  Cu  Cu88  1  0.32849871  0.33320754  -0.00260729  1
  Cu  Cu89  1  0.00255294  0.33478680  -0.00378716  1
  Cu  Cu90  1  0.00484073  0.33270224  0.50420434  1
  Cu  Cu91  1  0.49426836  0.50626760  0.25283216  1
  Cu  Cu92  1  0.49936059  0.83707141  0.25439041  1
  Cu  Cu93  1  0.16445423  0.83261278  0.74884853  1
  Cu  Cu94  1  0.33280510  0.66411188  0.50652116  1
  Cu  Cu95  1  0.83025197  0.84802915  0.24823560  1
  Cu  Cu96  1  0.83543296  0.82465348  0.74911584  1
  Cu  Cu97  1  0.83594128  0.50134797  0.75048738  1
  Cu  Cu98  1  0.00128956  -0.00010114  -0.00384112  1
  Cu  Cu99  1  0.49726129  0.16683916  0.74529208  1
  Cu  Cu100  1  0.15936822  0.17155808  0.25101792  1
  Cu  Cu101  1  0.83533728  0.16725929  0.25319882  1
  Cu  Cu102  1  0.82936995  0.16635087  0.74171453  1
  Cu  Cu103  1  -0.00370211  0.66468844  0.00024240  1
  Cu  Cu104  1  0.00151975  0.66479586  0.50345411  1
  Cu  Cu105  1  0.66503743  0.33204430  -0.00570312  1
  Cu  Cu106  1  0.66518992  -0.00063596  0.50728968  1
  Cu  Cu107  1  0.67456914  0.66936656  -0.00899536  1
  Cu  Cu108  1  0.16150072  0.83199357  0.24784139  1
  Cu  Cu109  1  0.49861494  0.49607511  0.74750397  1
  Cu  Cu110  1  0.33563832  0.01018557  -0.00840354  1
  Cu  Cu111  1  0.33486025  0.32598106  0.50492482  1
  Cu  Cu112  1  0.84160821  0.49670919  0.25177670  1
  Cu  Cu113  1  0.66731674  0.66668068  0.50529705  1
  Cu  Cu114  1  0.15973691  0.49562403  0.75144549  1
  Se  Se115  1  0.08453284  0.08398042  0.04898956  1
  Se  Se116  1  0.09742513  0.08728724  0.55622928  1
  Se  Se117  1  0.08504602  0.41699610  0.05195398  1
  Se  Se118  1  0.08812097  0.41581489  0.55771894  1
  Se  Se119  1  0.07404029  0.74444951  0.06478684  1
  Se  Se120  1  0.07988437  0.74883701  0.56110220  1
  Se  Se121  1  0.41971072  0.08801832  0.04911628  1
  Se  Se122  1  0.42179508  0.08628834  0.55698590  1
  Se  Se123  1  0.40831557  0.40850852  0.06360411  1
  Se  Se124  1  0.41155947  0.40692743  0.56753078  1
  Se  Se125  1  0.40852102  0.74504724  0.05605262  1
  Se  Se126  1  0.41710837  0.75136178  0.55246596  1
  Se  Se127  1  0.74465625  0.07922566  0.05530684  1
  Se  Se128  1  0.75077540  0.08462066  0.55519832  1
  Se  Se129  1  0.74989775  0.41588520  0.04565178  1
  Se  Se130  1  0.75673129  0.42874295  0.55113589  1
  Se  Se131  1  0.75639140  0.75191540  0.04666744  1
  Se  Se132  1  0.73684890  0.74938400  0.57119275  1
  Se  Se133  1  0.24617560  0.24744302  0.05044782  1
  Se  Se134  1  0.24930208  0.24374220  0.55711371  1
  Se  Se135  1  0.24801761  0.58255735  0.05131350  1
  Se  Se136  1  0.24446796  0.57886117  0.54989647  1
  Se  Se137  1  0.25794012  0.92854275  0.05383916  1
  Se  Se138  1  0.25487647  0.92413790  0.56587631  1
  Se  Se139  1  0.58185316  0.24718343  0.04536761  1
  Se  Se140  1  0.58775756  0.25111854  0.54997036  1
  Se  Se141  1  0.59443051  0.59223671  0.05555738  1
  Se  Se142  1  0.58686943  0.58593375  0.56581323  1
  Se  Se143  1  0.58973412  0.92334563  0.05534583  1
  Se  Se144  1  0.58130673  0.91512644  0.55881488  1
  Se  Se145  1  0.92125747  0.25331183  0.05705165  1
  Se  Se146  1  0.92013798  0.24723491  0.55385606  1
  Se  Se147  1  0.91541487  0.57917317  0.05440834  1
  Se  Se148  1  0.91719811  0.58254480  0.55588328  1
  Se  Se149  1  0.91632298  0.91847020  0.04890475  1
  Se  Se150  1  0.92597871  0.93067970  0.55683487  1
  Se  Se151  1  0.08481553  0.24878542  0.44649821  1
  Se  Se152  1  0.08404173  0.24713131  0.94612340  1
  Se  Se153  1  0.08379611  0.58215379  0.44848128  1
  Se  Se154  1  0.08432224  0.58446998  0.94943961  1
  Se  Se155  1  0.07361350  0.92810742  0.44695817  1
  Se  Se156  1  0.08545236  0.92776243  0.93175866  1
  Se  Se157  1  0.42243665  0.24488724  0.45404817  1
  Se  Se158  1  0.41653437  0.25359738  0.94488196  1
  Se  Se159  1  0.41195445  0.58615556  0.44104538  1
  Se  Se160  1  0.40825712  0.58857690  0.94555054  1
  Se  Se161  1  0.41742937  0.91527181  0.45225748  1
  Se  Se162  1  0.41234050  0.92487310  0.93468139  1
  Se  Se163  1  0.73867450  0.26016735  0.45058265  1
  Se  Se164  1  0.74376393  0.25504393  0.93068210  1
  Se  Se165  1  0.75383912  0.58584836  0.45444634  1
  Se  Se166  1  0.75533809  0.57909705  0.94232162  1
  Se  Se167  1  0.74779364  0.92487078  0.44156656  1
  Se  Se168  1  0.74765444  0.91840315  0.94356766  1
  Se  Se169  1  0.25070732  0.08166795  0.45152390  1
  Se  Se170  1  0.24639312  0.08815999  0.93982403  1
  Se  Se171  1  0.25352433  0.41125723  0.45060714  1
  Se  Se172  1  0.24738024  0.42018702  0.94688607  1
  Se  Se173  1  0.25609175  0.74090900  0.43928879  1
  Se  Se174  1  0.25488056  0.74276858  0.94570919  1
  Se  Se175  1  0.58229137  0.08097839  0.45009949  1
  Se  Se176  1  0.58660313  0.08230832  0.94452131  1
  Se  Se177  1  0.59284641  0.41042735  0.44638653  1
  Se  Se178  1  0.58631374  0.41265068  0.93196569  1
  Se  Se179  1  0.58305692  0.75030633  0.45315912  1
  Se  Se180  1  0.58952121  0.74493321  0.93362299  1
  Se  Se181  1  0.90811368  0.09558343  0.44438351  1
  Se  Se182  1  0.92326203  0.07835609  0.93245510  1
  Se  Se183  1  0.91995415  0.41751971  0.45113789  1
  Se  Se184  1  0.91469638  0.41923369  0.95005435  1
  Se  Se185  1  0.92000140  0.74802367  0.44704842  1
  Se  Se186  1  0.92158697  0.75236497  0.94395162  1
  Se  Se187  1  0.24415853  0.24328791  0.31249236  1
  Se  Se188  1  0.25129369  0.25215194  0.80223615  1
  Se  Se189  1  0.25408182  0.58213564  0.29910903  1
  Se  Se190  1  0.24102592  0.57608309  0.81299867  1
  Se  Se191  1  0.23928551  0.91046990  0.31393036  1
  Se  Se192  1  0.25362712  0.91462446  0.79638392  1
  Se  Se193  1  0.58290497  0.24212658  0.31126499  1
  Se  Se194  1  0.58282965  0.25141105  0.79795896  1
  Se  Se195  1  0.58107939  0.57766755  0.31382933  1
  Se  Se196  1  0.58161845  0.58148805  0.79801913  1
  Se  Se197  1  0.58282981  0.92139718  0.30488237  1
  Se  Se198  1  0.57277181  0.90692987  0.79936930  1
  Se  Se199  1  0.91719669  0.25315527  0.30478801  1
  Se  Se200  1  0.90870920  0.24240780  0.80691656  1
  Se  Se201  1  0.91366522  0.58121888  0.31407022  1
  Se  Se202  1  0.91981540  0.58293175  0.80490561  1
  Se  Se203  1  0.92052301  0.92489925  0.29966310  1
  Se  Se204  1  0.91534051  0.91421973  0.80115132  1
  Se  Se205  1  0.07917605  0.08401392  0.30321941  1
  Se  Se206  1  0.07362846  0.07604448  0.79430327  1
  Se  Se207  1  0.08956803  0.41979431  0.30234777  1
  Se  Se208  1  0.08281778  0.41629485  0.81498806  1
  Se  Se209  1  0.08545606  0.75781032  0.31546037  1
  Se  Se210  1  0.08162212  0.74680491  0.79979138  1
  Se  Se211  1  0.41701975  0.08671207  0.31111626  1
  Se  Se212  1  0.41684977  0.08632305  0.80395987  1
  Se  Se213  1  0.42415070  0.41947564  0.31346679  1
  Se  Se214  1  0.41072359  0.41482583  0.79745641  1
  Se  Se215  1  0.41634916  0.75044433  0.30317620  1
  Se  Se216  1  0.41718876  0.75102829  0.80990412  1
  Se  Se217  1  0.74549229  0.08612733  0.30192293  1
  Se  Se218  1  0.74861376  0.08182972  0.79805468  1
  Se  Se219  1  0.76226970  0.41729900  0.31313764  1
  Se  Se220  1  0.75110677  0.41461676  0.79970357  1
  Se  Se221  1  0.75565087  0.76628363  0.31127946  1
  Se  Se222  1  0.75143232  0.74412296  0.80406018  1
  Se  Se223  1  0.24267226  0.09316109  0.18981945  1
  Se  Se224  1  0.27033549  0.06453406  0.69931918  1
  Se  Se225  1  0.24055458  0.41905079  0.18832370  1
  Se  Se226  1  0.24482410  0.41281854  0.70047636  1
  Se  Se227  1  0.24936074  0.74998156  0.19996257  1
  Se  Se228  1  0.24334673  0.75452806  0.68461638  1
  Se  Se229  1  0.58734214  0.08084110  0.19620994  1
  Se  Se230  1  0.58475988  0.08341446  0.69529660  1
  Se  Se231  1  0.57506010  0.42597321  0.19404425  1
  Se  Se232  1  0.58514590  0.41272831  0.69740599  1
  Se  Se233  1  0.57753481  0.76008800  0.18782032  1
  Se  Se234  1  0.58638094  0.74015949  0.70546528  1
  Se  Se235  1  0.91557945  0.08367075  0.19474257  1
  Se  Se236  1  0.91708196  0.08418454  0.69332056  1
  Se  Se237  1  0.92034525  0.41386825  0.19602249  1
  Se  Se238  1  0.90489352  0.41658466  0.68565879  1
  Se  Se239  1  0.90468044  0.75810853  0.19035970  1
  Se  Se240  1  0.91993321  0.74282614  0.69611658  1
  Se  Se241  1  0.07692011  0.25171015  0.19507104  1
  Se  Se242  1  0.09118226  0.23751755  0.69453587  1
  Se  Se243  1  0.08755725  0.57753848  0.19230808  1
  Se  Se244  1  0.07816598  0.58072721  0.69943665  1
  Se  Se245  1  0.08189641  0.92152744  0.19914990  1
  Se  Se246  1  0.07838534  0.91613781  0.69891625  1
  Se  Se247  1  0.42561473  0.24284672  0.19370742  1
  Se  Se248  1  0.41199531  0.25102665  0.69484707  1
  Se  Se249  1  0.41339051  0.58868292  0.19924250  1
  Se  Se250  1  0.41841785  0.57549261  0.68551871  1
  Se  Se251  1  0.42164147  0.91293068  0.18782654  1
  Se  Se252  1  0.43502674  0.90541336  0.70161896  1
  Se  Se253  1  0.75887317  0.24334523  0.18562473  1
  Se  Se254  1  0.74518928  0.25186987  0.69300532  1
  Se  Se255  1  0.75512513  0.57479675  0.19468484  1
  Se  Se256  1  0.74856595  0.58412656  0.69977823  1
  Se  Se257  1  0.74563026  0.92434399  0.19211491  1
  Se  Se258  1  0.75490322  0.91542315  0.69911665  1
