# generated using pymatgen
data_In86Cu29Se144
_symmetry_space_group_name_H-M   'P 1'
_cell_length_a   17.59967138
_cell_length_b   17.59972712
_cell_length_c   23.46109024
_cell_angle_alpha   89.97364869
_cell_angle_beta   89.97460576
_cell_angle_gamma   89.97899276
_symmetry_Int_Tables_number   1
_chemical_formula_structural   In86Cu29Se144
_chemical_formula_sum   'In86 Cu29 Se144'
_cell_volume   7267.05697556
_cell_formula_units_Z   1
loop_
 _symmetry_equiv_pos_site_id
 _symmetry_equiv_pos_as_xyz
  1  'x, y, z'
loop_
 _atom_site_type_symbol
 _atom_site_label
 _atom_site_symmetry_multiplicity
 _atom_site_fract_x
 _atom_site_fract_y
 _atom_site_fract_z
 _atom_site_occupancy
  In  In0  1  0.00323762  0.17663071  0.12361746  1
  In  In1  1  0.00381306  0.16142583  0.62560744  1
  In  In2  1  0.00071230  0.50853163  0.11951097  1
  In  In3  1  0.01311747  0.48724088  0.63104591  1
  In  In4  1  -0.00569054  0.83952028  0.11937115  1
  In  In5  1  0.00197331  0.83517577  0.62496463  1
  In  In6  1  0.34784783  0.16558910  0.12960355  1
  In  In7  1  0.34401284  0.16803733  0.60813119  1
  In  In8  1  0.34085155  0.49125507  0.13237784  1
  In  In9  1  0.33026655  0.49910511  0.62933556  1
  In  In10  1  0.33774638  0.81243415  0.13213984  1
  In  In11  1  0.32744727  0.82765288  0.62499569  1
  In  In12  1  0.65532968  0.18024127  0.13290541  1
  In  In13  1  0.65855390  0.18339746  0.62865832  1
  In  In14  1  0.65451046  0.49083559  0.11384931  1
  In  In15  1  0.65438191  0.50144395  0.63693104  1
  In  In16  1  0.66905367  0.83412081  0.12020548  1
  In  In17  1  0.65595325  0.81187489  0.62870430  1
  In  In18  1  0.17531581  -0.00059861  0.38836128  1
  In  In19  1  0.16566230  0.01074408  0.86747743  1
  In  In20  1  0.18383906  0.31904861  0.39751111  1
  In  In21  1  0.18100543  0.34703723  0.86197486  1
  In  In22  1  0.17499428  0.66057841  0.38721035  1
  In  In23  1  0.17145212  0.67371921  0.86468481  1
  In  In24  1  0.51688939  0.00088354  0.37155003  1
  In  In25  1  0.50355854  -0.00127040  0.88443211  1
  In  In26  1  0.49951105  0.33792224  0.37701309  1
  In  In27  1  0.49572196  0.33836674  0.87144165  1
  In  In28  1  0.48562934  0.67019348  0.37544731  1
  In  In29  1  0.50415402  0.67086242  0.86983774  1
  In  In30  1  0.81828826  0.00076604  0.37721447  1
  In  In31  1  0.83387536  -0.01185628  0.87391519  1
  In  In32  1  0.82687314  0.33675126  0.36999195  1
  In  In33  1  0.84025920  0.34733675  0.86496135  1
  In  In34  1  0.84441231  0.66622289  0.38002608  1
  In  In35  1  0.82957857  0.66753463  0.87352723  1
  In  In36  1  0.02257115  0.17016006  0.38245049  1
  In  In37  1  0.00888660  0.17424294  0.86096959  1
  In  In38  1  0.00336397  0.50633478  0.38389060  1
  In  In39  1  -0.00246475  0.49877137  0.86537283  1
  In  In40  1  0.00306527  0.83082066  0.38782919  1
  In  In41  1  -0.01051242  0.82329136  0.86393879  1
  In  In42  1  0.32212625  0.18065084  0.38656710  1
  In  In43  1  0.33887287  0.18031285  0.87468595  1
  In  In44  1  0.33748417  0.50047478  0.37910111  1
  In  In45  1  0.37936969  0.52601337  0.82767921  1
  In  In46  1  0.33078192  0.81922103  0.37286254  1
  In  In47  1  0.34673106  0.82204936  0.88118092  1
  In  In48  1  0.66172869  0.16293405  0.37100057  1
  In  In49  1  0.64822539  0.16879385  0.87506886  1
  In  In50  1  0.66896270  0.48448541  0.37370503  1
  In  In51  1  0.66083217  0.50859502  0.86944533  1
  In  In52  1  0.66161164  0.84322979  0.37707547  1
  In  In53  1  0.66853165  0.82998188  0.87739706  1
  In  In54  1  0.16517431  -0.00029270  0.13275218  1
  In  In55  1  0.16759167  -0.01153574  0.61092423  1
  In  In56  1  0.17198531  0.34162015  0.13345439  1
  In  In57  1  0.16345853  0.33483383  0.61776653  1
  In  In58  1  0.18230806  0.66851500  0.12841269  1
  In  In59  1  0.16602956  0.66608602  0.62815620  1
  In  In60  1  0.50950242  0.00888662  0.12178399  1
  In  In61  1  0.48175353  0.00470373  0.62099020  1
  In  In62  1  0.50238768  0.33419274  0.12501208  1
  In  In63  1  0.49672192  0.33319307  0.62850985  1
  In  In64  1  0.48553011  0.65398560  0.10941378  1
  In  In65  1  0.51095883  0.64681034  0.65153348  1
  In  In66  1  0.83379387  -0.01739762  0.12252364  1
  In  In67  1  0.84566546  -0.00103308  0.62574759  1
  In  In68  1  0.81894384  0.32784727  0.11902919  1
  In  In69  1  0.82781621  0.33779556  0.63483701  1
  In  In70  1  0.83241166  0.66448188  0.11022816  1
  In  In71  1  0.82815053  0.67559540  0.63000294  1
  In  In72  1  0.17286067  0.49704438  -0.00138929  1
  In  In73  1  0.83390406  0.50230712  0.50188278  1
  In  In74  1  0.17025240  0.16742060  0.00659348  1
  In  In75  1  0.48976203  0.83271405  0.50386379  1
  In  In76  1  0.66820328  -0.00120834  0.75738300  1
  In  In77  1  0.32870361  -0.00408509  0.74227158  1
  In  In78  1  0.00378501  0.33336950  0.25830190  1
  In  In79  1  -0.00334987  -0.00070312  0.25792440  1
  In  In80  1  0.16956221  0.83247748  0.00037935  1
  In  In81  1  0.33475599  0.00425224  0.25887094  1
  In  In82  1  0.00375692  0.66543979  0.25384566  1
  In  In83  1  0.81988129  0.16131053  -0.00868754  1
  In  In84  1  0.66098713  0.66452508  0.24340045  1
  In  In85  1  0.83226728  0.16414450  0.50368290  1
  Cu  Cu86  1  0.66498712  0.66873887  -0.00683646  1
  Cu  Cu87  1  0.83490693  0.17129701  0.74675492  1
  Cu  Cu88  1  0.66143285  0.66303562  0.51123360  1
  Cu  Cu89  1  0.33857244  0.34442644  0.50397084  1
  Cu  Cu90  1  0.34694563  0.33822367  -0.00124173  1
  Cu  Cu91  1  0.16486857  0.83670062  0.74316438  1
  Cu  Cu92  1  0.15948652  0.49584875  0.74241319  1
  Cu  Cu93  1  0.18017398  0.50051426  0.25961004  1
  Cu  Cu94  1  0.66815508  -0.00317501  0.50008081  1
  Cu  Cu95  1  0.00190304  -0.00270237  0.50384592  1
  Cu  Cu96  1  -0.00583122  -0.00832225  -0.00660677  1
  Cu  Cu97  1  0.49896383  0.83435500  0.25076093  1
  Cu  Cu98  1  0.33620315  0.66088695  0.50645081  1
  Cu  Cu99  1  0.16357885  0.16667531  0.74083962  1
  Cu  Cu100  1  0.00358036  0.67091010  0.50761333  1
  Cu  Cu101  1  0.66074742  0.34366022  -0.00406426  1
  Cu  Cu102  1  0.83760913  0.83684724  0.74914747  1
  Cu  Cu103  1  0.82740640  0.49038876  0.24292042  1
  Cu  Cu104  1  0.66436446  -0.00051115  0.00133387  1
  Cu  Cu105  1  0.65336504  0.33515108  0.50255131  1
  Cu  Cu106  1  0.82580167  0.82988992  0.24762502  1
  Cu  Cu107  1  0.49813722  0.49844963  0.24654759  1
  Cu  Cu108  1  -0.00097174  0.33239702  -0.01295978  1
  Cu  Cu109  1  0.50024688  0.17792365  0.25238122  1
  Cu  Cu110  1  0.83070085  0.16023889  0.24978442  1
  Cu  Cu111  1  0.83084447  0.50981330  0.74994973  1
  Cu  Cu112  1  -0.00292895  0.66613184  -0.00700601  1
  Cu  Cu113  1  0.49381597  0.16945990  0.74840125  1
  Cu  Cu114  1  0.33926298  -0.00090978  0.00462266  1
  Se  Se115  1  0.07135953  0.07066009  0.05711952  1
  Se  Se116  1  0.08445976  0.08500828  0.55222526  1
  Se  Se117  1  0.07670019  0.40389560  0.05671850  1
  Se  Se118  1  0.08053060  0.41882918  0.54962908  1
  Se  Se119  1  0.07729794  0.73795551  0.05978993  1
  Se  Se120  1  0.08964715  0.75466742  0.55757073  1
  Se  Se121  1  0.42021800  0.08808452  0.05423606  1
  Se  Se122  1  0.41477135  0.07470633  0.54062852  1
  Se  Se123  1  0.42373494  0.42250621  0.05633093  1
  Se  Se124  1  0.42070712  0.42363299  0.56047425  1
  Se  Se125  1  0.41691531  0.75808571  0.05077484  1
  Se  Se126  1  0.42163420  0.73252096  0.56894977  1
  Se  Se127  1  0.74257558  0.07885534  0.06455317  1
  Se  Se128  1  0.73955523  0.07846266  0.56586377  1
  Se  Se129  1  0.75261429  0.41872786  0.04881105  1
  Se  Se130  1  0.73980605  0.41374470  0.55969558  1
  Se  Se131  1  0.74811299  0.75175492  0.04880572  1
  Se  Se132  1  0.74758055  0.75121229  0.55460642  1
  Se  Se133  1  0.26137008  0.26286733  0.06024477  1
  Se  Se134  1  0.25296803  0.25555799  0.55027668  1
  Se  Se135  1  0.26287326  0.58534190  0.05919951  1
  Se  Se136  1  0.24848215  0.58170250  0.55950230  1
  Se  Se137  1  0.25619688  0.92292567  0.06444591  1
  Se  Se138  1  0.27484285  0.92415245  0.55327087  1
  Se  Se139  1  0.58663437  0.25488780  0.05309811  1
  Se  Se140  1  0.57323826  0.24734513  0.55344725  1
  Se  Se141  1  0.58309676  0.58277440  0.04655512  1
  Se  Se142  1  0.57746207  0.58358821  0.56413766  1
  Se  Se143  1  0.58116985  0.91570254  0.05438818  1
  Se  Se144  1  0.58715807  0.91936284  0.56316768  1
  Se  Se145  1  0.91884163  0.25218711  0.04833629  1
  Se  Se146  1  0.91503765  0.25744359  0.56358543  1
  Se  Se147  1  0.91719831  0.57825980  0.04607058  1
  Se  Se148  1  0.92156131  0.58846738  0.56509006  1
  Se  Se149  1  0.91039672  0.90927935  0.04519235  1
  Se  Se150  1  0.91529088  0.91374744  0.55292300  1
  Se  Se151  1  0.07117760  0.26491103  0.45564065  1
  Se  Se152  1  0.09014083  0.25567947  0.93668199  1
  Se  Se153  1  0.08384217  0.58473747  0.45429045  1
  Se  Se154  1  0.08308191  0.58800815  0.93736159  1
  Se  Se155  1  0.08811385  0.91438615  0.45217487  1
  Se  Se156  1  0.08168606  0.91872092  0.93476569  1
  Se  Se157  1  0.41792323  0.25793071  0.44840793  1
  Se  Se158  1  0.42523413  0.24858554  0.94705026  1
  Se  Se159  1  0.42121745  0.58335459  0.44952410  1
  Se  Se160  1  0.41566783  0.57771259  0.92687329  1
  Se  Se161  1  0.41623564  0.91917384  0.43132594  1
  Se  Se162  1  0.41738561  0.91490976  0.94908612  1
  Se  Se163  1  0.74174519  0.25771251  0.44477162  1
  Se  Se164  1  0.74107375  0.26294935  0.93419414  1
  Se  Se165  1  0.73939931  0.59054515  0.44148295  1
  Se  Se166  1  0.74834641  0.58338046  0.94206264  1
  Se  Se167  1  0.75092470  0.91120090  0.44973362  1
  Se  Se168  1  0.74778668  0.91896978  0.94597098  1
  Se  Se169  1  0.24934066  0.08923073  0.45351822  1
  Se  Se170  1  0.25780126  0.07729733  0.94362673  1
  Se  Se171  1  0.25158223  0.42740070  0.45226981  1
  Se  Se172  1  0.26489920  0.41439277  0.93839736  1
  Se  Se173  1  0.25640973  0.74947147  0.45331740  1
  Se  Se174  1  0.25638941  0.73518077  0.94695914  1
  Se  Se175  1  0.58835535  0.08269537  0.44690560  1
  Se  Se176  1  0.58153107  0.08696195  0.95192413  1
  Se  Se177  1  0.57929449  0.42452000  0.44787412  1
  Se  Se178  1  0.57912671  0.42300604  0.93858645  1
  Se  Se179  1  0.58688220  0.74343421  0.44411637  1
  Se  Se180  1  0.57930373  0.75417610  0.94523448  1
  Se  Se181  1  0.92341504  0.07642563  0.43963164  1
  Se  Se182  1  0.92652701  0.08417500  0.93504960  1
  Se  Se183  1  0.91791530  0.40663893  0.44192729  1
  Se  Se184  1  0.91778840  0.42230058  0.94115711  1
  Se  Se185  1  0.91506372  0.74905536  0.45316922  1
  Se  Se186  1  0.91450482  0.75227592  0.94267010  1
  Se  Se187  1  0.24611505  0.25574394  0.31128082  1
  Se  Se188  1  0.24613768  0.24020359  0.80202671  1
  Se  Se189  1  0.25689890  0.59019345  0.31116871  1
  Se  Se190  1  0.24007862  0.57186082  0.80359457  1
  Se  Se191  1  0.24086335  0.91036440  0.31005980  1
  Se  Se192  1  0.24567664  0.90785167  0.81127101  1
  Se  Se193  1  0.58622148  0.25722811  0.30733914  1
  Se  Se194  1  0.57810452  0.25161041  0.80147509  1
  Se  Se195  1  0.57746793  0.57743617  0.31022365  1
  Se  Se196  1  0.59270200  0.59867229  0.79784030  1
  Se  Se197  1  0.58832314  0.91537688  0.29816826  1
  Se  Se198  1  0.57173990  0.90999419  0.80935441  1
  Se  Se199  1  0.91282859  0.23418290  0.31318190  1
  Se  Se200  1  0.91854590  0.25602088  0.79949811  1
  Se  Se201  1  0.90663749  0.56849575  0.30510349  1
  Se  Se202  1  0.91694005  0.59097267  0.80281519  1
  Se  Se203  1  0.90636945  0.90342889  0.31253333  1
  Se  Se204  1  0.92071433  0.92374366  0.79896210  1
  Se  Se205  1  0.09700806  0.08480799  0.30940645  1
  Se  Se206  1  0.08215527  0.08095330  0.79415687  1
  Se  Se207  1  0.09159775  0.42537608  0.31622204  1
  Se  Se208  1  0.07842028  0.41149307  0.79905386  1
  Se  Se209  1  0.08942590  0.75241695  0.31624262  1
  Se  Se210  1  0.08283246  0.75130646  0.79772832  1
  Se  Se211  1  0.42420611  0.09721951  0.31566605  1
  Se  Se212  1  0.41938628  0.08272533  0.80847426  1
  Se  Se213  1  0.41709614  0.41942948  0.30633824  1
  Se  Se214  1  0.38720624  0.38393756  0.80384200  1
  Se  Se215  1  0.41474129  0.74805891  0.29835469  1
  Se  Se216  1  0.40836553  0.74479703  0.80233334  1
  Se  Se217  1  0.74520800  0.07904188  0.30217494  1
  Se  Se218  1  0.75813027  0.09512346  0.81346544  1
  Se  Se219  1  0.74427457  0.40930812  0.29656071  1
  Se  Se220  1  0.74729726  0.42399889  0.80177082  1
  Se  Se221  1  0.75216359  0.74732240  0.31069260  1
  Se  Se222  1  0.75263023  0.75714498  0.80416688  1
  Se  Se223  1  0.24505380  0.09390149  0.19513383  1
  Se  Se224  1  0.24594293  0.08878478  0.68067555  1
  Se  Se225  1  0.25678441  0.41398574  0.20409437  1
  Se  Se226  1  0.24424910  0.41137555  0.69233517  1
  Se  Se227  1  0.23714387  0.76050434  0.20127770  1
  Se  Se228  1  0.25048760  0.74831180  0.69819762  1
  Se  Se229  1  0.57958689  0.08861930  0.19950374  1
  Se  Se230  1  0.57509108  0.08394285  0.69232257  1
  Se  Se231  1  0.58571450  0.41798989  0.19476784  1
  Se  Se232  1  0.59037452  0.39928987  0.69871012  1
  Se  Se233  1  0.57108951  0.75282498  0.18455432  1
  Se  Se234  1  0.58498719  0.74664661  0.70986769  1
  Se  Se235  1  0.91282450  0.08729782  0.18723836  1
  Se  Se236  1  0.91693202  0.08483607  0.69683619  1
  Se  Se237  1  0.91732449  0.41572081  0.18664262  1
  Se  Se238  1  0.91318235  0.42297487  0.69816869  1
  Se  Se239  1  0.90893244  0.75053667  0.18976927  1
  Se  Se240  1  0.91980159  0.75307998  0.69522886  1
  Se  Se241  1  0.09356245  0.24123030  0.19739426  1
  Se  Se242  1  0.08105358  0.25350383  0.69042745  1
  Se  Se243  1  0.09563991  0.57152755  0.19494513  1
  Se  Se244  1  0.07753801  0.58760129  0.69663277  1
  Se  Se245  1  0.08324645  0.90476989  0.19585795  1
  Se  Se246  1  0.08648552  0.92340208  0.69023835  1
  Se  Se247  1  0.41640127  0.25798413  0.19776726  1
  Se  Se248  1  0.40831748  0.24341157  0.69035309  1
  Se  Se249  1  0.41879382  0.58748579  0.19496709  1
  Se  Se250  1  0.41196474  0.56782943  0.70762633  1
  Se  Se251  1  0.42014703  0.91853792  0.19082039  1
  Se  Se252  1  0.42698158  0.90402633  0.69290734  1
  Se  Se253  1  0.75292968  0.25064273  0.19836445  1
  Se  Se254  1  0.74411781  0.25308683  0.70124484  1
  Se  Se255  1  0.75455937  0.57708699  0.18406340  1
  Se  Se256  1  0.74614056  0.58875324  0.69536032  1
  Se  Se257  1  0.74583759  0.91549561  0.19526365  1
  Se  Se258  1  0.75096637  0.91198921  0.68900260  1
