# generated using pymatgen
data_In86Cu29Se144
_symmetry_space_group_name_H-M   'P 1'
_cell_length_a   17.57217633
_cell_length_b   17.57149694
_cell_length_c   23.42777122
_cell_angle_alpha   90.00723111
_cell_angle_beta   89.96946904
_cell_angle_gamma   89.99440965
_symmetry_Int_Tables_number   1
_chemical_formula_structural   In86Cu29Se144
_chemical_formula_sum   'In86 Cu29 Se144'
_cell_volume   7233.77874388
_cell_formula_units_Z   1
loop_
 _symmetry_equiv_pos_site_id
 _symmetry_equiv_pos_as_xyz
  1  'x, y, z'
loop_
 _atom_site_type_symbol
 _atom_site_label
 _atom_site_symmetry_multiplicity
 _atom_site_fract_x
 _atom_site_fract_y
 _atom_site_fract_z
 _atom_site_occupancy
  In  In0  1  -0.00032544  0.16048618  0.12239309  1
  In  In1  1  0.01209614  0.17774426  0.62198164  1
  In  In2  1  0.03596146  0.50328790  0.12480187  1
  In  In3  1  -0.00422572  0.48865511  0.62460065  1
  In  In4  1  -0.00474734  0.82578725  0.11994983  1
  In  In5  1  0.00001757  0.83771873  0.62971720  1
  In  In6  1  0.33666722  0.16696813  0.12104758  1
  In  In7  1  0.33279320  0.17744106  0.62071146  1
  In  In8  1  0.33080754  0.49662468  0.13200549  1
  In  In9  1  0.34333508  0.50512324  0.61627032  1
  In  In10  1  0.33370277  0.82826227  0.12440744  1
  In  In11  1  0.32384088  0.82274230  0.62776881  1
  In  In12  1  0.65430557  0.18348067  0.13556580  1
  In  In13  1  0.66325205  0.16573961  0.63351588  1
  In  In14  1  0.65655809  0.50581541  0.13018443  1
  In  In15  1  0.66156789  0.49993508  0.63202658  1
  In  In16  1  0.66450536  0.83518834  0.12079106  1
  In  In17  1  0.66320936  0.83117719  0.63790667  1
  In  In18  1  0.17788618  0.00270520  0.36433568  1
  In  In19  1  0.17278415  -0.00309305  0.89248863  1
  In  In20  1  0.17171667  0.33126001  0.37460126  1
  In  In21  1  0.16108808  0.33532631  0.89049246  1
  In  In22  1  0.15549747  0.65176831  0.34605590  1
  In  In23  1  0.17460377  0.65274322  0.88371575  1
  In  In24  1  0.49546248  -0.00253276  0.36101387  1
  In  In25  1  0.50004614  -0.01277844  0.89759705  1
  In  In26  1  0.50858571  0.34683760  0.36926805  1
  In  In27  1  0.50867188  0.32756016  0.88250170  1
  In  In28  1  0.48977017  0.65463490  0.36337586  1
  In  In29  1  0.49624625  0.66597192  0.88198537  1
  In  In30  1  0.82135145  0.00523708  0.36630296  1
  In  In31  1  0.81945042  -0.00464159  0.87812360  1
  In  In32  1  0.82557461  0.33672346  0.37118864  1
  In  In33  1  0.83417731  0.33733369  0.86305469  1
  In  In34  1  0.83082819  0.66559238  0.36573991  1
  In  In35  1  0.82980276  0.67743478  0.87959735  1
  In  In36  1  0.00733440  0.18544453  0.37172506  1
  In  In37  1  0.00364209  0.17678139  0.87943421  1
  In  In38  1  0.00416726  0.51325577  0.37161291  1
  In  In39  1  0.00738850  0.49609812  0.87655416  1
  In  In40  1  0.02056650  0.82465725  0.36374032  1
  In  In41  1  -0.00080448  0.82842943  0.88947640  1
  In  In42  1  0.32538726  0.16129671  0.36530564  1
  In  In43  1  0.33349537  0.16561917  0.89324583  1
  In  In44  1  0.33294966  0.50136656  0.36932245  1
  In  In45  1  0.32439703  0.50826036  0.88213389  1
  In  In46  1  0.31243851  0.82188135  0.34547257  1
  In  In47  1  0.34823804  0.82009132  0.89787155  1
  In  In48  1  0.66943888  0.16544749  0.35886005  1
  In  In49  1  0.66525429  0.16078863  0.87327624  1
  In  In50  1  0.65287775  0.48980082  0.36624775  1
  In  In51  1  0.65835472  0.48986713  0.86882774  1
  In  In52  1  0.65652899  0.83047639  0.36319191  1
  In  In53  1  0.66041987  0.83414589  0.88306201  1
  In  In54  1  0.18450346  0.00451630  0.11391030  1
  In  In55  1  0.15993253  0.00939505  0.62663003  1
  In  In56  1  0.18263353  0.35787515  0.11218445  1
  In  In57  1  0.16298632  0.33167081  0.62071510  1
  In  In58  1  0.17120673  0.66677503  0.13379876  1
  In  In59  1  0.18541556  0.66819309  0.62809383  1
  In  In60  1  0.49107811  0.00471063  0.11693913  1
  In  In61  1  0.50563171  0.01081685  0.63106869  1
  In  In62  1  0.50003030  0.33320231  0.12307919  1
  In  In63  1  0.49569680  0.34139367  0.62500456  1
  In  In64  1  0.49908583  0.66654289  0.12463380  1
  In  In65  1  0.50934018  0.65780284  0.63445493  1
  In  In66  1  0.83693640  -0.00622378  0.12426146  1
  In  In67  1  0.82156467  -0.00916149  0.62889084  1
  In  In68  1  0.82777198  0.32317687  0.12954204  1
  In  In69  1  0.83126812  0.34891097  0.64313429  1
  In  In70  1  0.82551803  0.67136631  0.12720139  1
  In  In71  1  0.82374440  0.64765678  0.62757504  1
  In  In72  1  -0.00791874  0.65735098  0.75022929  1
  In  In73  1  -0.00510688  0.33566494  0.24747727  1
  In  In74  1  -0.00189760  -0.00450480  0.23648978  1
  In  In75  1  0.83304945  0.49688577  0.50495028  1
  In  In76  1  0.83666917  0.50186046  -0.00330917  1
  In  In77  1  0.49610937  0.17436169  0.49828502  1
  In  In78  1  0.49558945  0.83428360  0.49139176  1
  In  In79  1  0.17630549  0.83013590  0.48760892  1
  In  In80  1  0.33621707  0.33341153  0.75033810  1
  In  In81  1  0.83615391  0.17590917  0.49319426  1
  In  In82  1  0.34243379  -0.00609195  0.75993522  1
  In  In83  1  -0.00321973  0.00606376  0.74880618  1
  In  In84  1  0.83252922  0.16136801  0.00100828  1
  In  In85  1  0.83567738  0.83313717  0.50485336  1
  Cu  Cu86  1  0.17004246  0.17012484  0.75454379  1
  Cu  Cu87  1  0.65974250  0.65288024  0.50177143  1
  Cu  Cu88  1  0.48895260  0.16660420  0.24401890  1
  Cu  Cu89  1  0.33046092  0.65951135  0.00974675  1
  Cu  Cu90  1  0.66508915  -0.00084199  0.00297168  1
  Cu  Cu91  1  0.16990089  0.49694506  0.75722956  1
  Cu  Cu92  1  0.32962228  -0.00008880  0.48844177  1
  Cu  Cu93  1  0.82278587  0.83475133  0.75616198  1
  Cu  Cu94  1  0.16665157  0.17143792  0.24041222  1
  Cu  Cu95  1  0.33678933  0.33828786  0.00508048  1
  Cu  Cu96  1  0.01040350  0.01749436  0.49742907  1
  Cu  Cu97  1  0.66695367  0.33648128  0.00028946  1
  Cu  Cu98  1  0.50073907  0.49473371  0.24558916  1
  Cu  Cu99  1  0.00704238  0.66121797  0.00536009  1
  Cu  Cu100  1  0.17435537  0.82110308  0.76142386  1
  Cu  Cu101  1  0.65899175  0.66968484  0.00441106  1
  Cu  Cu102  1  0.49932881  0.83138440  0.76362215  1
  Cu  Cu103  1  0.32562647  0.33623655  0.49527650  1
  Cu  Cu104  1  0.83255140  0.50270406  0.24382105  1
  Cu  Cu105  1  0.49474404  0.50436628  0.75272883  1
  Cu  Cu106  1  0.83039145  0.83283214  0.24494118  1
  Cu  Cu107  1  0.51203911  0.16071811  0.76015233  1
  Cu  Cu108  1  0.00800090  0.33644572  0.49972150  1
  Cu  Cu109  1  0.00270318  -0.00894893  0.00505489  1
  Cu  Cu110  1  0.34152681  0.65652562  0.49572275  1
  Cu  Cu111  1  0.01421485  0.67125846  0.49174150  1
  Cu  Cu112  1  0.83420392  0.16858589  0.75554994  1
  Cu  Cu113  1  0.66070285  0.00329342  0.49714573  1
  Cu  Cu114  1  0.50929807  0.84111615  0.23618621  1
  Se  Se115  1  0.08248357  0.08006948  0.05426965  1
  Se  Se116  1  0.09419308  0.09585164  0.55207247  1
  Se  Se117  1  0.07310369  0.40771602  0.04824089  1
  Se  Se118  1  0.08734047  0.42377432  0.55307466  1
  Se  Se119  1  0.08918686  0.74530995  0.05847201  1
  Se  Se120  1  0.08404395  0.75184951  0.55959531  1
  Se  Se121  1  0.42576217  0.09978783  0.04813417  1
  Se  Se122  1  0.40816522  0.07294458  0.55572946  1
  Se  Se123  1  0.41802356  0.42296900  0.05848367  1
  Se  Se124  1  0.41500386  0.41151062  0.54916385  1
  Se  Se125  1  0.41843369  0.74788975  0.05327382  1
  Se  Se126  1  0.41420991  0.74296987  0.55783009  1
  Se  Se127  1  0.73943289  0.08265908  0.06540759  1
  Se  Se128  1  0.74586437  0.08071545  0.55495427  1
  Se  Se129  1  0.74633707  0.41482123  0.06081111  1
  Se  Se130  1  0.74315023  0.40634651  0.56172977  1
  Se  Se131  1  0.74931304  0.75024126  0.05252208  1
  Se  Se132  1  0.73786089  0.74135582  0.55995395  1
  Se  Se133  1  0.25044982  0.25237650  0.05444347  1
  Se  Se134  1  0.24736771  0.25041398  0.55073640  1
  Se  Se135  1  0.24526947  0.57779627  0.06158678  1
  Se  Se136  1  0.25015167  0.58388378  0.55175756  1
  Se  Se137  1  0.26407099  0.91498161  0.04864223  1
  Se  Se138  1  0.25487116  0.92385232  0.55836322  1
  Se  Se139  1  0.58473790  0.25113900  0.05246452  1
  Se  Se140  1  0.59002873  0.25485496  0.56074502  1
  Se  Se141  1  0.57973690  0.58009365  0.05402238  1
  Se  Se142  1  0.57719053  0.57411161  0.55777634  1
  Se  Se143  1  0.57831737  0.91580398  0.05287798  1
  Se  Se144  1  0.58562119  0.92088506  0.55926176  1
  Se  Se145  1  0.92138243  0.25726694  0.05565064  1
  Se  Se146  1  0.91822206  0.26558613  0.55990693  1
  Se  Se147  1  0.92321430  0.58381724  0.06496289  1
  Se  Se148  1  0.92985445  0.59615625  0.55485499  1
  Se  Se149  1  0.91130769  0.91080500  0.05217058  1
  Se  Se150  1  0.92907908  0.93464862  0.55728047  1
  Se  Se151  1  0.08959369  0.25089272  0.44785032  1
  Se  Se152  1  0.09515839  0.23276518  0.95268167  1
  Se  Se153  1  0.09650372  0.58968022  0.43726813  1
  Se  Se154  1  0.08400380  0.57505856  0.95010454  1
  Se  Se155  1  0.07854731  0.92588201  0.43740613  1
  Se  Se156  1  0.08873839  0.90638525  0.95457036  1
  Se  Se157  1  0.40706796  0.25656991  0.43375653  1
  Se  Se158  1  0.42067778  0.25428812  0.95281593  1
  Se  Se159  1  0.42448874  0.57397159  0.44233595  1
  Se  Se160  1  0.41453466  0.58130822  0.95102230  1
  Se  Se161  1  0.40222142  0.91541352  0.42840589  1
  Se  Se162  1  0.38758359  0.93624739  0.95894811  1
  Se  Se163  1  0.73358234  0.25621239  0.43902331  1
  Se  Se164  1  0.74853763  0.25795406  0.94051824  1
  Se  Se165  1  0.74759360  0.58433538  0.43949462  1
  Se  Se166  1  0.73754362  0.58843000  0.94237816  1
  Se  Se167  1  0.74312381  0.91752793  0.44138527  1
  Se  Se168  1  0.74911699  0.91325583  0.95229372  1
  Se  Se169  1  0.24439685  0.08637877  0.44137659  1
  Se  Se170  1  0.23843449  0.09432997  0.95679796  1
  Se  Se171  1  0.24727371  0.42318533  0.44086806  1
  Se  Se172  1  0.25038582  0.41982505  0.95173627  1
  Se  Se173  1  0.26240648  0.73596832  0.43177171  1
  Se  Se174  1  0.24652871  0.74196635  0.95374947  1
  Se  Se175  1  0.58156654  0.07999259  0.43614592  1
  Se  Se176  1  0.58666449  0.08723736  0.94884503  1
  Se  Se177  1  0.58772132  0.41539710  0.44663107  1
  Se  Se178  1  0.58250755  0.42179153  0.94938878  1
  Se  Se179  1  0.58837300  0.73844784  0.43835573  1
  Se  Se180  1  0.57440981  0.75391153  0.95110351  1
  Se  Se181  1  0.92368961  0.08091563  0.43343431  1
  Se  Se182  1  0.92397196  0.07013627  0.94005648  1
  Se  Se183  1  0.92520631  0.41242662  0.43801967  1
  Se  Se184  1  0.92193811  0.40316764  0.94168615  1
  Se  Se185  1  0.92607895  0.74945889  0.43695357  1
  Se  Se186  1  0.91684002  0.74173393  0.95486495  1
  Se  Se187  1  0.24665086  0.25202466  0.29957996  1
  Se  Se188  1  0.25126495  0.24629912  0.81585264  1
  Se  Se189  1  0.27899858  0.60496179  0.30040889  1
  Se  Se190  1  0.25271627  0.58516416  0.80379991  1
  Se  Se191  1  0.24009571  0.92138118  0.28736048  1
  Se  Se192  1  0.25021219  0.90720824  0.82016918  1
  Se  Se193  1  0.57178095  0.24572762  0.30213449  1
  Se  Se194  1  0.59005959  0.25484078  0.80715723  1
  Se  Se195  1  0.58472277  0.58280742  0.29699170  1
  Se  Se196  1  0.57713515  0.58567248  0.80919713  1
  Se  Se197  1  0.58894943  0.92419162  0.29502152  1
  Se  Se198  1  0.57636629  0.92105135  0.81615325  1
  Se  Se199  1  0.90251082  0.24036233  0.30434771  1
  Se  Se200  1  0.92421247  0.24847493  0.80374138  1
  Se  Se201  1  0.91631827  0.58311097  0.29992223  1
  Se  Se202  1  0.90438239  0.57463337  0.81593190  1
  Se  Se203  1  0.91310105  0.90896637  0.30841922  1
  Se  Se204  1  0.91507643  0.90886002  0.81133564  1
  Se  Se205  1  0.08247942  0.09264884  0.30058647  1
  Se  Se206  1  0.09335701  0.08284949  0.81157636  1
  Se  Se207  1  0.08765305  0.42247080  0.30646977  1
  Se  Se208  1  0.09099388  0.41114740  0.80977118  1
  Se  Se209  1  0.09117514  0.75566905  0.28467803  1
  Se  Se210  1  0.08108866  0.74639993  0.81418256  1
  Se  Se211  1  0.40785591  0.07927979  0.29680711  1
  Se  Se212  1  0.42520430  0.08859689  0.82010022  1
  Se  Se213  1  0.41507266  0.41470567  0.30054606  1
  Se  Se214  1  0.41990988  0.42112463  0.81503551  1
  Se  Se215  1  0.43344408  0.76370080  0.30135044  1
  Se  Se216  1  0.41095406  0.74998362  0.81264316  1
  Se  Se217  1  0.73768393  0.07090591  0.29252528  1
  Se  Se218  1  0.75219428  0.08099728  0.80445911  1
  Se  Se219  1  0.75130373  0.42014670  0.30020594  1
  Se  Se220  1  0.74396769  0.41342477  0.80011714  1
  Se  Se221  1  0.74718391  0.74986449  0.30000581  1
  Se  Se222  1  0.74148320  0.75179186  0.81042283  1
  Se  Se223  1  0.25124638  0.08586638  0.19187069  1
  Se  Se224  1  0.25329090  0.08896400  0.69651279  1
  Se  Se225  1  0.23768977  0.42339385  0.19971240  1
  Se  Se226  1  0.24789391  0.42285934  0.68931795  1
  Se  Se227  1  0.26893307  0.73800741  0.19812580  1
  Se  Se228  1  0.25965407  0.74247754  0.70664023  1
  Se  Se229  1  0.57373108  0.08421489  0.19091935  1
  Se  Se230  1  0.59184661  0.07620810  0.70513291  1
  Se  Se231  1  0.58666787  0.40902901  0.19578505  1
  Se  Se232  1  0.57418947  0.41664777  0.69876093  1
  Se  Se233  1  0.58844248  0.74758425  0.19119039  1
  Se  Se234  1  0.57964874  0.74924598  0.70421286  1
  Se  Se235  1  0.90210787  0.09582486  0.19370548  1
  Se  Se236  1  0.90858880  0.09414862  0.68409140  1
  Se  Se237  1  0.91458305  0.42877995  0.18154224  1
  Se  Se238  1  0.92759290  0.41999941  0.70574818  1
  Se  Se239  1  0.91552960  0.74941369  0.19446164  1
  Se  Se240  1  0.90313272  0.75710894  0.69202681  1
  Se  Se241  1  0.08619339  0.25233860  0.18364587  1
  Se  Se242  1  0.08942816  0.25255631  0.69826026  1
  Se  Se243  1  0.07817941  0.59326475  0.20312772  1
  Se  Se244  1  0.09335138  0.57761526  0.69083926  1
  Se  Se245  1  0.09315896  0.91359859  0.17892342  1
  Se  Se246  1  0.09861581  0.90751498  0.70064971  1
  Se  Se247  1  0.41111293  0.25606603  0.19201733  1
  Se  Se248  1  0.42946158  0.23511370  0.69600195  1
  Se  Se249  1  0.42011815  0.58164147  0.19453417  1
  Se  Se250  1  0.41067722  0.58277015  0.69616053  1
  Se  Se251  1  0.41610666  0.91940210  0.18986331  1
  Se  Se252  1  0.42652161  0.90535628  0.69081358  1
  Se  Se253  1  0.74645576  0.25466392  0.20362357  1
  Se  Se254  1  0.75087830  0.24843223  0.69815930  1
  Se  Se255  1  0.74514818  0.58646695  0.19558081  1
  Se  Se256  1  0.74310316  0.58143182  0.70204208  1
  Se  Se257  1  0.74921378  0.91657710  0.19172535  1
  Se  Se258  1  0.74042298  0.92166168  0.70463239  1
