# generated using pymatgen
data_In86Cu29Se144
_symmetry_space_group_name_H-M   'P 1'
_cell_length_a   17.58476860
_cell_length_b   17.58346015
_cell_length_c   23.44988206
_cell_angle_alpha   89.97926620
_cell_angle_beta   90.01361879
_cell_angle_gamma   89.98826720
_symmetry_Int_Tables_number   1
_chemical_formula_structural   In86Cu29Se144
_chemical_formula_sum   'In86 Cu29 Se144'
_cell_volume   7250.72797943
_cell_formula_units_Z   1
loop_
 _symmetry_equiv_pos_site_id
 _symmetry_equiv_pos_as_xyz
  1  'x, y, z'
loop_
 _atom_site_type_symbol
 _atom_site_label
 _atom_site_symmetry_multiplicity
 _atom_site_fract_x
 _atom_site_fract_y
 _atom_site_fract_z
 _atom_site_occupancy
  In  In0  1  0.01238896  0.17303488  0.12596933  1
  In  In1  1  0.00070402  0.17015436  0.62601048  1
  In  In2  1  0.00049339  0.49921623  0.12560527  1
  In  In3  1  0.00126291  0.46904645  0.61772627  1
  In  In4  1  -0.00346571  0.82016109  0.12185352  1
  In  In5  1  0.01460855  0.83814988  0.62390532  1
  In  In6  1  0.32780399  0.15361260  0.12562501  1
  In  In7  1  0.31945055  0.18392642  0.64404581  1
  In  In8  1  0.33836711  0.50983995  0.12508890  1
  In  In9  1  0.32871020  0.49649436  0.62269698  1
  In  In10  1  0.32832664  0.83609652  0.12832775  1
  In  In11  1  0.33754975  0.82378395  0.63071964  1
  In  In12  1  0.65952448  0.17698724  0.13092320  1
  In  In13  1  0.67356108  0.17400948  0.62511641  1
  In  In14  1  0.66962935  0.49425937  0.13040779  1
  In  In15  1  0.65359327  0.49717931  0.61989637  1
  In  In16  1  0.66857805  0.83326191  0.13450399  1
  In  In17  1  0.64879533  0.84591024  0.62392070  1
  In  In18  1  0.17370778  -0.00072470  0.37646690  1
  In  In19  1  0.16379753  -0.00727158  0.87255275  1
  In  In20  1  0.15841218  0.34370925  0.38765983  1
  In  In21  1  0.17601748  0.34127737  0.86951632  1
  In  In22  1  0.16765308  0.66381158  0.36715046  1
  In  In23  1  0.17555629  0.65540106  0.88164903  1
  In  In24  1  0.49111211  -0.00774492  0.37004149  1
  In  In25  1  0.50222176  0.01724730  0.87233289  1
  In  In26  1  0.51598794  0.33719454  0.37822077  1
  In  In27  1  0.48573533  0.31629480  0.85578884  1
  In  In28  1  0.49561288  0.66663089  0.37401420  1
  In  In29  1  0.49496681  0.67325466  0.87579150  1
  In  In30  1  0.83573362  0.02102785  0.37490275  1
  In  In31  1  0.84247143  0.00023732  0.87191425  1
  In  In32  1  0.83272169  0.33134202  0.37314173  1
  In  In33  1  0.84442871  0.33981277  0.86470867  1
  In  In34  1  0.83381961  0.66242906  0.36322629  1
  In  In35  1  0.82300817  0.65470497  0.88191388  1
  In  In36  1  -0.00828905  0.17972417  0.39030709  1
  In  In37  1  -0.00277417  0.16838379  0.86537766  1
  In  In38  1  0.00297309  0.49866318  0.36999979  1
  In  In39  1  0.00884828  0.49049554  0.88068058  1
  In  In40  1  0.01184861  0.82655552  0.36974377  1
  In  In41  1  0.00897174  0.84945667  0.88031531  1
  In  In42  1  0.33044842  0.15414724  0.37736497  1
  In  In43  1  0.34895821  0.17418292  0.86092604  1
  In  In44  1  0.32506919  0.51434036  0.38811416  1
  In  In45  1  0.31557950  0.48535507  0.86716729  1
  In  In46  1  0.33834447  0.83788862  0.37061153  1
  In  In47  1  0.32450969  0.82257533  0.86739770  1
  In  In48  1  0.67310327  0.18052321  0.36790508  1
  In  In49  1  0.65099196  0.16828037  0.87316348  1
  In  In50  1  0.66344134  0.49940250  0.37175888  1
  In  In51  1  0.67972918  0.49585065  0.88660404  1
  In  In52  1  0.65849453  0.82574670  0.36472150  1
  In  In53  1  0.66328854  0.82713153  0.87970877  1
  In  In54  1  0.18152585  0.00340033  0.12161728  1
  In  In55  1  0.15447429  0.01297913  0.63397803  1
  In  In56  1  0.15123197  0.32796362  0.12535820  1
  In  In57  1  0.16662355  0.33502516  0.62196755  1
  In  In58  1  0.16681877  0.66301168  0.12460483  1
  In  In59  1  0.18758608  0.66090971  0.62101780  1
  In  In60  1  0.49311214  0.00630067  0.12970292  1
  In  In61  1  0.49377160  -0.01229019  0.61956465  1
  In  In62  1  0.50903360  0.34042510  0.12500367  1
  In  In63  1  0.48783852  0.34037055  0.64094481  1
  In  In64  1  0.49822510  0.66409046  0.13570958  1
  In  In65  1  0.46454262  0.64225721  0.59591470  1
  In  In66  1  0.83107884  -0.01140467  0.12410755  1
  In  In67  1  0.82949772  0.03017276  0.62916095  1
  In  In68  1  0.82784607  0.34343161  0.12895474  1
  In  In69  1  0.85412114  0.30034400  0.65717769  1
  In  In70  1  0.83889962  0.66029702  0.13081098  1
  In  In71  1  0.83375746  0.66058851  0.62043929  1
  In  In72  1  0.66752969  0.00438785  0.75038023  1
  In  In73  1  0.82916607  0.48987414  0.49658402  1
  In  In74  1  -0.00011915  -0.00107795  0.24644789  1
  In  In75  1  0.49968510  0.83159334  -0.00389383  1
  In  In76  1  0.83372435  0.16812193  -0.00950445  1
  In  In77  1  0.82867927  0.83734486  0.49790660  1
  In  In78  1  0.49788094  0.16548265  0.50181138  1
  In  In79  1  0.00917922  0.66393219  0.74818015  1
  In  In80  1  0.83976677  0.82802696  0.00409550  1
  In  In81  1  0.17306397  0.83447963  0.49602177  1
  In  In82  1  0.49508787  0.49485709  0.00238171  1
  In  In83  1  0.17203458  0.16856741  -0.00695096  1
  In  In84  1  0.33670136  0.33579058  0.25240200  1
  In  In85  1  0.65932136  0.66995833  0.75336577  1
  Cu  Cu86  1  0.16402002  0.16762346  0.25215990  1
  Cu  Cu87  1  -0.00557411  0.00718481  0.50666763  1
  Cu  Cu88  1  0.83152459  0.49785071  0.75168934  1
  Cu  Cu89  1  0.32668895  0.66342137  -0.00056322  1
  Cu  Cu90  1  0.32691694  0.00261837  0.50371030  1
  Cu  Cu91  1  0.83748530  0.49685193  0.24951137  1
  Cu  Cu92  1  0.49377680  0.82925964  0.74689904  1
  Cu  Cu93  1  0.16519043  0.49921436  0.25186028  1
  Cu  Cu94  1  0.50064668  0.16300020  0.25351157  1
  Cu  Cu95  1  0.65645650  0.67699641  0.49334330  1
  Cu  Cu96  1  0.49711611  0.83545949  0.24981020  1
  Cu  Cu97  1  0.66419460  0.00416213  -0.00014162  1
  Cu  Cu98  1  0.16656820  0.16703350  0.75077413  1
  Cu  Cu99  1  0.67394561  0.33293571  0.50136136  1
  Cu  Cu100  1  0.66167384  0.33256451  0.00317688  1
  Cu  Cu101  1  0.16774782  0.49696326  0.74585649  1
  Cu  Cu102  1  0.17110305  0.82623206  0.24791200  1
  Cu  Cu103  1  0.33762469  0.33252682  0.50896260  1
  Cu  Cu104  1  0.83178627  0.17319377  0.25111985  1
  Cu  Cu105  1  -0.00398236  0.34127049  -0.00128141  1
  Cu  Cu106  1  0.49473390  0.50680180  0.74533056  1
  Cu  Cu107  1  0.50239972  0.50348163  0.25338433  1
  Cu  Cu108  1  0.66357298  0.00447705  0.49885460  1
  Cu  Cu109  1  0.84146644  0.83939758  0.74937166  1
  Cu  Cu110  1  0.33836221  0.00092336  -0.00022829  1
  Cu  Cu111  1  0.83104360  0.83360411  0.24797384  1
  Cu  Cu112  1  0.00331767  0.66289794  0.00486660  1
  Cu  Cu113  1  0.16882466  0.83715621  0.74948533  1
  Cu  Cu114  1  0.00562159  0.65800041  0.49103754  1
  Se  Se115  1  0.08183299  0.07950161  0.05613790  1
  Se  Se116  1  0.08437783  0.08748244  0.55504587  1
  Se  Se117  1  0.08321663  0.41745318  0.05393460  1
  Se  Se118  1  0.10048857  0.42378785  0.54702686  1
  Se  Se119  1  0.08735128  0.74906203  0.05347857  1
  Se  Se120  1  0.08082604  0.73978881  0.55452077  1
  Se  Se121  1  0.41812769  0.08548596  0.05381779  1
  Se  Se122  1  0.40322744  0.08606914  0.56449082  1
  Se  Se123  1  0.40322028  0.40397791  0.05985343  1
  Se  Se124  1  0.42353717  0.41519468  0.55874486  1
  Se  Se125  1  0.41247177  0.74091455  0.05819088  1
  Se  Se126  1  0.42098283  0.76760755  0.55085260  1
  Se  Se127  1  0.74752120  0.08215009  0.05890670  1
  Se  Se128  1  0.74493460  0.08981870  0.55044781  1
  Se  Se129  1  0.74620499  0.41630842  0.05429921  1
  Se  Se130  1  0.75165929  0.40671817  0.56820611  1
  Se  Se131  1  0.74488502  0.74451158  0.06243382  1
  Se  Se132  1  0.73778534  0.74699331  0.56007081  1
  Se  Se133  1  0.25384134  0.25489649  0.06136056  1
  Se  Se134  1  0.25367389  0.24639556  0.55749495  1
  Se  Se135  1  0.24796912  0.57810951  0.05421812  1
  Se  Se136  1  0.26529242  0.58756254  0.54803646  1
  Se  Se137  1  0.25584385  0.91622179  0.05155811  1
  Se  Se138  1  0.24820944  0.92337359  0.56650673  1
  Se  Se139  1  0.57867892  0.24848813  0.05467307  1
  Se  Se140  1  0.58296401  0.26114676  0.56018011  1
  Se  Se141  1  0.58322399  0.58512069  0.06328076  1
  Se  Se142  1  0.58493778  0.58511837  0.54804589  1
  Se  Se143  1  0.58824365  0.91959818  0.05950719  1
  Se  Se144  1  0.57750561  0.91774368  0.54392301  1
  Se  Se145  1  0.92000956  0.25504979  0.05773754  1
  Se  Se146  1  0.91139465  0.25493250  0.56340360  1
  Se  Se147  1  0.91608277  0.58219902  0.05624028  1
  Se  Se148  1  0.92604651  0.58250373  0.55476323  1
  Se  Se149  1  0.93095566  0.92633095  0.05486731  1
  Se  Se150  1  0.91557016  0.92278351  0.56402642  1
  Se  Se151  1  0.10431341  0.23236341  0.44688284  1
  Se  Se152  1  0.07427632  0.25840730  0.93834519  1
  Se  Se153  1  0.08977285  0.57911398  0.43790027  1
  Se  Se154  1  0.08436326  0.58002156  0.94799013  1
  Se  Se155  1  0.07042818  0.92509499  0.44457663  1
  Se  Se156  1  0.09651365  0.91532421  0.95190580  1
  Se  Se157  1  0.41095680  0.25768965  0.43894271  1
  Se  Se158  1  0.41297818  0.25561357  0.93889086  1
  Se  Se159  1  0.43171247  0.57603236  0.44752821  1
  Se  Se160  1  0.40714475  0.58406492  0.93861670  1
  Se  Se161  1  0.40807695  0.92327924  0.44599257  1
  Se  Se162  1  0.41308438  0.92099556  0.93454824  1
  Se  Se163  1  0.75283259  0.24952939  0.44553967  1
  Se  Se164  1  0.74187106  0.26038196  0.93614385  1
  Se  Se165  1  0.74699136  0.59573506  0.44235357  1
  Se  Se166  1  0.74604396  0.58514336  0.95771210  1
  Se  Se167  1  0.74273900  0.92623033  0.43502612  1
  Se  Se168  1  0.74607656  0.92313625  0.94276318  1
  Se  Se169  1  0.24342534  0.08458394  0.45074811  1
  Se  Se170  1  0.26337703  0.08021570  0.93413011  1
  Se  Se171  1  0.25651998  0.41445535  0.45124337  1
  Se  Se172  1  0.24174433  0.42065515  0.94782644  1
  Se  Se173  1  0.25940026  0.74233006  0.43853049  1
  Se  Se174  1  0.24873178  0.75229171  0.94669861  1
  Se  Se175  1  0.58581095  0.08355336  0.43449480  1
  Se  Se176  1  0.57966899  0.08834387  0.94998422  1
  Se  Se177  1  0.59235504  0.42002791  0.44984187  1
  Se  Se178  1  0.57963698  0.40586040  0.93809618  1
  Se  Se179  1  0.57524274  0.75985070  0.44086065  1
  Se  Se180  1  0.59523219  0.73192146  0.94962398  1
  Se  Se181  1  0.90935202  0.08993759  0.45458606  1
  Se  Se182  1  0.93246927  0.07531771  0.94331817  1
  Se  Se183  1  0.92865423  0.40606074  0.44263091  1
  Se  Se184  1  0.90885806  0.42025882  0.94478848  1
  Se  Se185  1  0.92146771  0.74382509  0.43982768  1
  Se  Se186  1  0.92700438  0.74019432  0.93769403  1
  Se  Se187  1  0.24593983  0.24703243  0.31226528  1
  Se  Se188  1  0.25073659  0.25261922  0.80107192  1
  Se  Se189  1  0.25471092  0.57859667  0.30286906  1
  Se  Se190  1  0.24700256  0.58412295  0.80051655  1
  Se  Se191  1  0.24554952  0.91469027  0.30394816  1
  Se  Se192  1  0.25387454  0.91928332  0.80234662  1
  Se  Se193  1  0.58128491  0.25475851  0.30040739  1
  Se  Se194  1  0.58956401  0.25026214  0.79490718  1
  Se  Se195  1  0.58624084  0.58897342  0.30507640  1
  Se  Se196  1  0.57664532  0.57421024  0.81419454  1
  Se  Se197  1  0.58222692  0.92052295  0.30087132  1
  Se  Se198  1  0.57817503  0.90572730  0.80803481  1
  Se  Se199  1  0.91990755  0.24731585  0.30718649  1
  Se  Se200  1  0.91530359  0.24869023  0.79730073  1
  Se  Se201  1  0.92282030  0.58196390  0.30006085  1
  Se  Se202  1  0.91288424  0.58052595  0.80933603  1
  Se  Se203  1  0.91004683  0.91175879  0.31198351  1
  Se  Se204  1  0.92472386  0.91765592  0.80418924  1
  Se  Se205  1  0.08204400  0.08688372  0.31239319  1
  Se  Se206  1  0.08619733  0.08225566  0.80507544  1
  Se  Se207  1  0.08695927  0.41100046  0.30467409  1
  Se  Se208  1  0.08311618  0.41744717  0.80225169  1
  Se  Se209  1  0.08275137  0.74407327  0.29683524  1
  Se  Se210  1  0.09124213  0.75483108  0.81214410  1
  Se  Se211  1  0.41216398  0.08192897  0.30284199  1
  Se  Se212  1  0.42082291  0.07889456  0.79537813  1
  Se  Se213  1  0.42268611  0.42449237  0.31563217  1
  Se  Se214  1  0.41261216  0.42065665  0.79881181  1
  Se  Se215  1  0.41499444  0.74962128  0.30241798  1
  Se  Se216  1  0.41373528  0.74307851  0.80051433  1
  Se  Se217  1  0.74841135  0.08662743  0.30103312  1
  Se  Se218  1  0.75755712  0.09258411  0.81103067  1
  Se  Se219  1  0.75222254  0.41826620  0.30664742  1
  Se  Se220  1  0.74545596  0.41982970  0.80610908  1
  Se  Se221  1  0.74870163  0.74737708  0.29934086  1
  Se  Se222  1  0.76172398  0.75825322  0.80839234  1
  Se  Se223  1  0.24747600  0.08176169  0.20158488  1
  Se  Se224  1  0.25082793  0.07834155  0.70245414  1
  Se  Se225  1  0.24389015  0.41940585  0.18921832  1
  Se  Se226  1  0.25243299  0.41226574  0.69440081  1
  Se  Se227  1  0.25379849  0.74314367  0.19400812  1
  Se  Se228  1  0.24732596  0.74760244  0.69840657  1
  Se  Se229  1  0.58421027  0.08306907  0.19612865  1
  Se  Se230  1  0.57835141  0.08238915  0.68299693  1
  Se  Se231  1  0.58332548  0.41632750  0.20091770  1
  Se  Se232  1  0.58423561  0.42307616  0.69940831  1
  Se  Se233  1  0.58243826  0.75057808  0.19953063  1
  Se  Se234  1  0.57101979  0.74848124  0.68567122  1
  Se  Se235  1  0.90870636  0.09257465  0.18735742  1
  Se  Se236  1  0.92675410  0.08239856  0.69849228  1
  Se  Se237  1  0.92154093  0.41357652  0.19652443  1
  Se  Se238  1  0.92150433  0.41837765  0.70176063  1
  Se  Se239  1  0.91780116  0.75031894  0.19815087  1
  Se  Se240  1  0.91343355  0.75417190  0.68788483  1
  Se  Se241  1  0.07858313  0.25271844  0.20404676  1
  Se  Se242  1  0.08825640  0.25160359  0.69372966  1
  Se  Se243  1  0.08361222  0.58197533  0.19493180  1
  Se  Se244  1  0.08860024  0.57382880  0.68156173  1
  Se  Se245  1  0.09153815  0.90945772  0.18686411  1
  Se  Se246  1  0.07980511  0.91856454  0.70103943  1
  Se  Se247  1  0.42150037  0.24306765  0.19004383  1
  Se  Se248  1  0.42846983  0.23809733  0.70497268  1
  Se  Se249  1  0.41288652  0.58279379  0.20283955  1
  Se  Se250  1  0.41146045  0.58710306  0.68982406  1
  Se  Se251  1  0.41302129  0.91824205  0.19550691  1
  Se  Se252  1  0.41345710  0.91769865  0.69649228  1
  Se  Se253  1  0.74845303  0.25603179  0.19655329  1
  Se  Se254  1  0.73271090  0.25333015  0.70637600  1
  Se  Se255  1  0.75132467  0.58021290  0.19776626  1
  Se  Se256  1  0.75287551  0.57950910  0.69282569  1
  Se  Se257  1  0.74871211  0.92257448  0.20035744  1
  Se  Se258  1  0.75674830  0.91216709  0.68753446  1
