# generated using pymatgen
data_In86Cu29Se144
_symmetry_space_group_name_H-M   'P 1'
_cell_length_a   17.57948366
_cell_length_b   17.58131912
_cell_length_c   23.44563431
_cell_angle_alpha   89.98511050
_cell_angle_beta   89.98545895
_cell_angle_gamma   89.98839700
_symmetry_Int_Tables_number   1
_chemical_formula_structural   In86Cu29Se144
_chemical_formula_sum   'In86 Cu29 Se144'
_cell_volume   7246.35357740
_cell_formula_units_Z   1
loop_
 _symmetry_equiv_pos_site_id
 _symmetry_equiv_pos_as_xyz
  1  'x, y, z'
loop_
 _atom_site_type_symbol
 _atom_site_label
 _atom_site_symmetry_multiplicity
 _atom_site_fract_x
 _atom_site_fract_y
 _atom_site_fract_z
 _atom_site_occupancy
  In  In0  1  0.01100458  0.17946378  0.11320892  1
  In  In1  1  0.00169941  0.16689720  0.63526885  1
  In  In2  1  -0.00387960  0.49413546  0.12022428  1
  In  In3  1  -0.00529115  0.50217002  0.61782676  1
  In  In4  1  0.00016952  0.84638142  0.12066030  1
  In  In5  1  0.03481088  0.82324386  0.63656077  1
  In  In6  1  0.32886488  0.17386896  0.12673870  1
  In  In7  1  0.33712796  0.17460184  0.64205052  1
  In  In8  1  0.31797612  0.48048700  0.10913609  1
  In  In9  1  0.31873030  0.51212825  0.63350832  1
  In  In10  1  0.34304248  0.84477354  0.12651507  1
  In  In11  1  0.32745062  0.82538795  0.62962972  1
  In  In12  1  0.67156864  0.15940117  0.12320640  1
  In  In13  1  0.66159889  0.16944154  0.64279177  1
  In  In14  1  0.65938572  0.49323815  0.11494045  1
  In  In15  1  0.67456525  0.49772933  0.63024777  1
  In  In16  1  0.67354324  0.83014196  0.12578930  1
  In  In17  1  0.66911692  0.83208089  0.63428151  1
  In  In18  1  0.16638231  -0.01384795  0.38064975  1
  In  In19  1  0.17605523  0.01001471  0.86553797  1
  In  In20  1  0.17131960  0.34718996  0.36246410  1
  In  In21  1  0.16275655  0.33561181  0.87527786  1
  In  In22  1  0.17415228  0.65910248  0.39279051  1
  In  In23  1  0.16197960  0.65536092  0.87101750  1
  In  In24  1  0.49999877  -0.00086973  0.36353329  1
  In  In25  1  0.49697358  0.00738433  0.86106019  1
  In  In26  1  0.49612957  0.33030294  0.36483238  1
  In  In27  1  0.51143592  0.34038348  0.86615230  1
  In  In28  1  0.49979000  0.66866381  0.37843003  1
  In  In29  1  0.48958790  0.65806220  0.86694547  1
  In  In30  1  0.83295233  0.00948678  0.37394547  1
  In  In31  1  0.83430363  0.00127385  0.87696177  1
  In  In32  1  0.84364348  0.34126414  0.36143112  1
  In  In33  1  0.83424736  0.33658537  0.87759166  1
  In  In34  1  0.82399483  0.64602118  0.37925239  1
  In  In35  1  0.82901600  0.67497145  0.88126745  1
  In  In36  1  -0.01005024  0.17193402  0.37345140  1
  In  In37  1  -0.00185216  0.17229422  0.87820171  1
  In  In38  1  0.01099546  0.48934490  0.38849424  1
  In  In39  1  0.00759929  0.49073118  0.88204169  1
  In  In40  1  0.01166837  0.83689675  0.38077877  1
  In  In41  1  -0.01073838  0.82542192  0.87202865  1
  In  In42  1  0.33307179  0.17125950  0.37064835  1
  In  In43  1  0.32541905  0.16136634  0.86731521  1
  In  In44  1  0.33384495  0.49507640  0.37711871  1
  In  In45  1  0.33305259  0.49571150  0.87420495  1
  In  In46  1  0.32323441  0.82935779  0.37635525  1
  In  In47  1  0.33309001  0.84054720  0.86135833  1
  In  In48  1  0.66463350  0.16508650  0.36531897  1
  In  In49  1  0.67221642  0.17963567  0.86634659  1
  In  In50  1  0.67694904  0.49848334  0.37438589  1
  In  In51  1  0.66845492  0.50201696  0.87423244  1
  In  In52  1  0.66275665  0.84049469  0.37642593  1
  In  In53  1  0.67486730  0.84061481  0.86866574  1
  In  In54  1  0.16521565  0.01319616  0.12345027  1
  In  In55  1  0.18435607  -0.02435791  0.64987324  1
  In  In56  1  0.16909835  0.33361918  0.12467357  1
  In  In57  1  0.15957491  0.34385657  0.63280170  1
  In  In58  1  0.17699793  0.65102095  0.12632963  1
  In  In59  1  0.17660646  0.67124021  0.59825636  1
  In  In60  1  0.49584351  0.00038423  0.13398521  1
  In  In61  1  0.49971012  0.00250506  0.63949756  1
  In  In62  1  0.49058553  0.34155480  0.12532569  1
  In  In63  1  0.49916672  0.33661797  0.63864464  1
  In  In64  1  0.50965746  0.66351117  0.12475714  1
  In  In65  1  0.49936965  0.66723537  0.63281493  1
  In  In66  1  0.82587137  -0.00211427  0.11434214  1
  In  In67  1  0.83057462  0.00439722  0.63559755  1
  In  In68  1  0.83110264  0.33238599  0.11944775  1
  In  In69  1  0.82918341  0.34157506  0.63248629  1
  In  In70  1  0.83214528  0.66604293  0.11528255  1
  In  In71  1  0.83635232  0.65301060  0.62484408  1
  In  In72  1  0.00328580  0.01143215  0.24838606  1
  In  In73  1  0.00341303  0.66150690  0.74677606  1
  In  In74  1  0.66287419  0.67125911  0.25285539  1
  In  In75  1  0.15899259  0.82889113  -0.00855255  1
  In  In76  1  0.50047985  0.17012721  -0.00611474  1
  In  In77  1  0.50210189  0.16540465  0.51371364  1
  In  In78  1  0.15958435  0.16919662  0.50696409  1
  In  In79  1  0.33787899  0.66399627  0.25979487  1
  In  In80  1  0.83282309  0.16813271  0.49615197  1
  In  In81  1  0.50228500  0.83048072  -0.00045021  1
  In  In82  1  0.49699857  0.50124731  0.50309285  1
  In  In83  1  0.00322350  0.66241349  0.24716236  1
  In  In84  1  0.84541271  0.82431111  0.51051115  1
  In  In85  1  0.49839496  0.83017565  0.49946577  1
  Cu  Cu86  1  0.32875309  0.00397186  -0.00601303  1
  Cu  Cu87  1  0.32955867  0.33324461  -0.00216119  1
  Cu  Cu88  1  -0.00377744  0.33812476  0.49953290  1
  Cu  Cu89  1  0.83535268  0.17182823  0.75841333  1
  Cu  Cu90  1  0.83478578  0.49780543  0.75317944  1
  Cu  Cu91  1  0.83252465  0.83501477  0.75244405  1
  Cu  Cu92  1  0.17108427  0.49759471  0.75056318  1
  Cu  Cu93  1  0.83165235  0.84025055  0.24636912  1
  Cu  Cu94  1  0.33449424  0.65673438  -0.00602784  1
  Cu  Cu95  1  0.15881285  0.17700781  0.75368202  1
  Cu  Cu96  1  0.49829426  0.82788389  0.75013897  1
  Cu  Cu97  1  0.66658006  0.66457639  -0.00260379  1
  Cu  Cu98  1  0.17263321  0.17006193  0.24575811  1
  Cu  Cu99  1  0.17775660  0.83319952  0.25702117  1
  Cu  Cu100  1  0.82926055  0.49342150  0.24366177  1
  Cu  Cu101  1  0.66895239  0.33628886  -0.00527771  1
  Cu  Cu102  1  0.50365552  0.50087635  0.75094967  1
  Cu  Cu103  1  -0.00477190  0.00405971  -0.00305646  1
  Cu  Cu104  1  0.32994059  0.33583675  0.50059043  1
  Cu  Cu105  1  0.32448086  -0.00566487  0.50688992  1
  Cu  Cu106  1  -0.00140358  0.33393079  -0.00050954  1
  Cu  Cu107  1  0.01230371  -0.00843425  0.51134791  1
  Cu  Cu108  1  0.67570529  0.34092259  0.50208664  1
  Cu  Cu109  1  0.67285021  -0.00005195  -0.00479378  1
  Cu  Cu110  1  0.49304057  0.49420590  0.24339322  1
  Cu  Cu111  1  -0.00008541  0.66231557  -0.00198333  1
  Cu  Cu112  1  0.66676724  0.00003841  0.50165306  1
  Cu  Cu113  1  0.50237130  0.17150319  0.24436226  1
  Cu  Cu114  1  0.83062227  0.16874409  0.24264850  1
  Se  Se115  1  0.08489477  0.08322019  0.04836705  1
  Se  Se116  1  0.08777200  0.07307499  0.57261332  1
  Se  Se117  1  0.08478442  0.41426363  0.05419197  1
  Se  Se118  1  0.08348419  0.41509620  0.55429279  1
  Se  Se119  1  0.07969164  0.73965635  0.06322723  1
  Se  Se120  1  0.05950311  0.73698048  0.55183420  1
  Se  Se121  1  0.41294843  0.07810006  0.05593144  1
  Se  Se122  1  0.40397216  0.07460197  0.56606387  1
  Se  Se123  1  0.42062014  0.41615780  0.04521269  1
  Se  Se124  1  0.41082659  0.41008750  0.56454462  1
  Se  Se125  1  0.40651185  0.74053960  0.05753153  1
  Se  Se126  1  0.41032704  0.73932849  0.55777200  1
  Se  Se127  1  0.75214819  0.08939681  0.04613476  1
  Se  Se128  1  0.74206698  0.08507192  0.56121189  1
  Se  Se129  1  0.75228781  0.41950246  0.04937266  1
  Se  Se130  1  0.75781367  0.42234305  0.55582115  1
  Se  Se131  1  0.74708469  0.75179727  0.05065003  1
  Se  Se132  1  0.74108313  0.74261613  0.56097900  1
  Se  Se133  1  0.24890177  0.24845506  0.05270235  1
  Se  Se134  1  0.25666848  0.25484353  0.56448284  1
  Se  Se135  1  0.24501995  0.57855489  0.04549828  1
  Se  Se136  1  0.25023667  0.56604419  0.54592602  1
  Se  Se137  1  0.25122703  0.91896942  0.05358229  1
  Se  Se138  1  0.24458106  0.91101193  0.56092113  1
  Se  Se139  1  0.58769411  0.25775031  0.05733234  1
  Se  Se140  1  0.59661304  0.26161848  0.56333783  1
  Se  Se141  1  0.57948136  0.58358599  0.04915923  1
  Se  Se142  1  0.58840938  0.58762731  0.56236481  1
  Se  Se143  1  0.58867072  0.92636515  0.05803773  1
  Se  Se144  1  0.58571822  0.92237237  0.56175496  1
  Se  Se145  1  0.91267200  0.24871478  0.04929374  1
  Se  Se146  1  0.92163759  0.25317106  0.55993028  1
  Se  Se147  1  0.91551296  0.57991277  0.05179286  1
  Se  Se148  1  0.92011715  0.59071675  0.54876644  1
  Se  Se149  1  0.91506116  0.91602123  0.04874351  1
  Se  Se150  1  0.92461876  0.92066038  0.57136917  1
  Se  Se151  1  0.07686781  0.25686204  0.43991404  1
  Se  Se152  1  0.08456067  0.25181001  0.94713539  1
  Se  Se153  1  0.07449977  0.58865974  0.45237887  1
  Se  Se154  1  0.08747374  0.58142501  0.94812277  1
  Se  Se155  1  0.09242315  0.90859166  0.45640360  1
  Se  Se156  1  0.07476686  0.92522624  0.93445622  1
  Se  Se157  1  0.41484719  0.25396879  0.44662843  1
  Se  Se158  1  0.40962954  0.25726056  0.93408069  1
  Se  Se159  1  0.40556037  0.59453655  0.44502021  1
  Se  Se160  1  0.42144759  0.57602300  0.94348222  1
  Se  Se161  1  0.41201629  0.92813628  0.44241999  1
  Se  Se162  1  0.41254291  0.92191279  0.93952756  1
  Se  Se163  1  0.74408182  0.25764833  0.43582931  1
  Se  Se164  1  0.75015224  0.24900395  0.94437540  1
  Se  Se165  1  0.73739276  0.58073998  0.45179206  1
  Se  Se166  1  0.75232037  0.58164605  0.94584954  1
  Se  Se167  1  0.75460228  0.92181539  0.44755862  1
  Se  Se168  1  0.75423410  0.91154394  0.94546430  1
  Se  Se169  1  0.25436768  0.08221573  0.44534084  1
  Se  Se170  1  0.24512879  0.08857032  0.94435096  1
  Se  Se171  1  0.24722969  0.41356647  0.44408629  1
  Se  Se172  1  0.24661298  0.41848987  0.94467829  1
  Se  Se173  1  0.25053339  0.75605894  0.45221328  1
  Se  Se174  1  0.25940966  0.74503344  0.93605590  1
  Se  Se175  1  0.58587567  0.08044324  0.44297529  1
  Se  Se176  1  0.58892956  0.07619454  0.93601069  1
  Se  Se177  1  0.58302759  0.40699990  0.44115405  1
  Se  Se178  1  0.58318195  0.41835132  0.94305976  1
  Se  Se179  1  0.59760126  0.74047794  0.44550315  1
  Se  Se180  1  0.58754716  0.74385138  0.93512735  1
  Se  Se181  1  0.93294184  0.06999711  0.44870660  1
  Se  Se182  1  0.91207380  0.08905429  0.94566047  1
  Se  Se183  1  0.90657478  0.41435683  0.44520989  1
  Se  Se184  1  0.91381405  0.41960302  0.94919930  1
  Se  Se185  1  0.91798162  0.74342968  0.43306533  1
  Se  Se186  1  0.91757343  0.75151881  0.95092243  1
  Se  Se187  1  0.25303064  0.25421717  0.30180181  1
  Se  Se188  1  0.24806991  0.25689130  0.80469751  1
  Se  Se189  1  0.23803863  0.57608801  0.31028653  1
  Se  Se190  1  0.25289841  0.58224098  0.80374248  1
  Se  Se191  1  0.25606050  0.92386458  0.30627219  1
  Se  Se192  1  0.23928941  0.91297914  0.79784248  1
  Se  Se193  1  0.58599901  0.25330006  0.29906403  1
  Se  Se194  1  0.56684897  0.23455074  0.80119613  1
  Se  Se195  1  0.57121054  0.57277652  0.30780880  1
  Se  Se196  1  0.58699791  0.58521748  0.80349003  1
  Se  Se197  1  0.59768113  0.92541668  0.30362384  1
  Se  Se198  1  0.58050227  0.91309270  0.80297700  1
  Se  Se199  1  0.91851570  0.24738995  0.29598547  1
  Se  Se200  1  0.91973485  0.25816609  0.80730646  1
  Se  Se201  1  0.90848598  0.57425966  0.30402163  1
  Se  Se202  1  0.91485104  0.57947053  0.81396271  1
  Se  Se203  1  0.91680477  0.91303804  0.30825502  1
  Se  Se204  1  0.91562842  0.91737762  0.80574257  1
  Se  Se205  1  0.09637305  0.09381169  0.31388607  1
  Se  Se206  1  0.07898939  0.08974233  0.80650894  1
  Se  Se207  1  0.06422475  0.41114326  0.30527935  1
  Se  Se208  1  0.08203929  0.41909598  0.80320026  1
  Se  Se209  1  0.09467823  0.75003514  0.31100155  1
  Se  Se210  1  0.09109721  0.75682482  0.80606313  1
  Se  Se211  1  0.41889817  0.09185135  0.30290467  1
  Se  Se212  1  0.39519129  0.06888606  0.79875246  1
  Se  Se213  1  0.41015876  0.41675730  0.30240912  1
  Se  Se214  1  0.41771775  0.41785441  0.80259721  1
  Se  Se215  1  0.42948286  0.76397435  0.30954005  1
  Se  Se216  1  0.41061112  0.74538380  0.79965063  1
  Se  Se217  1  0.75328972  0.08303133  0.30020353  1
  Se  Se218  1  0.75166826  0.08321404  0.80651957  1
  Se  Se219  1  0.74384016  0.41399180  0.29902018  1
  Se  Se220  1  0.74940777  0.41522774  0.80611141  1
  Se  Se221  1  0.76171945  0.75647160  0.31101824  1
  Se  Se222  1  0.75153993  0.74664513  0.80335698  1
  Se  Se223  1  0.25304537  0.08185284  0.19504925  1
  Se  Se224  1  0.24287281  0.09326926  0.70079533  1
  Se  Se225  1  0.25519428  0.41425203  0.19279308  1
  Se  Se226  1  0.25702792  0.41062990  0.70016988  1
  Se  Se227  1  0.24953816  0.75359502  0.19090583  1
  Se  Se228  1  0.23044049  0.74181415  0.68523339  1
  Se  Se229  1  0.58543880  0.08492272  0.19452863  1
  Se  Se230  1  0.59368090  0.07127146  0.70485974  1
  Se  Se231  1  0.58394068  0.41765034  0.19175274  1
  Se  Se232  1  0.59073564  0.41790524  0.69997285  1
  Se  Se233  1  0.57176509  0.76346462  0.19490794  1
  Se  Se234  1  0.58636862  0.74628060  0.70004436  1
  Se  Se235  1  0.91361893  0.09014598  0.18197183  1
  Se  Se236  1  0.91433253  0.08762277  0.70176549  1
  Se  Se237  1  0.91488183  0.41304692  0.19058008  1
  Se  Se238  1  0.92112908  0.42311010  0.69497713  1
  Se  Se239  1  0.91217495  0.75864376  0.18899249  1
  Se  Se240  1  0.91216770  0.75633900  0.68921396  1
  Se  Se241  1  0.08429609  0.24865388  0.19347869  1
  Se  Se242  1  0.07604483  0.26032135  0.69997663  1
  Se  Se243  1  0.09300094  0.56699785  0.19415354  1
  Se  Se244  1  0.09455008  0.57658450  0.68565384  1
  Se  Se245  1  0.09490809  0.91084986  0.19547789  1
  Se  Se246  1  0.06299306  0.93400623  0.70317641  1
  Se  Se247  1  0.41492456  0.25383705  0.19403312  1
  Se  Se248  1  0.44076865  0.23486045  0.70442323  1
  Se  Se249  1  0.41544672  0.57945811  0.18638851  1
  Se  Se250  1  0.41630244  0.58222957  0.69846654  1
  Se  Se251  1  0.41248709  0.92133713  0.20206890  1
  Se  Se252  1  0.41339799  0.90888726  0.69564794  1
  Se  Se253  1  0.74664076  0.25177444  0.19007672  1
  Se  Se254  1  0.75312633  0.25438211  0.70171653  1
  Se  Se255  1  0.74988169  0.58210526  0.18885076  1
  Se  Se256  1  0.75351611  0.58412714  0.70048884  1
  Se  Se257  1  0.75018037  0.92170844  0.19180738  1
  Se  Se258  1  0.74701323  0.91950745  0.70146775  1
