# generated using pymatgen
data_In86Cu29Se144
_symmetry_space_group_name_H-M   'P 1'
_cell_length_a   17.58260100
_cell_length_b   17.57955187
_cell_length_c   23.44771338
_cell_angle_alpha   89.99140499
_cell_angle_beta   89.98909409
_cell_angle_gamma   90.01053255
_symmetry_Int_Tables_number   1
_chemical_formula_structural   In86Cu29Se144
_chemical_formula_sum   'In86 Cu29 Se144'
_cell_volume   7247.55295574
_cell_formula_units_Z   1
loop_
 _symmetry_equiv_pos_site_id
 _symmetry_equiv_pos_as_xyz
  1  'x, y, z'
loop_
 _atom_site_type_symbol
 _atom_site_label
 _atom_site_symmetry_multiplicity
 _atom_site_fract_x
 _atom_site_fract_y
 _atom_site_fract_z
 _atom_site_occupancy
  In  In0  1  0.02046920  0.14695974  0.13562570  1
  In  In1  1  -0.00141590  0.17789026  0.62393823  1
  In  In2  1  -0.00530108  0.50892578  0.12974187  1
  In  In3  1  -0.02638894  0.51216834  0.65044646  1
  In  In4  1  -0.00108400  0.83773801  0.11900567  1
  In  In5  1  -0.01187350  0.84116893  0.62622949  1
  In  In6  1  0.32165646  0.17077083  0.13322476  1
  In  In7  1  0.33910460  0.15105872  0.62679840  1
  In  In8  1  0.32802133  0.50322802  0.13363158  1
  In  In9  1  0.32834198  0.50848568  0.62007225  1
  In  In10  1  0.33791687  0.83033532  0.12772374  1
  In  In11  1  0.34624505  0.83471527  0.62059793  1
  In  In12  1  0.67375899  0.16189174  0.13759268  1
  In  In13  1  0.65257792  0.14960673  0.61082705  1
  In  In14  1  0.66314977  0.50482355  0.13538017  1
  In  In15  1  0.67926513  0.49903405  0.63059370  1
  In  In16  1  0.66468558  0.83552543  0.12588114  1
  In  In17  1  0.66745588  0.83630797  0.62746342  1
  In  In18  1  0.17739067  -0.01342252  0.35324583  1
  In  In19  1  0.17269039  -0.01535338  0.89106532  1
  In  In20  1  0.16775841  0.33297250  0.36539612  1
  In  In21  1  0.15352488  0.33914613  0.88333892  1
  In  In22  1  0.17412246  0.68793060  0.34491220  1
  In  In23  1  0.16554428  0.68372245  0.88179624  1
  In  In24  1  0.49772023  -0.00644506  0.37585710  1
  In  In25  1  0.49134480  -0.00575393  0.86764182  1
  In  In26  1  0.48483757  0.31903679  0.36850515  1
  In  In27  1  0.49605866  0.34562413  0.87507434  1
  In  In28  1  0.51634971  0.68089255  0.36835938  1
  In  In29  1  0.50784499  0.66771607  0.87575263  1
  In  In30  1  0.83059794  0.00373170  0.37382126  1
  In  In31  1  0.82659753  -0.00101529  0.87359336  1
  In  In32  1  0.82740110  0.32578486  0.36908848  1
  In  In33  1  0.84222941  0.31734678  0.87492517  1
  In  In34  1  0.84207604  0.67819570  0.36687321  1
  In  In35  1  0.84784417  0.68030586  0.86234402  1
  In  In36  1  -0.00254801  0.15743861  0.36697345  1
  In  In37  1  0.00090441  0.17190275  0.87818621  1
  In  In38  1  0.00651732  0.51073161  0.36620293  1
  In  In39  1  -0.00621717  0.49634719  0.86897163  1
  In  In40  1  -0.00544029  0.82980589  0.36280873  1
  In  In41  1  0.01281850  0.81862874  0.89650936  1
  In  In42  1  0.33356971  0.15894267  0.37064622  1
  In  In43  1  0.33922898  0.14954714  0.87837345  1
  In  In44  1  0.33076971  0.50024558  0.36689043  1
  In  In45  1  0.33851983  0.50508660  0.87619969  1
  In  In46  1  0.35297805  0.85393567  0.34779165  1
  In  In47  1  0.32277954  0.83955059  0.88952087  1
  In  In48  1  0.66391385  0.16223486  0.37479773  1
  In  In49  1  0.68246295  0.16144331  0.87187333  1
  In  In50  1  0.67404342  0.50389792  0.37157842  1
  In  In51  1  0.65917292  0.51517688  0.86894141  1
  In  In52  1  0.66808505  0.83513317  0.37498322  1
  In  In53  1  0.66770079  0.83445526  0.87411234  1
  In  In54  1  0.16242824  -0.00238242  0.12556011  1
  In  In55  1  0.17304231  0.00956379  0.62683952  1
  In  In56  1  0.17251336  0.32311601  0.12951416  1
  In  In57  1  0.15309706  0.32968376  0.62595103  1
  In  In58  1  0.16046973  0.68926693  0.13056620  1
  In  In59  1  0.16352265  0.65826670  0.62664944  1
  In  In60  1  0.51040376  -0.00989305  0.13336466  1
  In  In61  1  0.50077704  -0.00105492  0.62418813  1
  In  In62  1  0.49924381  0.33156181  0.13784758  1
  In  In63  1  0.51518248  0.32562515  0.62043802  1
  In  In64  1  0.48876094  0.68294949  0.13359175  1
  In  In65  1  0.49830865  0.68322513  0.62533975  1
  In  In66  1  0.85496143  -0.02446671  0.13998243  1
  In  In67  1  0.82251893  -0.01521071  0.61165057  1
  In  In68  1  0.83715052  0.33248842  0.13702164  1
  In  In69  1  0.84005323  0.33279723  0.62281591  1
  In  In70  1  0.82935292  0.67354161  0.12469427  1
  In  In71  1  0.82517507  0.67495313  0.63565130  1
  In  In72  1  0.83338858  0.50841436  -0.00187301  1
  In  In73  1  0.49983580  0.15812532  0.00105299  1
  In  In74  1  0.16515620  0.51422320  0.00671517  1
  In  In75  1  0.84096323  0.15196537  0.00587438  1
  In  In76  1  0.83347404  0.50356881  0.50555919  1
  In  In77  1  0.33313776  0.67377280  0.75364342  1
  In  In78  1  0.15724922  0.49907650  0.49218781  1
  In  In79  1  0.16704130  0.16063744  0.48555672  1
  In  In80  1  -0.00419454  0.00025619  0.75481800  1
  In  In81  1  0.49654370  0.51115293  -0.00249625  1
  In  In82  1  0.67164954  0.33255936  0.74756971  1
  In  In83  1  0.50406923  0.49766573  0.50273256  1
  In  In84  1  0.32716004  0.33443884  0.75830625  1
  In  In85  1  0.17050894  0.83586268  0.49073669  1
  Cu  Cu86  1  -0.00770666  0.33880226  0.50057253  1
  Cu  Cu87  1  0.33069096  -0.00164806  0.00641083  1
  Cu  Cu88  1  0.83256927  0.83127077  0.75142650  1
  Cu  Cu89  1  0.50532194  0.83070643  0.25012356  1
  Cu  Cu90  1  0.83200160  0.16134975  0.74438532  1
  Cu  Cu91  1  0.50496487  0.84021699  0.74746389  1
  Cu  Cu92  1  0.66128170  0.32148128  0.49006021  1
  Cu  Cu93  1  -0.00470900  0.00115728  0.49279308  1
  Cu  Cu94  1  0.83803400  0.50360319  0.24941622  1
  Cu  Cu95  1  0.66155300  0.68063755  0.00198263  1
  Cu  Cu96  1  0.00540746  0.32412350  0.00711031  1
  Cu  Cu97  1  0.50481725  0.49860685  0.25390138  1
  Cu  Cu98  1  0.66529664  -0.00408153  0.49577739  1
  Cu  Cu99  1  0.66620013  0.33421545  0.00981549  1
  Cu  Cu100  1  0.34126381  0.67426690  0.48732688  1
  Cu  Cu101  1  0.82984177  0.17027410  0.25378206  1
  Cu  Cu102  1  -0.00143726  0.67668611  0.49427577  1
  Cu  Cu103  1  0.49760673  0.16016741  0.25285522  1
  Cu  Cu104  1  0.16645060  0.16585817  0.24918790  1
  Cu  Cu105  1  0.66699667  -0.00977504  0.00178388  1
  Cu  Cu106  1  0.50518175  0.16593438  0.74677433  1
  Cu  Cu107  1  0.66954790  0.67852766  0.50326090  1
  Cu  Cu108  1  0.33435643  0.31815302  0.49865300  1
  Cu  Cu109  1  0.16776966  0.16423553  0.75088047  1
  Cu  Cu110  1  0.15566757  0.50063533  0.75260135  1
  Cu  Cu111  1  0.82873692  0.83712280  0.24835379  1
  Cu  Cu112  1  0.33119949  0.33210061  0.00858934  1
  Cu  Cu113  1  0.16831912  0.49633205  0.24406265  1
  Cu  Cu114  1  0.16764267  0.83681395  0.75989440  1
  Se  Se115  1  0.08855713  0.08449082  0.05242730  1
  Se  Se116  1  0.07577879  0.07832356  0.55530575  1
  Se  Se117  1  0.08031171  0.41338041  0.06287236  1
  Se  Se118  1  0.06885776  0.42159611  0.56160079  1
  Se  Se119  1  0.08623914  0.75652948  0.05118173  1
  Se  Se120  1  0.08143814  0.74930250  0.55905769  1
  Se  Se121  1  0.41181486  0.07797354  0.06780588  1
  Se  Se122  1  0.42079372  0.08283348  0.55396898  1
  Se  Se123  1  0.41623623  0.41278181  0.06175451  1
  Se  Se124  1  0.40695089  0.40532296  0.55953242  1
  Se  Se125  1  0.42450630  0.75855270  0.05471256  1
  Se  Se126  1  0.42102474  0.75232558  0.54729993  1
  Se  Se127  1  0.74274022  0.07132324  0.06384410  1
  Se  Se128  1  0.75195390  0.08183424  0.54636257  1
  Se  Se129  1  0.74919091  0.41576415  0.06404448  1
  Se  Se130  1  0.73732187  0.40270677  0.55342676  1
  Se  Se131  1  0.75002805  0.75700925  0.05486550  1
  Se  Se132  1  0.75615652  0.75489670  0.55897439  1
  Se  Se133  1  0.24736664  0.24421203  0.05368780  1
  Se  Se134  1  0.24576150  0.24856385  0.55963210  1
  Se  Se135  1  0.25865428  0.59794542  0.06526273  1
  Se  Se136  1  0.25569120  0.59712633  0.54607937  1
  Se  Se137  1  0.25185300  0.91384552  0.06021352  1
  Se  Se138  1  0.25496481  0.92359272  0.55732179  1
  Se  Se139  1  0.58635545  0.25008458  0.06423302  1
  Se  Se140  1  0.57561001  0.24122515  0.54343355  1
  Se  Se141  1  0.58778018  0.59238377  0.06190038  1
  Se  Se142  1  0.59540983  0.59056419  0.56197780  1
  Se  Se143  1  0.57754755  0.91285473  0.05360058  1
  Se  Se144  1  0.58567185  0.91593489  0.55606053  1
  Se  Se145  1  0.92197347  0.24870636  0.06694248  1
  Se  Se146  1  0.91306871  0.24821389  0.54984735  1
  Se  Se147  1  0.92669447  0.59669620  0.05426542  1
  Se  Se148  1  0.92716806  0.59508077  0.56080505  1
  Se  Se149  1  0.90924385  0.91650093  0.05035382  1
  Se  Se150  1  0.91817191  0.91213405  0.54553255  1
  Se  Se151  1  0.07438400  0.26166629  0.43877380  1
  Se  Se152  1  0.08708299  0.24335278  0.95159957  1
  Se  Se153  1  0.08519985  0.60445216  0.43419879  1
  Se  Se154  1  0.07236495  0.58735573  0.93900467  1
  Se  Se155  1  0.07902419  0.92579208  0.43184887  1
  Se  Se156  1  0.08520732  0.91224641  0.95977725  1
  Se  Se157  1  0.41539217  0.23648541  0.44474658  1
  Se  Se158  1  0.41196304  0.25859412  0.94366746  1
  Se  Se159  1  0.42023654  0.58488447  0.43520507  1
  Se  Se160  1  0.40174898  0.60351404  0.94538542  1
  Se  Se161  1  0.41021504  0.90671949  0.43874706  1
  Se  Se162  1  0.41747286  0.92509189  0.94771204  1
  Se  Se163  1  0.75344415  0.24378095  0.44225350  1
  Se  Se164  1  0.74660161  0.25273701  0.95053727  1
  Se  Se165  1  0.74866178  0.59614132  0.44413598  1
  Se  Se166  1  0.73773326  0.59547148  0.94280148  1
  Se  Se167  1  0.75292639  0.91634436  0.44372265  1
  Se  Se168  1  0.75266648  0.91395827  0.94516376  1
  Se  Se169  1  0.25369324  0.06065167  0.43515714  1
  Se  Se170  1  0.25163088  0.08374856  0.95090374  1
  Se  Se171  1  0.25761354  0.40614346  0.44242652  1
  Se  Se172  1  0.25728963  0.41651353  0.94670953  1
  Se  Se173  1  0.25754514  0.74872830  0.42765572  1
  Se  Se174  1  0.25096495  0.74705306  0.95562263  1
  Se  Se175  1  0.58114927  0.07864981  0.44303832  1
  Se  Se176  1  0.59424108  0.07594014  0.93883400  1
  Se  Se177  1  0.58510285  0.41038732  0.43474513  1
  Se  Se178  1  0.59322344  0.41368433  0.94560756  1
  Se  Se179  1  0.58392116  0.75621298  0.44830774  1
  Se  Se180  1  0.57820182  0.75805165  0.94473470  1
  Se  Se181  1  0.91470293  0.08918327  0.44302041  1
  Se  Se182  1  0.92838558  0.06881327  0.94029278  1
  Se  Se183  1  0.91989301  0.42194930  0.43647287  1
  Se  Se184  1  0.92309959  0.40368267  0.94709226  1
  Se  Se185  1  0.91537447  0.75926107  0.44204270  1
  Se  Se186  1  0.90501567  0.74673793  0.94887642  1
  Se  Se187  1  0.25261826  0.24607732  0.30359617  1
  Se  Se188  1  0.24173412  0.24229040  0.81827577  1
  Se  Se189  1  0.25284171  0.58150233  0.29567979  1
  Se  Se190  1  0.23959139  0.57868490  0.81064737  1
  Se  Se191  1  0.22985438  0.87967479  0.28898128  1
  Se  Se192  1  0.25264603  0.91888103  0.81120610  1
  Se  Se193  1  0.58097541  0.24622870  0.30493384  1
  Se  Se194  1  0.57715287  0.24566061  0.81293711  1
  Se  Se195  1  0.58951480  0.58455333  0.30416565  1
  Se  Se196  1  0.57211128  0.58484502  0.79925618  1
  Se  Se197  1  0.58463696  0.91611122  0.30496865  1
  Se  Se198  1  0.58766267  0.92109004  0.80401839  1
  Se  Se199  1  0.92043146  0.25150758  0.30294722  1
  Se  Se200  1  0.91705930  0.23812311  0.80056431  1
  Se  Se201  1  0.92087030  0.59105825  0.29926123  1
  Se  Se202  1  0.90633486  0.57247083  0.80296867  1
  Se  Se203  1  0.91169509  0.92231674  0.30190709  1
  Se  Se204  1  0.91632350  0.90377762  0.81472014  1
  Se  Se205  1  0.08539680  0.07827148  0.30037324  1
  Se  Se206  1  0.09252580  0.08228821  0.81495553  1
  Se  Se207  1  0.08350500  0.41829715  0.30135186  1
  Se  Se208  1  0.07935991  0.40946262  0.80427422  1
  Se  Se209  1  0.06506876  0.74619821  0.28869962  1
  Se  Se210  1  0.07989980  0.75480449  0.80899987  1
  Se  Se211  1  0.41428456  0.07360836  0.30285881  1
  Se  Se212  1  0.41717543  0.08490584  0.79882461  1
  Se  Se213  1  0.41532066  0.41533952  0.30228571  1
  Se  Se214  1  0.42568798  0.43408362  0.80048819  1
  Se  Se215  1  0.41951794  0.74043333  0.29735832  1
  Se  Se216  1  0.42071192  0.76547480  0.81177075  1
  Se  Se217  1  0.74696418  0.08346291  0.30321671  1
  Se  Se218  1  0.75018219  0.07725989  0.79743022  1
  Se  Se219  1  0.75458440  0.42017429  0.30342491  1
  Se  Se220  1  0.75399665  0.41467844  0.81846631  1
  Se  Se221  1  0.74709389  0.75180069  0.30287306  1
  Se  Se222  1  0.74415431  0.74853291  0.80211588  1
  Se  Se223  1  0.24759313  0.07700469  0.19861183  1
  Se  Se224  1  0.25352187  0.08167275  0.70161894  1
  Se  Se225  1  0.25420161  0.40826102  0.19749354  1
  Se  Se226  1  0.24029526  0.42513336  0.69076523  1
  Se  Se227  1  0.25048197  0.75845009  0.20133974  1
  Se  Se228  1  0.24144389  0.76006149  0.69007238  1
  Se  Se229  1  0.58540350  0.08034875  0.20126103  1
  Se  Se230  1  0.58645219  0.08061369  0.69489820  1
  Se  Se231  1  0.58789869  0.41322875  0.20171099  1
  Se  Se232  1  0.57486435  0.42405812  0.69220232  1
  Se  Se233  1  0.59054951  0.74709028  0.19782818  1
  Se  Se234  1  0.58563548  0.75106035  0.69765800  1
  Se  Se235  1  0.91118171  0.08930380  0.19649839  1
  Se  Se236  1  0.91173035  0.08079009  0.68312770  1
  Se  Se237  1  0.92303490  0.41877331  0.19926674  1
  Se  Se238  1  0.91265739  0.40060745  0.70246113  1
  Se  Se239  1  0.91288958  0.75724346  0.19162926  1
  Se  Se240  1  0.92146024  0.75246675  0.69844932  1
  Se  Se241  1  0.08078449  0.25271755  0.19930809  1
  Se  Se242  1  0.08205841  0.24653847  0.70020995  1
  Se  Se243  1  0.09018524  0.58495079  0.19152176  1
  Se  Se244  1  0.07856413  0.59105150  0.70135958  1
  Se  Se245  1  0.06666384  0.92749021  0.19168716  1
  Se  Se246  1  0.09186156  0.91337768  0.69267626  1
  Se  Se247  1  0.41409608  0.24546361  0.20046095  1
  Se  Se248  1  0.42108859  0.25068595  0.69264798  1
  Se  Se249  1  0.42295746  0.57920480  0.19635190  1
  Se  Se250  1  0.41901795  0.58267921  0.68851687  1
  Se  Se251  1  0.41856517  0.91419850  0.19951335  1
  Se  Se252  1  0.41564725  0.91768356  0.69509953  1
  Se  Se253  1  0.74602384  0.25662320  0.20285338  1
  Se  Se254  1  0.74868040  0.23716197  0.68280043  1
  Se  Se255  1  0.75395542  0.58706767  0.19641321  1
  Se  Se256  1  0.76751896  0.56866200  0.69877150  1
  Se  Se257  1  0.74187964  0.92120488  0.19802080  1
  Se  Se258  1  0.75515294  0.91746611  0.69578550  1
