# generated using pymatgen
data_In86Cu29Se144
_symmetry_space_group_name_H-M   'P 1'
_cell_length_a   17.58077084
_cell_length_b   17.57826651
_cell_length_c   23.44015481
_cell_angle_alpha   90.01657934
_cell_angle_beta   89.94327079
_cell_angle_gamma   89.97683721
_symmetry_Int_Tables_number   1
_chemical_formula_structural   In86Cu29Se144
_chemical_formula_sum   'In86 Cu29 Se144'
_cell_volume   7243.92869727
_cell_formula_units_Z   1
loop_
 _symmetry_equiv_pos_site_id
 _symmetry_equiv_pos_as_xyz
  1  'x, y, z'
loop_
 _atom_site_type_symbol
 _atom_site_label
 _atom_site_symmetry_multiplicity
 _atom_site_fract_x
 _atom_site_fract_y
 _atom_site_fract_z
 _atom_site_occupancy
  In  In0  1  0.00003042  0.16305964  0.14046893  1
  In  In1  1  -0.00931085  0.15402813  0.62476159  1
  In  In2  1  -0.00038435  0.50301308  0.12373182  1
  In  In3  1  -0.00275427  0.51455532  0.62869730  1
  In  In4  1  0.00527801  0.82949947  0.12411071  1
  In  In5  1  0.00032030  0.82848986  0.62824994  1
  In  In6  1  0.34917306  0.16334049  0.12531151  1
  In  In7  1  0.34209460  0.17468531  0.61279412  1
  In  In8  1  0.32592039  0.51365692  0.14455588  1
  In  In9  1  0.33029811  0.48341901  0.62693510  1
  In  In10  1  0.31615726  0.82830051  0.11169573  1
  In  In11  1  0.32993829  0.84528695  0.62405837  1
  In  In12  1  0.65175716  0.16944979  0.12234728  1
  In  In13  1  0.66770716  0.18677510  0.62556475  1
  In  In14  1  0.67462910  0.49333033  0.12424817  1
  In  In15  1  0.66049922  0.50361055  0.61934194  1
  In  In16  1  0.67660239  0.83723005  0.11771976  1
  In  In17  1  0.66378424  0.82512925  0.63256292  1
  In  In18  1  0.16133552  0.00745757  0.37836511  1
  In  In19  1  0.15548404  -0.00476550  0.87697514  1
  In  In20  1  0.16362231  0.33166404  0.37061805  1
  In  In21  1  0.17817919  0.33407909  0.87389144  1
  In  In22  1  0.17278746  0.67460926  0.37183640  1
  In  In23  1  0.14418754  0.68208910  0.89515240  1
  In  In24  1  0.51127883  0.00053153  0.37200460  1
  In  In25  1  0.49741213  0.00344431  0.88923706  1
  In  In26  1  0.49116011  0.34489425  0.37866173  1
  In  In27  1  0.50382702  0.33198205  0.86806523  1
  In  In28  1  0.49716579  0.66909221  0.37304449  1
  In  In29  1  0.51224716  0.66392587  0.87853567  1
  In  In30  1  0.83811017  0.01209509  0.35532277  1
  In  In31  1  0.83593616  -0.01611304  0.87670011  1
  In  In32  1  0.84239803  0.34092310  0.37408394  1
  In  In33  1  0.83614038  0.35190927  0.86660032  1
  In  In34  1  0.83433565  0.64992617  0.37635630  1
  In  In35  1  0.83648334  0.66711200  0.87467186  1
  In  In36  1  0.00375335  0.18050325  0.36516085  1
  In  In37  1  0.01624978  0.16096726  0.87046819  1
  In  In38  1  -0.00793274  0.49523556  0.37124206  1
  In  In39  1  -0.02450990  0.52911895  0.90308464  1
  In  In40  1  0.00831243  0.84358878  0.36831600  1
  In  In41  1  -0.00415414  0.82613818  0.87812699  1
  In  In42  1  0.32708279  0.17532839  0.37950312  1
  In  In43  1  0.33833299  0.18362309  0.87436267  1
  In  In44  1  0.34528922  0.50790601  0.36057789  1
  In  In45  1  0.33298807  0.48652869  0.87477234  1
  In  In46  1  0.32929770  0.81760797  0.37139895  1
  In  In47  1  0.33082153  0.83999341  0.89400242  1
  In  In48  1  0.67089120  0.15170501  0.37466409  1
  In  In49  1  0.65609668  0.16528043  0.87058832  1
  In  In50  1  0.66946359  0.50689605  0.39088430  1
  In  In51  1  0.68953395  0.51439468  0.84958562  1
  In  In52  1  0.65839014  0.84000214  0.37063835  1
  In  In53  1  0.68058986  0.82427617  0.88635807  1
  In  In54  1  0.16410156  -0.01602623  0.12197700  1
  In  In55  1  0.15328845  -0.00515415  0.61631395  1
  In  In56  1  0.15772177  0.34138185  0.13386310  1
  In  In57  1  0.18078698  0.33733243  0.62626723  1
  In  In58  1  0.16419067  0.66471122  0.12326909  1
  In  In59  1  0.14979888  0.66763822  0.62567231  1
  In  In60  1  0.49953353  0.00885955  0.11560368  1
  In  In61  1  0.48968023  0.00050771  0.62066584  1
  In  In62  1  0.50301077  0.32655872  0.12798657  1
  In  In63  1  0.49614127  0.33458819  0.62010416  1
  In  In64  1  0.48240213  0.66402685  0.12863366  1
  In  In65  1  0.51858678  0.66180328  0.62723581  1
  In  In66  1  0.84668881  -0.00905935  0.13685493  1
  In  In67  1  0.84518454  0.01947889  0.63103690  1
  In  In68  1  0.83338405  0.34789425  0.12121934  1
  In  In69  1  0.81432304  0.33874597  0.63556663  1
  In  In70  1  0.85664658  0.68096680  0.10509876  1
  In  In71  1  0.83114206  0.65770332  0.62980829  1
  In  In72  1  0.83242695  0.17189510  0.50080547  1
  In  In73  1  0.33155572  0.66091523  0.75853460  1
  In  In74  1  0.32837587  0.00351600  0.75510345  1
  In  In75  1  0.16687664  0.50090322  0.50123977  1
  In  In76  1  0.67170171  -0.00242753  0.75259979  1
  In  In77  1  0.83124253  0.83204456  0.50284554  1
  In  In78  1  0.67093599  0.66491600  0.25187451  1
  In  In79  1  0.66812452  0.33153859  0.25101620  1
  In  In80  1  0.00225710  0.33448968  0.75189526  1
  In  In81  1  0.49599393  0.82872460  0.49172021  1
  In  In82  1  0.50304882  0.49432913  0.00120267  1
  In  In83  1  0.17734094  0.15950434  0.00165691  1
  In  In84  1  0.82952301  0.16869596  0.00088019  1
  In  In85  1  0.33099114  -0.00391003  0.24107822  1
  Cu  Cu86  1  0.50172992  0.49021356  0.74684280  1
  Cu  Cu87  1  0.16343982  0.82715078  0.24428063  1
  Cu  Cu88  1  0.00121300  0.33281429  0.49508673  1
  Cu  Cu89  1  -0.00125148  0.67075391  0.50282535  1
  Cu  Cu90  1  0.33406214  0.33444323  0.49690273  1
  Cu  Cu91  1  0.00540444  0.00453779  0.49502324  1
  Cu  Cu92  1  0.49925371  0.16614651  0.24861187  1
  Cu  Cu93  1  0.83968122  0.82674323  0.75441183  1
  Cu  Cu94  1  0.50710897  0.82902064  0.75981360  1
  Cu  Cu95  1  0.16031767  0.50168219  0.75688962  1
  Cu  Cu96  1  0.66517830  -0.00216631  0.49542744  1
  Cu  Cu97  1  0.66388850  0.33937070  -0.00505532  1
  Cu  Cu98  1  0.49808569  0.83210867  0.24829172  1
  Cu  Cu99  1  0.66708590  0.66380918  -0.00505476  1
  Cu  Cu100  1  0.32590988  0.00292662  0.49817786  1
  Cu  Cu101  1  0.33383088  0.66606918  0.49694181  1
  Cu  Cu102  1  0.17291544  0.16373714  0.74726131  1
  Cu  Cu103  1  0.33833729  0.33311000  0.00150348  1
  Cu  Cu104  1  0.83800719  0.82905835  0.24172833  1
  Cu  Cu105  1  0.32810342  0.66200850  0.00613375  1
  Cu  Cu106  1  0.16080215  0.50087784  0.25227609  1
  Cu  Cu107  1  0.00388660  0.33795921  0.00348924  1
  Cu  Cu108  1  -0.00321785  -0.00862664  0.00204581  1
  Cu  Cu109  1  0.65935542  0.33470468  0.50382730  1
  Cu  Cu110  1  0.50082274  0.17506091  0.74264256  1
  Cu  Cu111  1  0.15773306  0.82473606  0.75155565  1
  Cu  Cu112  1  0.66759896  0.00072954  0.00063628  1
  Cu  Cu113  1  0.16619839  0.16733507  0.25488827  1
  Cu  Cu114  1  0.84050186  0.50441931  0.24562069  1
  Se  Se115  1  0.07296392  0.08019168  0.05924103  1
  Se  Se116  1  0.08201910  0.09210187  0.55058431  1
  Se  Se117  1  0.08794101  0.41914254  0.05640175  1
  Se  Se118  1  0.07568873  0.41236408  0.56222883  1
  Se  Se119  1  0.08767662  0.75065767  0.05403438  1
  Se  Se120  1  0.08304529  0.75581569  0.55244110  1
  Se  Se121  1  0.41476855  0.08764891  0.04685669  1
  Se  Se122  1  0.41793891  0.08153633  0.54686369  1
  Se  Se123  1  0.41008788  0.41614208  0.06619895  1
  Se  Se124  1  0.41446937  0.41988591  0.55041912  1
  Se  Se125  1  0.41525017  0.74719881  0.05332652  1
  Se  Se126  1  0.41144646  0.74529984  0.56266427  1
  Se  Se127  1  0.74781856  0.07699515  0.06461073  1
  Se  Se128  1  0.74157301  0.07689201  0.55940960  1
  Se  Se129  1  0.75016275  0.41982946  0.04692358  1
  Se  Se130  1  0.74828010  0.41408082  0.55522336  1
  Se  Se131  1  0.75022158  0.74877909  0.04780810  1
  Se  Se132  1  0.73935887  0.74218826  0.55862128  1
  Se  Se133  1  0.25537946  0.25701968  0.06389173  1
  Se  Se134  1  0.24750969  0.25387793  0.54980252  1
  Se  Se135  1  0.25211253  0.57444518  0.06073542  1
  Se  Se136  1  0.25591375  0.59097792  0.56404788  1
  Se  Se137  1  0.25497621  0.93075587  0.04717798  1
  Se  Se138  1  0.24663139  0.91622045  0.55146390  1
  Se  Se139  1  0.58194461  0.25698047  0.04957739  1
  Se  Se140  1  0.57702484  0.24573629  0.55162398  1
  Se  Se141  1  0.58850181  0.59031931  0.06196033  1
  Se  Se142  1  0.57271690  0.57858611  0.54854125  1
  Se  Se143  1  0.58432819  0.91742602  0.05428477  1
  Se  Se144  1  0.58812405  0.91619440  0.55746968  1
  Se  Se145  1  0.92692101  0.25130966  0.06148896  1
  Se  Se146  1  0.92029405  0.26175522  0.56241211  1
  Se  Se147  1  0.90786849  0.56591422  0.05004539  1
  Se  Se148  1  0.91582078  0.58615287  0.55389570  1
  Se  Se149  1  0.91391043  0.91219196  0.05826950  1
  Se  Se150  1  0.92140082  0.92947103  0.55745914  1
  Se  Se151  1  0.08384466  0.24998360  0.44290273  1
  Se  Se152  1  0.08281104  0.25377317  0.94527355  1
  Se  Se153  1  0.07779991  0.58977634  0.44025496  1
  Se  Se154  1  0.10169597  0.56345038  0.95093971  1
  Se  Se155  1  0.08629599  0.91489261  0.44595078  1
  Se  Se156  1  0.08126920  0.91083551  0.94738904  1
  Se  Se157  1  0.41953032  0.24978635  0.44587481  1
  Se  Se158  1  0.42440608  0.25678913  0.94540503  1
  Se  Se159  1  0.41406029  0.58537952  0.44085416  1
  Se  Se160  1  0.40948965  0.58670989  0.94202354  1
  Se  Se161  1  0.40540104  0.92355896  0.43444174  1
  Se  Se162  1  0.42349166  0.91526977  0.95591832  1
  Se  Se163  1  0.74008751  0.25915893  0.43910596  1
  Se  Se164  1  0.74525653  0.25716868  0.93581733  1
  Se  Se165  1  0.75989900  0.58285874  0.45510664  1
  Se  Se166  1  0.74613696  0.58007892  0.93895609  1
  Se  Se167  1  0.75117273  0.92560045  0.43570547  1
  Se  Se168  1  0.75558452  0.91637311  0.95338714  1
  Se  Se169  1  0.24489314  0.08932479  0.44597962  1
  Se  Se170  1  0.26123853  0.07726338  0.93230256  1
  Se  Se171  1  0.25609905  0.41808349  0.43655386  1
  Se  Se172  1  0.25188998  0.41370386  0.94995632  1
  Se  Se173  1  0.24781488  0.75143474  0.44945395  1
  Se  Se174  1  0.24681939  0.75112718  0.95580058  1
  Se  Se175  1  0.58029768  0.08415490  0.44741259  1
  Se  Se176  1  0.58729864  0.08948745  0.94992868  1
  Se  Se177  1  0.57928245  0.41914702  0.44879178  1
  Se  Se178  1  0.59381039  0.42329895  0.93031346  1
  Se  Se179  1  0.59717235  0.74059134  0.44186977  1
  Se  Se180  1  0.58097607  0.75234245  0.94994658  1
  Se  Se181  1  0.91922071  0.08171592  0.43752097  1
  Se  Se182  1  0.92561847  0.07988752  0.94168481  1
  Se  Se183  1  0.91630798  0.42056480  0.44911631  1
  Se  Se184  1  0.91146847  0.41079172  0.95054422  1
  Se  Se185  1  0.92256028  0.74944522  0.43800866  1
  Se  Se186  1  0.91436282  0.74596905  0.94777065  1
  Se  Se187  1  0.25229532  0.25141764  0.30316969  1
  Se  Se188  1  0.25207346  0.25032814  0.80011048  1
  Se  Se189  1  0.24703827  0.58626786  0.30220908  1
  Se  Se190  1  0.23773685  0.58120922  0.82054152  1
  Se  Se191  1  0.24292621  0.90995494  0.30626976  1
  Se  Se192  1  0.24363264  0.90213336  0.80971410  1
  Se  Se193  1  0.57741222  0.24385604  0.31274362  1
  Se  Se194  1  0.58832075  0.25225043  0.79674003  1
  Se  Se195  1  0.58340008  0.57343278  0.31110704  1
  Se  Se196  1  0.57539989  0.58214659  0.80009050  1
  Se  Se197  1  0.58229056  0.91842892  0.29655741  1
  Se  Se198  1  0.58229503  0.91463842  0.81830997  1
  Se  Se199  1  0.89590147  0.24075444  0.30608842  1
  Se  Se200  1  0.91576628  0.24168459  0.81321504  1
  Se  Se201  1  0.92180147  0.58775029  0.30080436  1
  Se  Se202  1  0.91277177  0.57244158  0.81032843  1
  Se  Se203  1  0.91821184  0.91458958  0.29808494  1
  Se  Se204  1  0.92211501  0.91334235  0.80465124  1
  Se  Se205  1  0.08144037  0.08198414  0.30417243  1
  Se  Se206  1  0.09145508  0.07761698  0.79841055  1
  Se  Se207  1  0.07843628  0.41473519  0.30443919  1
  Se  Se208  1  0.08193212  0.42258230  0.81890236  1
  Se  Se209  1  0.08172693  0.74787505  0.30302032  1
  Se  Se210  1  0.07817968  0.74185019  0.80730251  1
  Se  Se211  1  0.41627556  0.08459627  0.30760346  1
  Se  Se212  1  0.42852320  0.09145460  0.80724747  1
  Se  Se213  1  0.41312025  0.40697569  0.29861595  1
  Se  Se214  1  0.41484529  0.41247212  0.80127444  1
  Se  Se215  1  0.41647145  0.74664271  0.29978050  1
  Se  Se216  1  0.41698463  0.75753872  0.81742874  1
  Se  Se217  1  0.73655935  0.07841798  0.29451102  1
  Se  Se218  1  0.76084416  0.08569758  0.81307823  1
  Se  Se219  1  0.75423514  0.43144926  0.30786851  1
  Se  Se220  1  0.73842940  0.39841034  0.79333407  1
  Se  Se221  1  0.76111883  0.75763304  0.31170864  1
  Se  Se222  1  0.74898051  0.75027067  0.80601422  1
  Se  Se223  1  0.23925099  0.09090779  0.18610746  1
  Se  Se224  1  0.24914540  0.08514953  0.68232387  1
  Se  Se225  1  0.24737994  0.41540149  0.20320600  1
  Se  Se226  1  0.24620939  0.41930251  0.70468185  1
  Se  Se227  1  0.25130478  0.74867678  0.19138641  1
  Se  Se228  1  0.24706415  0.75308786  0.69216063  1
  Se  Se229  1  0.57833947  0.08190060  0.19336776  1
  Se  Se230  1  0.57867854  0.08419985  0.68848696  1
  Se  Se231  1  0.57837899  0.42580221  0.19394861  1
  Se  Se232  1  0.58352913  0.41205500  0.68854253  1
  Se  Se233  1  0.58201889  0.75268219  0.18848209  1
  Se  Se234  1  0.58569334  0.74522972  0.70460132  1
  Se  Se235  1  0.91047932  0.08667324  0.20452050  1
  Se  Se236  1  0.93127436  0.07809841  0.70723505  1
  Se  Se237  1  0.92015541  0.41502331  0.19482444  1
  Se  Se238  1  0.91041900  0.42592362  0.69462308  1
  Se  Se239  1  0.92145938  0.74347006  0.19238970  1
  Se  Se240  1  0.91695975  0.74438395  0.69427746  1
  Se  Se241  1  0.08203553  0.25273094  0.20290489  1
  Se  Se242  1  0.09058492  0.24457209  0.68763499  1
  Se  Se243  1  0.08168069  0.58357886  0.19470519  1
  Se  Se244  1  0.08153395  0.58650386  0.70214155  1
  Se  Se245  1  0.08050837  0.91656788  0.19706846  1
  Se  Se246  1  0.08492804  0.91381055  0.69428005  1
  Se  Se247  1  0.41580350  0.25167467  0.19877644  1
  Se  Se248  1  0.41122064  0.25284814  0.69095165  1
  Se  Se249  1  0.42669798  0.58010334  0.20699813  1
  Se  Se250  1  0.41877585  0.57668027  0.69119459  1
  Se  Se251  1  0.42052370  0.90686565  0.18199672  1
  Se  Se252  1  0.42642754  0.90909411  0.69973797  1
  Se  Se253  1  0.75328411  0.24778436  0.18400987  1
  Se  Se254  1  0.77656386  0.21948154  0.69270619  1
  Se  Se255  1  0.76216894  0.58573398  0.18500196  1
  Se  Se256  1  0.73481167  0.58649389  0.69286625  1
  Se  Se257  1  0.74754706  0.91244221  0.19655468  1
  Se  Se258  1  0.76477737  0.90973622  0.68991992  1
