# generated using pymatgen
data_In86Cu29Se144
_symmetry_space_group_name_H-M   'P 1'
_cell_length_a   17.59507237
_cell_length_b   17.58415481
_cell_length_c   23.45209404
_cell_angle_alpha   89.96095663
_cell_angle_beta   90.02247834
_cell_angle_gamma   89.99002825
_symmetry_Int_Tables_number   1
_chemical_formula_structural   In86Cu29Se144
_chemical_formula_sum   'In86 Cu29 Se144'
_cell_volume   7255.94600353
_cell_formula_units_Z   1
loop_
 _symmetry_equiv_pos_site_id
 _symmetry_equiv_pos_as_xyz
  1  'x, y, z'
loop_
 _atom_site_type_symbol
 _atom_site_label
 _atom_site_symmetry_multiplicity
 _atom_site_fract_x
 _atom_site_fract_y
 _atom_site_fract_z
 _atom_site_occupancy
  In  In0  1  0.00592881  0.16318016  0.13336648  1
  In  In1  1  0.00696713  0.15540596  0.63611805  1
  In  In2  1  -0.01113550  0.49163109  0.12322049  1
  In  In3  1  -0.00504100  0.50301043  0.62563687  1
  In  In4  1  0.00983691  0.85983919  0.12622450  1
  In  In5  1  0.01421482  0.82834533  0.62747887  1
  In  In6  1  0.33505373  0.16507278  0.11780191  1
  In  In7  1  0.33207007  0.16922081  0.62032791  1
  In  In8  1  0.33439190  0.48085590  0.12370687  1
  In  In9  1  0.34922572  0.49081347  0.64469874  1
  In  In10  1  0.33964883  0.83523321  0.12523798  1
  In  In11  1  0.32068374  0.84801028  0.63523092  1
  In  In12  1  0.65639243  0.17654567  0.13380064  1
  In  In13  1  0.66634955  0.18382256  0.62440336  1
  In  In14  1  0.66104075  0.50126257  0.12875208  1
  In  In15  1  0.66337198  0.47455756  0.62551187  1
  In  In16  1  0.65351838  0.84395500  0.13532626  1
  In  In17  1  0.66610260  0.83064130  0.62273133  1
  In  In18  1  0.17539319  0.00297650  0.37555199  1
  In  In19  1  0.18331240  0.01635577  0.87269448  1
  In  In20  1  0.16560171  0.32530517  0.37390099  1
  In  In21  1  0.16359434  0.32288752  0.86928513  1
  In  In22  1  0.17981627  0.67386654  0.38092328  1
  In  In23  1  0.16686350  0.66758516  0.86256660  1
  In  In24  1  0.50834739  0.01243390  0.36489902  1
  In  In25  1  0.46342899  0.02732196  0.90661114  1
  In  In26  1  0.48424336  0.31535134  0.36321518  1
  In  In27  1  0.49863436  0.33614033  0.87232421  1
  In  In28  1  0.50426722  0.65499855  0.37182588  1
  In  In29  1  0.49111555  0.67315904  0.88326467  1
  In  In30  1  0.84460998  0.02145368  0.35191979  1
  In  In31  1  0.83993902  0.00034687  0.87397810  1
  In  In32  1  0.84183534  0.33655248  0.36789324  1
  In  In33  1  0.84076889  0.33147860  0.86482688  1
  In  In34  1  0.82483469  0.66556606  0.37662721  1
  In  In35  1  0.83329845  0.65847551  0.87026248  1
  In  In36  1  0.00897389  0.17765467  0.36979293  1
  In  In37  1  0.02189932  0.18401530  0.86334319  1
  In  In38  1  0.00093316  0.48027262  0.37851142  1
  In  In39  1  -0.00460980  0.49432347  0.86423583  1
  In  In40  1  0.01263713  0.84964055  0.37202187  1
  In  In41  1  0.01188704  0.84560172  0.86361356  1
  In  In42  1  0.33728018  0.16953931  0.37784986  1
  In  In43  1  0.32972043  0.17044286  0.87495208  1
  In  In44  1  0.34282293  0.49545824  0.37523782  1
  In  In45  1  0.34489505  0.50550070  0.86146777  1
  In  In46  1  0.31639952  0.84171313  0.38127991  1
  In  In47  1  0.34029142  0.84357365  0.87378275  1
  In  In48  1  0.65867804  0.16104532  0.36277583  1
  In  In49  1  0.65232367  0.16758450  0.87674672  1
  In  In50  1  0.67047073  0.50099340  0.37107777  1
  In  In51  1  0.66488519  0.48576646  0.87294745  1
  In  In52  1  0.67159502  0.83713523  0.36486462  1
  In  In53  1  0.65403215  0.82497123  0.87755888  1
  In  In54  1  0.15882786  0.00683337  0.13604327  1
  In  In55  1  0.16947856  0.00499759  0.62187120  1
  In  In56  1  0.17892367  0.32098791  0.13011716  1
  In  In57  1  0.18065421  0.31475898  0.62905228  1
  In  In58  1  0.16706447  0.67666836  0.12356688  1
  In  In59  1  0.16402233  0.66818626  0.63063495  1
  In  In60  1  0.48865293  0.00258038  0.12212882  1
  In  In61  1  0.48326578  0.00117656  0.62702100  1
  In  In62  1  0.49911931  0.32980653  0.11998302  1
  In  In63  1  0.50495841  0.33024254  0.63192589  1
  In  In64  1  0.50590528  0.67221323  0.11931040  1
  In  In65  1  0.49787624  0.65120921  0.63248408  1
  In  In66  1  0.82942255  0.01557092  0.14370341  1
  In  In67  1  0.84342321  0.01940747  0.62405147  1
  In  In68  1  0.83805290  0.31947479  0.14050583  1
  In  In69  1  0.82222319  0.33469721  0.63073483  1
  In  In70  1  0.82904698  0.65315533  0.12545532  1
  In  In71  1  0.84838138  0.66589071  0.62211559  1
  In  In72  1  0.50153685  0.49276466  0.50779907  1
  In  In73  1  0.83607480  0.17328433  0.49330992  1
  In  In74  1  0.16743654  0.48957159  -0.00192250  1
  In  In75  1  0.16869944  0.49550204  0.50369464  1
  In  In76  1  0.83107120  0.16635559  0.00856103  1
  In  In77  1  0.82780190  0.48905295  -0.00929352  1
  In  In78  1  0.17177301  0.84070689  0.00201285  1
  In  In79  1  0.82940177  0.83396067  0.00323092  1
  In  In80  1  0.83933242  0.84247527  0.48598613  1
  In  In81  1  0.33782844  0.66970256  0.24797961  1
  In  In82  1  0.66322298  -0.00128034  0.75588085  1
  In  In83  1  0.66682754  0.66788792  0.75168117  1
  In  In84  1  0.49718574  0.83363378  0.50181240  1
  In  In85  1  -0.00248251  0.66622660  0.24757547  1
  Cu  Cu86  1  0.17324359  0.16873719  0.25281643  1
  Cu  Cu87  1  0.82932988  0.49535704  0.24922522  1
  Cu  Cu88  1  -0.00116065  0.66986097  -0.01047657  1
  Cu  Cu89  1  0.83488980  0.50222229  0.74723063  1
  Cu  Cu90  1  0.66227134  0.33414523  0.49821402  1
  Cu  Cu91  1  0.66117791  0.00819805  0.48887262  1
  Cu  Cu92  1  0.50542369  0.49160207  0.24819983  1
  Cu  Cu93  1  0.84377609  0.84217591  0.74546869  1
  Cu  Cu94  1  0.01036583  0.00059109  0.50071644  1
  Cu  Cu95  1  0.33155159  0.00717857  0.50086217  1
  Cu  Cu96  1  0.65517109  -0.00710100  0.00601158  1
  Cu  Cu97  1  -0.00152705  0.32870461  0.50048040  1
  Cu  Cu98  1  0.65351955  0.66545886  0.00584387  1
  Cu  Cu99  1  0.33427618  0.66006108  -0.00417772  1
  Cu  Cu100  1  0.00361388  0.01204665  0.00410331  1
  Cu  Cu101  1  0.67582368  0.66323877  0.49346358  1
  Cu  Cu102  1  0.66582965  0.33302202  0.00201991  1
  Cu  Cu103  1  0.48954060  0.83751327  0.75881402  1
  Cu  Cu104  1  0.32940299  0.66907523  0.51065690  1
  Cu  Cu105  1  0.17359602  0.16319761  0.74742967  1
  Cu  Cu106  1  0.16368215  0.49259613  0.25017176  1
  Cu  Cu107  1  0.83339139  0.82527099  0.24984213  1
  Cu  Cu108  1  0.16519247  0.83577880  0.74838314  1
  Cu  Cu109  1  0.00320009  0.66450499  0.50478000  1
  Cu  Cu110  1  0.49010244  0.16591657  0.24367298  1
  Cu  Cu111  1  0.49709212  0.83315907  0.24622524  1
  Cu  Cu112  1  0.49667353  0.16588867  0.75547814  1
  Cu  Cu113  1  0.16257582  0.49414513  0.74624508  1
  Cu  Cu114  1  0.33882222  0.32988513  -0.00367766  1
  Se  Se115  1  0.08867346  0.08893758  0.05932832  1
  Se  Se116  1  0.08416073  0.09025664  0.55535020  1
  Se  Se117  1  0.07997317  0.40585963  0.06239947  1
  Se  Se118  1  0.07942692  0.40579206  0.56319636  1
  Se  Se119  1  0.06875991  0.75005690  0.05544769  1
  Se  Se120  1  0.08910546  0.74747015  0.55380054  1
  Se  Se121  1  0.42196313  0.08936695  0.04766731  1
  Se  Se122  1  0.42021458  0.08649232  0.55169812  1
  Se  Se123  1  0.41970537  0.41606805  0.04883838  1
  Se  Se124  1  0.40550243  0.40603231  0.56146794  1
  Se  Se125  1  0.40902462  0.74452366  0.05540829  1
  Se  Se126  1  0.41377279  0.74706721  0.56905116  1
  Se  Se127  1  0.73824509  0.07342578  0.06390888  1
  Se  Se128  1  0.74230030  0.08290258  0.55373213  1
  Se  Se129  1  0.75046659  0.40586937  0.06419414  1
  Se  Se130  1  0.75124384  0.41228712  0.55072193  1
  Se  Se131  1  0.73947496  0.74354317  0.06295158  1
  Se  Se132  1  0.75219843  0.75031927  0.55157083  1
  Se  Se133  1  0.25117105  0.25122449  0.04945556  1
  Se  Se134  1  0.24511715  0.24228088  0.54842820  1
  Se  Se135  1  0.25329807  0.58641752  0.06000407  1
  Se  Se136  1  0.25931596  0.57875905  0.56842218  1
  Se  Se137  1  0.25500150  0.93003545  0.06374871  1
  Se  Se138  1  0.25193765  0.91862193  0.55322561  1
  Se  Se139  1  0.58405101  0.24534085  0.05228530  1
  Se  Se140  1  0.57888185  0.25355700  0.55312749  1
  Se  Se141  1  0.57672288  0.57328414  0.05504009  1
  Se  Se142  1  0.59675727  0.58987520  0.55974963  1
  Se  Se143  1  0.57295118  0.90964112  0.05791314  1
  Se  Se144  1  0.59136971  0.92799962  0.55652001  1
  Se  Se145  1  0.92582224  0.25636760  0.06219192  1
  Se  Se146  1  0.92047732  0.25117043  0.56471462  1
  Se  Se147  1  0.92059359  0.58754386  0.04826648  1
  Se  Se148  1  0.91565708  0.57872452  0.54879449  1
  Se  Se149  1  0.91471161  0.93474056  0.05923591  1
  Se  Se150  1  0.92305436  0.92331411  0.55782627  1
  Se  Se151  1  0.08483488  0.24922212  0.44826089  1
  Se  Se152  1  0.08978399  0.24832131  0.94653788  1
  Se  Se153  1  0.08054946  0.58600490  0.43919955  1
  Se  Se154  1  0.07972842  0.58524319  0.93613978  1
  Se  Se155  1  0.09348311  0.91770283  0.44778007  1
  Se  Se156  1  0.07966602  0.92935469  0.94234671  1
  Se  Se157  1  0.42028585  0.25120880  0.44749142  1
  Se  Se158  1  0.42239629  0.24829171  0.94191940  1
  Se  Se159  1  0.41063806  0.59249681  0.44886582  1
  Se  Se160  1  0.41551467  0.57442238  0.94479109  1
  Se  Se161  1  0.41513357  0.92769545  0.44042739  1
  Se  Se162  1  0.41677584  0.90473580  0.95470010  1
  Se  Se163  1  0.73915671  0.25553541  0.43435490  1
  Se  Se164  1  0.74841752  0.25619393  0.94091000  1
  Se  Se165  1  0.75522653  0.57327211  0.44568628  1
  Se  Se166  1  0.73671044  0.59259283  0.94237162  1
  Se  Se167  1  0.74849897  0.93587393  0.43068261  1
  Se  Se168  1  0.73954781  0.92375447  0.94165054  1
  Se  Se169  1  0.24911293  0.09008939  0.44665536  1
  Se  Se170  1  0.25985639  0.08362502  0.94934230  1
  Se  Se171  1  0.25871004  0.40979143  0.44198456  1
  Se  Se172  1  0.26001399  0.41104837  0.93411531  1
  Se  Se173  1  0.25050004  0.75401429  0.45649524  1
  Se  Se174  1  0.25045909  0.74123865  0.94048085  1
  Se  Se175  1  0.57687065  0.09427772  0.44187339  1
  Se  Se176  1  0.58381125  0.08650850  0.95302514  1
  Se  Se177  1  0.58098305  0.41128081  0.43565249  1
  Se  Se178  1  0.58298681  0.41440432  0.94666392  1
  Se  Se179  1  0.59115222  0.74534105  0.43965947  1
  Se  Se180  1  0.57541715  0.75350473  0.95316892  1
  Se  Se181  1  0.92565211  0.07602287  0.43959163  1
  Se  Se182  1  0.92209260  0.08656988  0.94194205  1
  Se  Se183  1  0.91221837  0.41064690  0.44934134  1
  Se  Se184  1  0.92984074  0.40353491  0.94156402  1
  Se  Se185  1  0.93142216  0.74350870  0.43597032  1
  Se  Se186  1  0.91915455  0.75375970  0.93376399  1
  Se  Se187  1  0.25658905  0.25298934  0.30564172  1
  Se  Se188  1  0.25430749  0.25060065  0.79975561  1
  Se  Se189  1  0.24418542  0.57622809  0.30777824  1
  Se  Se190  1  0.24660727  0.57897895  0.79848650  1
  Se  Se191  1  0.24926285  0.91640244  0.30353529  1
  Se  Se192  1  0.24697556  0.91491751  0.80687345  1
  Se  Se193  1  0.57863435  0.24843318  0.29500361  1
  Se  Se194  1  0.58329378  0.25160450  0.80276788  1
  Se  Se195  1  0.58506987  0.58020020  0.29995659  1
  Se  Se196  1  0.57936041  0.58368462  0.81470325  1
  Se  Se197  1  0.58124754  0.91561712  0.30083108  1
  Se  Se198  1  0.56944437  0.91808299  0.81776608  1
  Se  Se199  1  0.90137159  0.23075407  0.30690579  1
  Se  Se200  1  0.91773056  0.24319693  0.80011614  1
  Se  Se201  1  0.91329688  0.57371312  0.31055590  1
  Se  Se202  1  0.91833013  0.58718919  0.79873201  1
  Se  Se203  1  0.91619071  0.90985842  0.30215133  1
  Se  Se204  1  0.92193912  0.92721558  0.80026545  1
  Se  Se205  1  0.08976985  0.08612957  0.30739510  1
  Se  Se206  1  0.08917095  0.08059923  0.80192924  1
  Se  Se207  1  0.08211140  0.40944366  0.30441168  1
  Se  Se208  1  0.08167880  0.41036423  0.80144384  1
  Se  Se209  1  0.09146637  0.74950715  0.30821418  1
  Se  Se210  1  0.07886826  0.74899051  0.79756936  1
  Se  Se211  1  0.41038000  0.08448185  0.30254651  1
  Se  Se212  1  0.41627274  0.08073464  0.80983709  1
  Se  Se213  1  0.41383279  0.41652780  0.29993313  1
  Se  Se214  1  0.41253669  0.40623583  0.79894887  1
  Se  Se215  1  0.42181022  0.75802289  0.31566270  1
  Se  Se216  1  0.41042043  0.74622662  0.80773585  1
  Se  Se217  1  0.73357158  0.07314972  0.29425536  1
  Se  Se218  1  0.75286993  0.09181115  0.81217068  1
  Se  Se219  1  0.74716478  0.41213007  0.30306440  1
  Se  Se220  1  0.75372893  0.41835164  0.80190657  1
  Se  Se221  1  0.74918122  0.74262218  0.30165624  1
  Se  Se222  1  0.75992109  0.76510183  0.80686113  1
  Se  Se223  1  0.25426538  0.08938788  0.19411209  1
  Se  Se224  1  0.25638710  0.08153917  0.69184090  1
  Se  Se225  1  0.25231824  0.41298387  0.19937252  1
  Se  Se226  1  0.24896491  0.40968549  0.69792443  1
  Se  Se227  1  0.24119892  0.76121764  0.19590525  1
  Se  Se228  1  0.24959670  0.74959889  0.69851439  1
  Se  Se229  1  0.57459569  0.08082307  0.19247667  1
  Se  Se230  1  0.57701192  0.08776271  0.69099678  1
  Se  Se231  1  0.58492703  0.40745146  0.19245717  1
  Se  Se232  1  0.56400203  0.43413496  0.69774793  1
  Se  Se233  1  0.58044612  0.74438479  0.19830583  1
  Se  Se234  1  0.57257154  0.76330724  0.69547256  1
  Se  Se235  1  0.92899237  0.08093598  0.20537316  1
  Se  Se236  1  0.91073188  0.08909147  0.70392234  1
  Se  Se237  1  0.91966011  0.41463727  0.20093643  1
  Se  Se238  1  0.91476262  0.41657715  0.69327470  1
  Se  Se239  1  0.91317350  0.75696379  0.18169808  1
  Se  Se240  1  0.91984971  0.75233163  0.69270745  1
  Se  Se241  1  0.08686760  0.25162014  0.20005654  1
  Se  Se242  1  0.08601301  0.24888089  0.69879765  1
  Se  Se243  1  0.09025117  0.57476476  0.18698927  1
  Se  Se244  1  0.08003229  0.58142005  0.69514496  1
  Se  Se245  1  0.08868882  0.91530448  0.20606557  1
  Se  Se246  1  0.08601165  0.92229018  0.69293490  1
  Se  Se247  1  0.41145473  0.25251611  0.18912288  1
  Se  Se248  1  0.41699411  0.24434201  0.69404837  1
  Se  Se249  1  0.42212849  0.57409949  0.18905709  1
  Se  Se250  1  0.41416486  0.59132497  0.70836882  1
  Se  Se251  1  0.41320630  0.91877992  0.19744543  1
  Se  Se252  1  0.41131110  0.92313299  0.70318207  1
  Se  Se253  1  0.75375790  0.23630430  0.20301316  1
  Se  Se254  1  0.74592506  0.24927439  0.70013701  1
  Se  Se255  1  0.74703969  0.58156165  0.19842601  1
  Se  Se256  1  0.75253069  0.58048100  0.68580121  1
  Se  Se257  1  0.75150941  0.91334600  0.19906735  1
  Se  Se258  1  0.75619432  0.91569563  0.68673095  1
