# generated using pymatgen
data_In86Cu29Se144
_symmetry_space_group_name_H-M   'P 1'
_cell_length_a   17.57945593
_cell_length_b   17.58056655
_cell_length_c   23.43011839
_cell_angle_alpha   89.99983706
_cell_angle_beta   89.98620956
_cell_angle_gamma   90.01308114
_symmetry_Int_Tables_number   1
_chemical_formula_structural   In86Cu29Se144
_chemical_formula_sum   'In86 Cu29 Se144'
_cell_volume   7241.23689368
_cell_formula_units_Z   1
loop_
 _symmetry_equiv_pos_site_id
 _symmetry_equiv_pos_as_xyz
  1  'x, y, z'
loop_
 _atom_site_type_symbol
 _atom_site_label
 _atom_site_symmetry_multiplicity
 _atom_site_fract_x
 _atom_site_fract_y
 _atom_site_fract_z
 _atom_site_occupancy
  In  In0  1  0.00329008  0.17939680  0.12954302  1
  In  In1  1  -0.00758363  0.16399908  0.61977829  1
  In  In2  1  -0.01728576  0.50039288  0.12624848  1
  In  In3  1  0.00021123  0.50511554  0.61907688  1
  In  In4  1  0.00769550  0.83324806  0.12392242  1
  In  In5  1  -0.00427599  0.83087100  0.62783050  1
  In  In6  1  0.32525029  0.16137971  0.13197667  1
  In  In7  1  0.34249723  0.16637068  0.61042987  1
  In  In8  1  0.34635808  0.51540902  0.12803210  1
  In  In9  1  0.32510443  0.49033119  0.61475167  1
  In  In10  1  0.34855490  0.82306782  0.13179116  1
  In  In11  1  0.32546978  0.85345849  0.61703453  1
  In  In12  1  0.67485762  0.15881761  0.13323414  1
  In  In13  1  0.65767946  0.15811488  0.61440713  1
  In  In14  1  0.67054812  0.49388037  0.14032826  1
  In  In15  1  0.67202442  0.50716262  0.60927968  1
  In  In16  1  0.65295782  0.84711121  0.13454051  1
  In  In17  1  0.68769298  0.82055914  0.64509680  1
  In  In18  1  0.18191673  -0.01036754  0.39304292  1
  In  In19  1  0.15920460  0.00135638  0.86856799  1
  In  In20  1  0.16140169  0.33618093  0.37902549  1
  In  In21  1  0.16826338  0.31539213  0.86348461  1
  In  In22  1  0.17322469  0.65650178  0.38308897  1
  In  In23  1  0.16252735  0.68057869  0.87010496  1
  In  In24  1  0.50846364  0.00909525  0.37150956  1
  In  In25  1  0.49462190  -0.01694964  0.87859967  1
  In  In26  1  0.51806708  0.33060588  0.38613318  1
  In  In27  1  0.49644630  0.34695008  0.87010784  1
  In  In28  1  0.49661758  0.65419478  0.36607424  1
  In  In29  1  0.51380435  0.66494516  0.87739348  1
  In  In30  1  0.81914489  0.00929188  0.38547284  1
  In  In31  1  0.83642020  0.00525138  0.86282295  1
  In  In32  1  0.83282140  0.32973542  0.37960913  1
  In  In33  1  0.82640595  0.33626543  0.88331694  1
  In  In34  1  0.82570708  0.67530880  0.38111198  1
  In  In35  1  0.82240682  0.66056830  0.86535800  1
  In  In36  1  -0.01192099  0.17289752  0.38492919  1
  In  In37  1  -0.00547834  0.15594661  0.86673840  1
  In  In38  1  0.00845183  0.48881126  0.38027039  1
  In  In39  1  -0.02013850  0.49199554  0.87116763  1
  In  In40  1  0.00036921  0.83171443  0.38529152  1
  In  In41  1  -0.01667028  0.82657756  0.84978045  1
  In  In42  1  0.34946030  0.15212324  0.39013053  1
  In  In43  1  0.32155466  0.16359272  0.87099087  1
  In  In44  1  0.32945054  0.50531755  0.37913931  1
  In  In45  1  0.34466409  0.49344495  0.86920096  1
  In  In46  1  0.33091978  0.82525102  0.37371348  1
  In  In47  1  0.33942387  0.84334672  0.88317099  1
  In  In48  1  0.67070433  0.16670326  0.37865610  1
  In  In49  1  0.67820074  0.17563557  0.87576810  1
  In  In50  1  0.67009324  0.50185691  0.37888605  1
  In  In51  1  0.66722787  0.51229196  0.87455435  1
  In  In52  1  0.66995532  0.83966924  0.37150959  1
  In  In53  1  0.66662448  0.82541814  0.86664643  1
  In  In54  1  0.16679011  0.01000210  0.13056162  1
  In  In55  1  0.16520825  -0.00639025  0.61196863  1
  In  In56  1  0.16636462  0.31887545  0.13632141  1
  In  In57  1  0.17143179  0.33570800  0.61793020  1
  In  In58  1  0.17842890  0.67587613  0.12694715  1
  In  In59  1  0.15545098  0.65561913  0.61806971  1
  In  In60  1  0.49992623  -0.00502633  0.12864018  1
  In  In61  1  0.50328062  0.01354062  0.61894555  1
  In  In62  1  0.50841213  0.35398179  0.13364695  1
  In  In63  1  0.49284982  0.32056504  0.60702942  1
  In  In64  1  0.49146068  0.67520928  0.14168716  1
  In  In65  1  0.51601916  0.67553550  0.62409917  1
  In  In66  1  0.81863615  -0.00173799  0.12455224  1
  In  In67  1  0.83378625  -0.00383268  0.62815173  1
  In  In68  1  0.83140013  0.33297325  0.13237128  1
  In  In69  1  0.81783507  0.33659048  0.60351083  1
  In  In70  1  0.83403560  0.65342759  0.12473874  1
  In  In71  1  0.83297985  0.66714862  0.62486047  1
  In  In72  1  0.16090588  0.16033783  -0.01167267  1
  In  In73  1  0.34035641  0.33506621  0.25767181  1
  In  In74  1  0.33488918  0.00348841  0.74693100  1
  In  In75  1  0.00031623  0.66320221  0.24759261  1
  In  In76  1  0.66196307  0.33390801  0.73435846  1
  In  In77  1  0.00029555  0.33418912  0.73538282  1
  In  In78  1  0.16933380  0.83894187  -0.00385185  1
  In  In79  1  0.82628751  0.83199094  -0.00651419  1
  In  In80  1  0.16430211  0.49606243  0.00552978  1
  In  In81  1  -0.00389270  0.00613398  0.25822935  1
  In  In82  1  0.33193178  0.66545989  0.74802707  1
  In  In83  1  0.50087352  0.16488100  0.01041535  1
  In  In84  1  0.50562016  0.50846866  0.00569726  1
  In  In85  1  0.50340515  0.83670114  0.50089332  1
  Cu  Cu86  1  0.82657728  0.50413064  0.74408063  1
  Cu  Cu87  1  0.17633341  0.83207392  0.25707106  1
  Cu  Cu88  1  0.50827459  0.83242009  0.75168013  1
  Cu  Cu89  1  0.83615812  0.16414502  0.74669707  1
  Cu  Cu90  1  0.33146219  0.32955089  -0.00535947  1
  Cu  Cu91  1  -0.00849328  -0.00025859  -0.01057148  1
  Cu  Cu92  1  0.16369961  0.49897208  0.73972082  1
  Cu  Cu93  1  0.50024369  0.83736464  0.25639151  1
  Cu  Cu94  1  0.16821968  0.16232981  0.26081177  1
  Cu  Cu95  1  -0.00279772  0.65806213  -0.00688061  1
  Cu  Cu96  1  0.66909881  0.66964235  0.00110949  1
  Cu  Cu97  1  0.67575921  0.33809731  0.00841916  1
  Cu  Cu98  1  0.33093023  0.66796902  0.49780463  1
  Cu  Cu99  1  0.50193942  0.16594965  0.25735211  1
  Cu  Cu100  1  0.49685723  0.49834636  0.74441753  1
  Cu  Cu101  1  -0.01312795  0.33318108  0.00430972  1
  Cu  Cu102  1  0.17022409  0.50022714  0.25669223  1
  Cu  Cu103  1  0.83556015  0.49413398  0.25556149  1
  Cu  Cu104  1  0.67119780  -0.00542779  0.50189517  1
  Cu  Cu105  1  0.16111480  0.83208335  0.74090809  1
  Cu  Cu106  1  -0.00758122  0.66647903  0.50272998  1
  Cu  Cu107  1  0.49866656  0.17084396  0.73918966  1
  Cu  Cu108  1  0.83021932  0.17063718  0.25825461  1
  Cu  Cu109  1  0.66421668  0.00466351  0.00370506  1
  Cu  Cu110  1  0.82684974  0.83560266  0.25309987  1
  Cu  Cu111  1  0.66920380  0.66846018  0.50046174  1
  Cu  Cu112  1  -0.00046043  -0.00365814  0.50490907  1
  Cu  Cu113  1  0.33196384  0.33808422  0.49321253  1
  Cu  Cu114  1  0.00085691  0.33717397  0.50116765  1
  Se  Se115  1  0.07071666  0.07516913  0.05571545  1
  Se  Se116  1  0.08161046  0.08711807  0.55136639  1
  Se  Se117  1  0.07737192  0.40155558  0.06482148  1
  Se  Se118  1  0.08499514  0.42079854  0.55363424  1
  Se  Se119  1  0.07746347  0.73751886  0.05286786  1
  Se  Se120  1  0.07835909  0.74941491  0.55549118  1
  Se  Se121  1  0.40212527  0.07556001  0.06023374  1
  Se  Se122  1  0.41942797  0.07667579  0.54398587  1
  Se  Se123  1  0.40869859  0.40994506  0.05677182  1
  Se  Se124  1  0.41785698  0.42060954  0.54610548  1
  Se  Se125  1  0.42059510  0.73990314  0.05905529  1
  Se  Se126  1  0.40851868  0.74701386  0.56141391  1
  Se  Se127  1  0.75059701  0.08767193  0.05294351  1
  Se  Se128  1  0.75490263  0.07936350  0.55504502  1
  Se  Se129  1  0.75305412  0.42356487  0.06401409  1
  Se  Se130  1  0.72469581  0.40654304  0.53706764  1
  Se  Se131  1  0.74451349  0.75053512  0.06544741  1
  Se  Se132  1  0.74773518  0.75290166  0.55731956  1
  Se  Se133  1  0.25052176  0.25099189  0.05492022  1
  Se  Se134  1  0.25268831  0.25290626  0.54851953  1
  Se  Se135  1  0.25985377  0.59131145  0.05401740  1
  Se  Se136  1  0.24709474  0.58291006  0.55047271  1
  Se  Se137  1  0.25069553  0.91719809  0.06841552  1
  Se  Se138  1  0.25557148  0.92618820  0.53974353  1
  Se  Se139  1  0.58955400  0.26177262  0.06577112  1
  Se  Se140  1  0.59181811  0.25127235  0.54562632  1
  Se  Se141  1  0.59462700  0.59236135  0.06819949  1
  Se  Se142  1  0.57685964  0.58870624  0.54797767  1
  Se  Se143  1  0.58169809  0.91899324  0.05403643  1
  Se  Se144  1  0.59603481  0.91428994  0.56672049  1
  Se  Se145  1  0.91110313  0.24689017  0.06053834  1
  Se  Se146  1  0.91544913  0.25190917  0.55056017  1
  Se  Se147  1  0.91352317  0.57998812  0.04913800  1
  Se  Se148  1  0.90817598  0.57992639  0.55291804  1
  Se  Se149  1  0.92112593  0.91985182  0.05694572  1
  Se  Se150  1  0.91399325  0.91344230  0.55698810  1
  Se  Se151  1  0.08215485  0.25134838  0.44845305  1
  Se  Se152  1  0.06776986  0.25989160  0.93878107  1
  Se  Se153  1  0.07770927  0.58476717  0.44780882  1
  Se  Se154  1  0.08096242  0.58141540  0.93475601  1
  Se  Se155  1  0.08423486  0.91215958  0.45309562  1
  Se  Se156  1  0.06806361  0.91370086  0.93239124  1
  Se  Se157  1  0.42262962  0.25297849  0.44897832  1
  Se  Se158  1  0.41653958  0.25185972  0.93852121  1
  Se  Se159  1  0.41732815  0.58684628  0.44576961  1
  Se  Se160  1  0.41098386  0.58853720  0.94021365  1
  Se  Se161  1  0.41703650  0.92082912  0.43643074  1
  Se  Se162  1  0.41872596  0.91546715  0.95650624  1
  Se  Se163  1  0.77187493  0.22733705  0.44490821  1
  Se  Se164  1  0.75167907  0.24954033  0.95395707  1
  Se  Se165  1  0.75457363  0.58354537  0.44969863  1
  Se  Se166  1  0.75141078  0.58643803  0.94629835  1
  Se  Se167  1  0.75183642  0.90744458  0.44933284  1
  Se  Se168  1  0.74199313  0.92861770  0.93676596  1
  Se  Se169  1  0.23715044  0.10202200  0.44985565  1
  Se  Se170  1  0.25863715  0.06427927  0.94261864  1
  Se  Se171  1  0.24430885  0.42237485  0.44532804  1
  Se  Se172  1  0.24970459  0.40838722  0.93628200  1
  Se  Se173  1  0.24652939  0.75283460  0.44772973  1
  Se  Se174  1  0.25917297  0.73989234  0.94289426  1
  Se  Se175  1  0.58902003  0.07912210  0.44803437  1
  Se  Se176  1  0.58641389  0.08429840  0.93982423  1
  Se  Se177  1  0.59896187  0.41555454  0.45391306  1
  Se  Se178  1  0.59293007  0.41185796  0.94461110  1
  Se  Se179  1  0.58653597  0.74453337  0.43794949  1
  Se  Se180  1  0.58890732  0.75337267  0.94551374  1
  Se  Se181  1  0.91548160  0.07872792  0.45099354  1
  Se  Se182  1  0.90917997  0.08646912  0.94049451  1
  Se  Se183  1  0.91494318  0.41821167  0.44773222  1
  Se  Se184  1  0.90848608  0.42095295  0.95140747  1
  Se  Se185  1  0.91139251  0.75317549  0.45094853  1
  Se  Se186  1  0.92213213  0.74497856  0.93590327  1
  Se  Se187  1  0.25281682  0.24405555  0.31683921  1
  Se  Se188  1  0.26082325  0.24937178  0.79588516  1
  Se  Se189  1  0.25257225  0.58701689  0.30483091  1
  Se  Se190  1  0.24081231  0.57388132  0.80829188  1
  Se  Se191  1  0.25235545  0.92099563  0.30999924  1
  Se  Se192  1  0.24497389  0.90467537  0.80515740  1
  Se  Se193  1  0.58620113  0.24804492  0.30875436  1
  Se  Se194  1  0.57654935  0.24913962  0.80535634  1
  Se  Se195  1  0.60246636  0.59225023  0.30679509  1
  Se  Se196  1  0.57844253  0.57841884  0.80147560  1
  Se  Se197  1  0.58743501  0.92253173  0.30324902  1
  Se  Se198  1  0.58476682  0.92052069  0.80581007  1
  Se  Se199  1  0.91938522  0.25190008  0.30633406  1
  Se  Se200  1  0.90738690  0.25526322  0.80549738  1
  Se  Se201  1  0.91507632  0.57923933  0.31428558  1
  Se  Se202  1  0.91370124  0.58083539  0.79942218  1
  Se  Se203  1  0.90860376  0.91109656  0.31469682  1
  Se  Se204  1  0.92536460  0.93477408  0.79286681  1
  Se  Se205  1  0.08744145  0.08511043  0.32223077  1
  Se  Se206  1  0.09879702  0.09993245  0.80307868  1
  Se  Se207  1  0.08450987  0.41445511  0.30264561  1
  Se  Se208  1  0.08603110  0.42061399  0.80596690  1
  Se  Se209  1  0.08746627  0.75243025  0.31066301  1
  Se  Se210  1  0.08088096  0.74437183  0.79284424  1
  Se  Se211  1  0.41347886  0.08326022  0.30469597  1
  Se  Se212  1  0.42870048  0.09011917  0.80885209  1
  Se  Se213  1  0.42827950  0.42003676  0.31985039  1
  Se  Se214  1  0.41312472  0.41176322  0.79301485  1
  Se  Se215  1  0.41673510  0.74860503  0.30417378  1
  Se  Se216  1  0.42112091  0.75588433  0.81030109  1
  Se  Se217  1  0.74770125  0.08030890  0.30480619  1
  Se  Se218  1  0.74499586  0.09061476  0.80145727  1
  Se  Se219  1  0.75138859  0.41407184  0.31020441  1
  Se  Se220  1  0.74930847  0.41952124  0.80451137  1
  Se  Se221  1  0.74753036  0.74761347  0.30422082  1
  Se  Se222  1  0.76553962  0.76322356  0.80055621  1
  Se  Se223  1  0.24969954  0.08043806  0.20533496  1
  Se  Se224  1  0.25045316  0.08556493  0.68069861  1
  Se  Se225  1  0.25043194  0.42267049  0.19104637  1
  Se  Se226  1  0.25031803  0.41537541  0.69256711  1
  Se  Se227  1  0.25657916  0.74789999  0.20163326  1
  Se  Se228  1  0.24738234  0.75559745  0.68354140  1
  Se  Se229  1  0.57907899  0.08365908  0.19566249  1
  Se  Se230  1  0.58537020  0.08440112  0.69476194  1
  Se  Se231  1  0.58237791  0.42248229  0.21095407  1
  Se  Se232  1  0.57209453  0.42388216  0.67704834  1
  Se  Se233  1  0.58613352  0.75329704  0.20370596  1
  Se  Se234  1  0.58972300  0.74167971  0.70541371  1
  Se  Se235  1  0.90739651  0.09040654  0.19234181  1
  Se  Se236  1  0.92122448  0.08211101  0.69522415  1
  Se  Se237  1  0.92050395  0.41332491  0.20108834  1
  Se  Se238  1  0.89852498  0.41885156  0.68221037  1
  Se  Se239  1  0.90947496  0.76076466  0.19050781  1
  Se  Se240  1  0.91332498  0.74757711  0.69544014  1
  Se  Se241  1  0.08312480  0.24559944  0.20860210  1
  Se  Se242  1  0.09314488  0.24053931  0.68596368  1
  Se  Se243  1  0.09371768  0.57413621  0.18672440  1
  Se  Se244  1  0.07599267  0.58358286  0.69515170  1
  Se  Se245  1  0.08950808  0.90997971  0.19940182  1
  Se  Se246  1  0.08541897  0.92145324  0.68850454  1
  Se  Se247  1  0.42599076  0.24499767  0.19061668  1
  Se  Se248  1  0.41490432  0.25077099  0.68605361  1
  Se  Se249  1  0.43105107  0.57017109  0.20518246  1
  Se  Se250  1  0.41942415  0.58116877  0.68312146  1
  Se  Se251  1  0.41538423  0.91845762  0.20041150  1
  Se  Se252  1  0.42795151  0.91029467  0.68992067  1
  Se  Se253  1  0.74647614  0.25160905  0.20098634  1
  Se  Se254  1  0.75856408  0.24285078  0.68345544  1
  Se  Se255  1  0.75747593  0.58397591  0.20251014  1
  Se  Se256  1  0.74091393  0.58254354  0.68943945  1
  Se  Se257  1  0.74620758  0.92277813  0.20111405  1
  Se  Se258  1  0.73875198  0.93492263  0.70029418  1
