# generated using pymatgen
data_In86Cu29Se144
_symmetry_space_group_name_H-M   'P 1'
_cell_length_a   17.57915041
_cell_length_b   17.57857683
_cell_length_c   23.43789834
_cell_angle_alpha   89.98942433
_cell_angle_beta   89.98351807
_cell_angle_gamma   89.99533858
_symmetry_Int_Tables_number   1
_chemical_formula_structural   In86Cu29Se144
_chemical_formula_sum   'In86 Cu29 Se144'
_cell_volume   7242.69560280
_cell_formula_units_Z   1
loop_
 _symmetry_equiv_pos_site_id
 _symmetry_equiv_pos_as_xyz
  1  'x, y, z'
loop_
 _atom_site_type_symbol
 _atom_site_label
 _atom_site_symmetry_multiplicity
 _atom_site_fract_x
 _atom_site_fract_y
 _atom_site_fract_z
 _atom_site_occupancy
  In  In0  1  -0.01770663  0.16480140  0.11840403  1
  In  In1  1  -0.00913603  0.16541790  0.62623946  1
  In  In2  1  0.00934056  0.50962546  0.12383101  1
  In  In3  1  0.00110635  0.49660697  0.62447268  1
  In  In4  1  0.01400227  0.82209001  0.15134039  1
  In  In5  1  -0.01858320  0.84351936  0.62030904  1
  In  In6  1  0.35523888  0.16364737  0.12663161  1
  In  In7  1  0.32179051  0.15856422  0.62952491  1
  In  In8  1  0.33833707  0.49725600  0.13142524  1
  In  In9  1  0.34186546  0.50716216  0.61514775  1
  In  In10  1  0.32011067  0.83500036  0.12741812  1
  In  In11  1  0.34646370  0.83522393  0.62525221  1
  In  In12  1  0.66466089  0.15964972  0.12193900  1
  In  In13  1  0.69041359  0.14628079  0.62923826  1
  In  In14  1  0.66457643  0.51364866  0.12525005  1
  In  In15  1  0.65683326  0.51340839  0.63034995  1
  In  In16  1  0.68056766  0.83167582  0.14167936  1
  In  In17  1  0.66502945  0.83160174  0.62254752  1
  In  In18  1  0.15714430  -0.00145550  0.36869366  1
  In  In19  1  0.15263032  -0.01027257  0.86836410  1
  In  In20  1  0.17955381  0.33330752  0.36975267  1
  In  In21  1  0.16225584  0.34476213  0.87218498  1
  In  In22  1  0.15049785  0.66064926  0.36661527  1
  In  In23  1  0.16499597  0.67677736  0.87505194  1
  In  In24  1  0.50642551  -0.01471561  0.38476616  1
  In  In25  1  0.51220044  0.00924686  0.86426165  1
  In  In26  1  0.49894971  0.34601515  0.37867623  1
  In  In27  1  0.50725602  0.32513073  0.88146995  1
  In  In28  1  0.50299625  0.66907321  0.37290711  1
  In  In29  1  0.49355591  0.66152763  0.87557715  1
  In  In30  1  0.83105940  -0.00667610  0.37835916  1
  In  In31  1  0.83414018  -0.00062804  0.86982615  1
  In  In32  1  0.82785028  0.32870319  0.37980243  1
  In  In33  1  0.81869424  0.32199936  0.86414396  1
  In  In34  1  0.85401031  0.69453593  0.35664287  1
  In  In35  1  0.83447454  0.67114802  0.86577788  1
  In  In36  1  -0.01201977  0.14379298  0.38244641  1
  In  In37  1  -0.01815523  0.15161669  0.86834454  1
  In  In38  1  -0.00004726  0.52941943  0.38326823  1
  In  In39  1  0.00155143  0.50200072  0.86368361  1
  In  In40  1  -0.00696238  0.83360902  0.36971703  1
  In  In41  1  0.00075773  0.83304549  0.86997335  1
  In  In42  1  0.32171673  0.16664692  0.37040891  1
  In  In43  1  0.34829238  0.16950068  0.87795585  1
  In  In44  1  0.33289608  0.50381689  0.37504952  1
  In  In45  1  0.33930667  0.51509971  0.87849467  1
  In  In46  1  0.34844975  0.83639357  0.37517334  1
  In  In47  1  0.32020520  0.82608679  0.87549203  1
  In  In48  1  0.68576964  0.15736100  0.38980601  1
  In  In49  1  0.66610517  0.16349770  0.87354184  1
  In  In50  1  0.65268188  0.50601752  0.38039093  1
  In  In51  1  0.66287903  0.49460037  0.86804241  1
  In  In52  1  0.67291433  0.83464843  0.37683650  1
  In  In53  1  0.66660085  0.83820370  0.85744273  1
  In  In54  1  0.16243938  -0.01990339  0.12345340  1
  In  In55  1  0.15931123  0.00071599  0.63031356  1
  In  In56  1  0.16973298  0.34923032  0.12468637  1
  In  In57  1  0.15216506  0.33228345  0.62484551  1
  In  In58  1  0.15871237  0.68814623  0.14497909  1
  In  In59  1  0.16336726  0.65427424  0.61805569  1
  In  In60  1  0.50945693  0.01189947  0.12362570  1
  In  In61  1  0.52375101  -0.03491222  0.65389764  1
  In  In62  1  0.49736616  0.32666545  0.12237892  1
  In  In63  1  0.50335391  0.34674725  0.62469135  1
  In  In64  1  0.50840395  0.65846792  0.12920985  1
  In  In65  1  0.52164263  0.68495963  0.60850905  1
  In  In66  1  0.82899997  -0.00151768  0.13275916  1
  In  In67  1  0.83584662  -0.00983741  0.61567249  1
  In  In68  1  0.83819702  0.32129866  0.12047673  1
  In  In69  1  0.84138526  0.32224347  0.63104694  1
  In  In70  1  0.84153469  0.67053695  0.13689031  1
  In  In71  1  0.82879473  0.67000682  0.62630715  1
  In  In72  1  0.15956222  0.82823096  0.48965371  1
  In  In73  1  0.15778146  0.16751102  0.50468097  1
  In  In74  1  0.49985756  0.83764443  -0.00249613  1
  In  In75  1  0.33156081  0.33099230  0.75492165  1
  In  In76  1  0.83168710  0.49971995  0.00518358  1
  In  In77  1  0.82651851  0.50473093  0.50088923  1
  In  In78  1  0.33808444  0.00147770  0.24712528  1
  In  In79  1  0.66222716  0.33360819  0.25972270  1
  In  In80  1  0.00268879  0.33833305  0.24489444  1
  In  In81  1  0.83897878  0.83620406  0.00322253  1
  In  In82  1  0.16926589  0.50495273  -0.00372318  1
  In  In83  1  0.33586547  0.67138188  0.75048421  1
  In  In84  1  0.50189820  0.15860771  0.50484807  1
  In  In85  1  0.16936777  0.16730665  -0.00386199  1
  Cu  Cu86  1  0.33342996  -0.00279346  0.00239943  1
  Cu  Cu87  1  0.33215073  -0.00275798  0.50461705  1
  Cu  Cu88  1  0.49351312  0.50144833  0.25411065  1
  Cu  Cu89  1  0.50681408  0.83285813  0.25502483  1
  Cu  Cu90  1  0.83347864  0.51025895  0.25066350  1
  Cu  Cu91  1  -0.01236380  0.32929672  -0.00930696  1
  Cu  Cu92  1  0.16926209  0.50340579  0.25150728  1
  Cu  Cu93  1  0.66447751  0.33350711  0.50852931  1
  Cu  Cu94  1  0.50986192  0.16647556  0.25133721  1
  Cu  Cu95  1  0.66443685  0.66687529  0.00051657  1
  Cu  Cu96  1  0.33376058  0.34119377  0.49547626  1
  Cu  Cu97  1  0.83546500  0.50010484  0.74385602  1
  Cu  Cu98  1  0.83389374  0.15958673  0.25443675  1
  Cu  Cu99  1  0.00694045  0.33835089  0.50009666  1
  Cu  Cu100  1  0.15817140  0.83196371  0.74614213  1
  Cu  Cu101  1  0.66133825  0.32967442  -0.00734195  1
  Cu  Cu102  1  0.83103131  0.15951849  0.74681343  1
  Cu  Cu103  1  0.50602327  0.50523841  0.75059070  1
  Cu  Cu104  1  0.16783162  0.16876481  0.24723146  1
  Cu  Cu105  1  0.33230897  0.66479064  0.00489043  1
  Cu  Cu106  1  0.15688414  0.15993982  0.74977465  1
  Cu  Cu107  1  0.16134862  0.49545218  0.74295680  1
  Cu  Cu108  1  0.33785474  0.66263888  0.49547312  1
  Cu  Cu109  1  0.66532282  0.66741680  0.49327289  1
  Cu  Cu110  1  0.83280910  0.83414215  0.74369724  1
  Cu  Cu111  1  0.66776622  0.00391290  -0.00004374  1
  Cu  Cu112  1  0.50471552  0.16943383  0.75137124  1
  Cu  Cu113  1  -0.00222086  -0.00743881  -0.00472484  1
  Cu  Cu114  1  0.34576202  0.33378422  0.00644702  1
  Se  Se115  1  0.07859838  0.07684459  0.05585218  1
  Se  Se116  1  0.06795006  0.07071754  0.55536276  1
  Se  Se117  1  0.07021836  0.40840525  0.05019678  1
  Se  Se118  1  0.08865311  0.42246736  0.55167205  1
  Se  Se119  1  0.07889780  0.75310085  0.06740542  1
  Se  Se120  1  0.07552192  0.74934755  0.56020976  1
  Se  Se121  1  0.42142088  0.08036918  0.05010899  1
  Se  Se122  1  0.41093218  0.07399011  0.56643442  1
  Se  Se123  1  0.42266270  0.42284399  0.05844774  1
  Se  Se124  1  0.42195454  0.41784776  0.54948504  1
  Se  Se125  1  0.41417332  0.74856019  0.06159369  1
  Se  Se126  1  0.41457002  0.75041927  0.55023164  1
  Se  Se127  1  0.75458280  0.07970886  0.05677237  1
  Se  Se128  1  0.77115970  0.09093714  0.54737833  1
  Se  Se129  1  0.73761326  0.40563660  0.06089747  1
  Se  Se130  1  0.74615818  0.41445786  0.56774234  1
  Se  Se131  1  0.74591052  0.74279622  0.06087706  1
  Se  Se132  1  0.74534971  0.74431674  0.55382202  1
  Se  Se133  1  0.25733312  0.25565367  0.06165763  1
  Se  Se134  1  0.25674663  0.25943037  0.55759170  1
  Se  Se135  1  0.24980186  0.58791893  0.06612388  1
  Se  Se136  1  0.25153816  0.58179105  0.54794209  1
  Se  Se137  1  0.24798780  0.91128378  0.04915378  1
  Se  Se138  1  0.24555002  0.91599832  0.55895614  1
  Se  Se139  1  0.58499573  0.24751786  0.05541359  1
  Se  Se140  1  0.58991262  0.24769731  0.56759245  1
  Se  Se141  1  0.58035003  0.58160899  0.04992709  1
  Se  Se142  1  0.58460429  0.57905675  0.54668979  1
  Se  Se143  1  0.59684340  0.91606101  0.06132156  1
  Se  Se144  1  0.57564166  0.91620281  0.55946066  1
  Se  Se145  1  0.90745010  0.24336325  0.04279858  1
  Se  Se146  1  0.92332292  0.25558262  0.55299620  1
  Se  Se147  1  0.92340323  0.59569530  0.05730366  1
  Se  Se148  1  0.92184077  0.59005676  0.55710321  1
  Se  Se149  1  0.92739368  0.91951891  0.06690959  1
  Se  Se150  1  0.89169880  0.89404440  0.53938087  1
  Se  Se151  1  0.07617899  0.25438638  0.43397375  1
  Se  Se152  1  0.07504415  0.25206746  0.93446088  1
  Se  Se153  1  0.09022269  0.59337337  0.45378776  1
  Se  Se154  1  0.07256493  0.58991708  0.94047938  1
  Se  Se155  1  0.07063520  0.93087427  0.44390512  1
  Se  Se156  1  0.08233711  0.90910993  0.94496257  1
  Se  Se157  1  0.40920582  0.24881541  0.44178893  1
  Se  Se158  1  0.42361100  0.24659693  0.95264843  1
  Se  Se159  1  0.42339213  0.58095777  0.44212650  1
  Se  Se160  1  0.42023876  0.58506675  0.95374060  1
  Se  Se161  1  0.41751869  0.91315145  0.45438122  1
  Se  Se162  1  0.41137406  0.92370660  0.93432501  1
  Se  Se163  1  0.75247764  0.25501835  0.45638179  1
  Se  Se164  1  0.74901400  0.24702242  0.94385879  1
  Se  Se165  1  0.75181304  0.59498098  0.43206312  1
  Se  Se166  1  0.74701261  0.58897837  0.93980182  1
  Se  Se167  1  0.77087047  0.89486936  0.44966963  1
  Se  Se168  1  0.74096476  0.91656193  0.94036261  1
  Se  Se169  1  0.25153866  0.07493208  0.44418020  1
  Se  Se170  1  0.25524558  0.07426263  0.93655953  1
  Se  Se171  1  0.24633573  0.41986832  0.44333253  1
  Se  Se172  1  0.26433558  0.40816192  0.94253928  1
  Se  Se173  1  0.25866709  0.74301739  0.43507406  1
  Se  Se174  1  0.24765357  0.74573529  0.95102081  1
  Se  Se175  1  0.59805223  0.06660922  0.45283790  1
  Se  Se176  1  0.58198828  0.08265487  0.94504898  1
  Se  Se177  1  0.58486800  0.41520515  0.45202212  1
  Se  Se178  1  0.58286162  0.42186503  0.94443957  1
  Se  Se179  1  0.58098635  0.75434908  0.44341744  1
  Se  Se180  1  0.59259718  0.75016379  0.93733309  1
  Se  Se181  1  0.88839554  0.09392891  0.45290006  1
  Se  Se182  1  0.91053313  0.07604361  0.94711701  1
  Se  Se183  1  0.92384644  0.41647891  0.43923623  1
  Se  Se184  1  0.91294699  0.41580005  0.93325286  1
  Se  Se185  1  0.92047308  0.75090305  0.44421427  1
  Se  Se186  1  0.92132477  0.74195146  0.94174002  1
  Se  Se187  1  0.25451956  0.25170646  0.29560497  1
  Se  Se188  1  0.23805962  0.23816386  0.81207570  1
  Se  Se189  1  0.25096076  0.58699054  0.30565094  1
  Se  Se190  1  0.24061096  0.57500931  0.80545014  1
  Se  Se191  1  0.24967927  0.91269429  0.30766713  1
  Se  Se192  1  0.24303031  0.90893572  0.80388547  1
  Se  Se193  1  0.58110500  0.23865573  0.32302811  1
  Se  Se194  1  0.58619374  0.25351867  0.80534914  1
  Se  Se195  1  0.58321710  0.58298501  0.30222682  1
  Se  Se196  1  0.58419050  0.59073746  0.80604971  1
  Se  Se197  1  0.58671863  0.91941487  0.30727459  1
  Se  Se198  1  0.58068829  0.91989192  0.79402279  1
  Se  Se199  1  0.91474037  0.24740703  0.30841766  1
  Se  Se200  1  0.91366878  0.24629786  0.80005778  1
  Se  Se201  1  0.92544875  0.58831422  0.29889626  1
  Se  Se202  1  0.91663967  0.58572867  0.79862832  1
  Se  Se203  1  0.93225315  0.94002555  0.30876723  1
  Se  Se204  1  0.91500211  0.91381845  0.80280125  1
  Se  Se205  1  0.08348057  0.09506368  0.30562172  1
  Se  Se206  1  0.07228517  0.07565566  0.80144878  1
  Se  Se207  1  0.08402405  0.42595548  0.31209956  1
  Se  Se208  1  0.07918933  0.41129606  0.79668946  1
  Se  Se209  1  0.08592893  0.76012946  0.30322350  1
  Se  Se210  1  0.08020664  0.74505162  0.80089151  1
  Se  Se211  1  0.42767785  0.08625159  0.31375480  1
  Se  Se212  1  0.41597304  0.08832837  0.80175900  1
  Se  Se213  1  0.41299760  0.41421236  0.30569727  1
  Se  Se214  1  0.42214208  0.42603280  0.81062966  1
  Se  Se215  1  0.41862969  0.75028162  0.30247628  1
  Se  Se216  1  0.42563793  0.76304970  0.80813091  1
  Se  Se217  1  0.74843406  0.08096873  0.30880376  1
  Se  Se218  1  0.74658829  0.07966643  0.80341586  1
  Se  Se219  1  0.75797046  0.42851082  0.31189364  1
  Se  Se220  1  0.75000095  0.41910813  0.79867855  1
  Se  Se221  1  0.73472695  0.73995905  0.30441648  1
  Se  Se222  1  0.74969001  0.74840410  0.79619299  1
  Se  Se223  1  0.24625580  0.08884232  0.18372045  1
  Se  Se224  1  0.24469043  0.07780206  0.70099459  1
  Se  Se225  1  0.25113121  0.41646271  0.20044871  1
  Se  Se226  1  0.25119283  0.42097286  0.68690241  1
  Se  Se227  1  0.26435865  0.74945387  0.20492807  1
  Se  Se228  1  0.24157563  0.75329873  0.68607873  1
  Se  Se229  1  0.59157688  0.08167022  0.19960360  1
  Se  Se230  1  0.58620913  0.08704244  0.69568493  1
  Se  Se231  1  0.57870023  0.42228160  0.19384894  1
  Se  Se232  1  0.58642218  0.41737154  0.69901246  1
  Se  Se233  1  0.58433122  0.74784124  0.19727130  1
  Se  Se234  1  0.58372208  0.74797497  0.69368674  1
  Se  Se235  1  0.91936697  0.08426164  0.19672070  1
  Se  Se236  1  0.91180293  0.07526872  0.69071966  1
  Se  Se237  1  0.90580167  0.42702285  0.18644567  1
  Se  Se238  1  0.92055880  0.41451176  0.69475623  1
  Se  Se239  1  0.89589188  0.77202976  0.20377262  1
  Se  Se240  1  0.91753356  0.74973889  0.69303233  1
  Se  Se241  1  0.08799711  0.24424489  0.18207483  1
  Se  Se242  1  0.07906327  0.24583504  0.69462669  1
  Se  Se243  1  0.08071166  0.58471307  0.20072767  1
  Se  Se244  1  0.08073547  0.58441378  0.69364535  1
  Se  Se245  1  0.08706628  0.92632253  0.20700644  1
  Se  Se246  1  0.07367991  0.91391752  0.69242693  1
  Se  Se247  1  0.42394919  0.24932809  0.20065294  1
  Se  Se248  1  0.42134734  0.24650043  0.68996412  1
  Se  Se249  1  0.41586152  0.58721435  0.19801470  1
  Se  Se250  1  0.42555568  0.58351469  0.68906585  1
  Se  Se251  1  0.43088512  0.91108868  0.18758995  1
  Se  Se252  1  0.39637879  0.92805164  0.70050581  1
  Se  Se253  1  0.75444911  0.24657874  0.19730296  1
  Se  Se254  1  0.74792548  0.24882320  0.69739808  1
  Se  Se255  1  0.74669997  0.58815252  0.19690665  1
  Se  Se256  1  0.74920068  0.58654329  0.69697586  1
  Se  Se257  1  0.75266837  0.92158879  0.20763158  1
  Se  Se258  1  0.75077403  0.91708171  0.68928038  1
