# generated using pymatgen
data_In86Cu29Se144
_symmetry_space_group_name_H-M   'P 1'
_cell_length_a   17.59328237
_cell_length_b   17.58962443
_cell_length_c   23.45088736
_cell_angle_alpha   90.02201753
_cell_angle_beta   89.97371712
_cell_angle_gamma   90.03246716
_symmetry_Int_Tables_number   1
_chemical_formula_structural   In86Cu29Se144
_chemical_formula_sum   'In86 Cu29 Se144'
_cell_volume   7257.09106670
_cell_formula_units_Z   1
loop_
 _symmetry_equiv_pos_site_id
 _symmetry_equiv_pos_as_xyz
  1  'x, y, z'
loop_
 _atom_site_type_symbol
 _atom_site_label
 _atom_site_symmetry_multiplicity
 _atom_site_fract_x
 _atom_site_fract_y
 _atom_site_fract_z
 _atom_site_occupancy
  In  In0  1  -0.00653543  0.18332472  0.13016943  1
  In  In1  1  0.00405622  0.17114511  0.61721476  1
  In  In2  1  0.00753320  0.49217890  0.13419257  1
  In  In3  1  -0.02592391  0.49635927  0.61240979  1
  In  In4  1  -0.01122510  0.83483081  0.13633144  1
  In  In5  1  -0.01023927  0.81850704  0.60098799  1
  In  In6  1  0.35364808  0.16442784  0.12409885  1
  In  In7  1  0.33566586  0.18381866  0.61984877  1
  In  In8  1  0.32921363  0.49725364  0.12206711  1
  In  In9  1  0.33212685  0.47427612  0.61787999  1
  In  In10  1  0.33745876  0.82316377  0.12601511  1
  In  In11  1  0.32857040  0.83917869  0.62181692  1
  In  In12  1  0.66454627  0.17221003  0.12797022  1
  In  In13  1  0.67577268  0.16388733  0.62937059  1
  In  In14  1  0.65574310  0.50486978  0.13909806  1
  In  In15  1  0.66663415  0.49830606  0.62156470  1
  In  In16  1  0.66115380  0.83795105  0.13143572  1
  In  In17  1  0.66682434  0.83270441  0.62613673  1
  In  In18  1  0.16600526  0.00087225  0.37899268  1
  In  In19  1  0.17243035  0.00351889  0.87176221  1
  In  In20  1  0.16103242  0.32825396  0.37115842  1
  In  In21  1  0.17819247  0.33455757  0.86773803  1
  In  In22  1  0.15889477  0.68232762  0.37705308  1
  In  In23  1  0.15220633  0.66029757  0.87825634  1
  In  In24  1  0.51961420  -0.00335477  0.37081798  1
  In  In25  1  0.51000472  -0.01302458  0.88806361  1
  In  In26  1  0.50831254  0.34583556  0.36392845  1
  In  In27  1  0.50047086  0.33460557  0.87693908  1
  In  In28  1  0.50427156  0.64345494  0.37334282  1
  In  In29  1  0.50714310  0.65553099  0.88250823  1
  In  In30  1  0.81421074  0.00725682  0.38943531  1
  In  In31  1  0.83273193  0.02103494  0.87871654  1
  In  In32  1  0.83743592  0.33230500  0.37619834  1
  In  In33  1  0.82046325  0.32696418  0.86814237  1
  In  In34  1  0.83612694  0.66306583  0.37788363  1
  In  In35  1  0.83008054  0.68025290  0.87300414  1
  In  In36  1  -0.01712338  0.18210511  0.38242049  1
  In  In37  1  -0.01530095  0.17097772  0.87568975  1
  In  In38  1  -0.00857187  0.48880391  0.37121614  1
  In  In39  1  0.01466860  0.49881696  0.87779321  1
  In  In40  1  0.00127568  0.82220680  0.38525198  1
  In  In41  1  0.00201285  0.83040211  0.87527131  1
  In  In42  1  0.32289000  0.17332198  0.37705478  1
  In  In43  1  0.33299078  0.17699920  0.87702658  1
  In  In44  1  0.34955405  0.49099986  0.37836523  1
  In  In45  1  0.34055788  0.48747495  0.88424802  1
  In  In46  1  0.32834532  0.83135945  0.37574932  1
  In  In47  1  0.34001645  0.84766710  0.87334127  1
  In  In48  1  0.68060292  0.16975825  0.36726933  1
  In  In49  1  0.66652221  0.16939915  0.87490339  1
  In  In50  1  0.66705871  0.50341200  0.37328811  1
  In  In51  1  0.65575702  0.49002374  0.86788285  1
  In  In52  1  0.68168354  0.84078029  0.36913842  1
  In  In53  1  0.65889167  0.82534684  0.86856321  1
  In  In54  1  0.16500296  0.00096813  0.12694122  1
  In  In55  1  0.15675928  -0.00683214  0.61238321  1
  In  In56  1  0.15974952  0.34430607  0.13280811  1
  In  In57  1  0.17264572  0.31997639  0.62891205  1
  In  In58  1  0.17621399  0.65433643  0.13205153  1
  In  In59  1  0.14374535  0.66227898  0.61571582  1
  In  In60  1  0.51257392  0.01541590  0.10836198  1
  In  In61  1  0.50621607  0.01321717  0.62801100  1
  In  In62  1  0.50323094  0.33397738  0.12818519  1
  In  In63  1  0.49318976  0.34413113  0.62987924  1
  In  In64  1  0.50505859  0.66880562  0.12021679  1
  In  In65  1  0.51728109  0.66219014  0.62672775  1
  In  In66  1  0.82059957  0.00598039  0.13204749  1
  In  In67  1  0.81563722  -0.00590909  0.60950739  1
  In  In68  1  0.82792003  0.32675883  0.13457761  1
  In  In69  1  0.83071874  0.33425969  0.62422937  1
  In  In70  1  0.83166846  0.66643890  0.13882661  1
  In  In71  1  0.82241554  0.65747628  0.60952472  1
  In  In72  1  -0.00946118  0.00067226  0.74600761  1
  In  In73  1  0.82739353  0.49441727  0.00051921  1
  In  In74  1  0.17495953  0.82567549  0.00495754  1
  In  In75  1  0.34198010  0.00052426  0.25210541  1
  In  In76  1  -0.01406727  0.65571209  0.73592612  1
  In  In77  1  0.33472286  0.65984715  0.75231362  1
  In  In78  1  0.17442449  0.17344255  -0.00612647  1
  In  In79  1  0.83248386  0.83829857  0.00673817  1
  In  In80  1  -0.00472021  0.00046616  0.25764228  1
  In  In81  1  0.50127160  0.82932171  0.50234946  1
  In  In82  1  0.33777724  0.01330058  0.74971197  1
  In  In83  1  0.50932693  0.17450148  0.49190666  1
  In  In84  1  0.16658938  0.49987260  0.49174735  1
  In  In85  1  0.33420194  0.66470318  0.25257078  1
  Cu  Cu86  1  0.50297892  0.50033302  0.75275489  1
  Cu  Cu87  1  0.16671601  0.17115583  0.25158151  1
  Cu  Cu88  1  0.50373606  0.83060583  0.24758519  1
  Cu  Cu89  1  -0.00055944  0.00293489  0.49429589  1
  Cu  Cu90  1  0.33725105  0.66342209  0.00307639  1
  Cu  Cu91  1  0.33276088  0.00203063  0.49762448  1
  Cu  Cu92  1  0.33150969  0.66294429  0.49524702  1
  Cu  Cu93  1  0.66267847  0.66170798  0.00083678  1
  Cu  Cu94  1  0.83221073  0.49760280  0.25315363  1
  Cu  Cu95  1  0.50664486  0.16704812  0.24662486  1
  Cu  Cu96  1  0.16952161  0.48723296  0.75055344  1
  Cu  Cu97  1  0.33591810  0.33436373  0.00269249  1
  Cu  Cu98  1  0.67049422  0.00495391  0.00246467  1
  Cu  Cu99  1  0.82964696  0.50101449  0.74441594  1
  Cu  Cu100  1  0.16473459  0.50518879  0.25477171  1
  Cu  Cu101  1  0.83125984  0.17234470  0.74740177  1
  Cu  Cu102  1  0.00008197  0.33377738  0.49833750  1
  Cu  Cu103  1  0.00532530  0.65718040  0.00939182  1
  Cu  Cu104  1  0.83771544  0.82583599  0.25917548  1
  Cu  Cu105  1  0.66045016  0.32856751  0.00155588  1
  Cu  Cu106  1  0.67010762  0.33624790  0.49657595  1
  Cu  Cu107  1  0.16447109  0.16942232  0.74278462  1
  Cu  Cu108  1  -0.00285694  0.33661045  0.00763027  1
  Cu  Cu109  1  0.15950168  0.82823268  0.73853588  1
  Cu  Cu110  1  0.82073833  0.83879424  0.74510320  1
  Cu  Cu111  1  0.50868951  0.83596939  0.75224465  1
  Cu  Cu112  1  0.66458030  0.66361822  0.49491598  1
  Cu  Cu113  1  0.50790143  0.17414223  0.75172242  1
  Cu  Cu114  1  0.00427645  0.01022768  -0.00211464  1
  Se  Se115  1  0.08134461  0.08924328  0.05996008  1
  Se  Se116  1  0.08369755  0.08635986  0.54764405  1
  Se  Se117  1  0.08417184  0.42024322  0.05540838  1
  Se  Se118  1  0.08075505  0.41399123  0.55985288  1
  Se  Se119  1  0.07780371  0.74664392  0.06737370  1
  Se  Se120  1  0.10133581  0.76229640  0.54400351  1
  Se  Se121  1  0.41152999  0.08081572  0.04651191  1
  Se  Se122  1  0.41426763  0.08175837  0.55493772  1
  Se  Se123  1  0.41853690  0.41567938  0.05797678  1
  Se  Se124  1  0.42265564  0.41129053  0.54749976  1
  Se  Se125  1  0.41902716  0.75100536  0.05237585  1
  Se  Se126  1  0.41007704  0.73803000  0.56273567  1
  Se  Se127  1  0.75029244  0.08803565  0.05765892  1
  Se  Se128  1  0.75124007  0.09866045  0.54916821  1
  Se  Se129  1  0.73926268  0.40971436  0.06296807  1
  Se  Se130  1  0.75320222  0.41946597  0.55263872  1
  Se  Se131  1  0.74574417  0.73981256  0.06037131  1
  Se  Se132  1  0.74010062  0.75196920  0.55071334  1
  Se  Se133  1  0.25452267  0.25668040  0.06498514  1
  Se  Se134  1  0.24709030  0.25044912  0.54972554  1
  Se  Se135  1  0.24786227  0.58304333  0.05292412  1
  Se  Se136  1  0.25516584  0.58556496  0.56132187  1
  Se  Se137  1  0.25878345  0.92398265  0.06086952  1
  Se  Se138  1  0.25069547  0.91491796  0.54879092  1
  Se  Se139  1  0.57751689  0.24530437  0.05567883  1
  Se  Se140  1  0.59010734  0.25917651  0.56139612  1
  Se  Se141  1  0.58563857  0.57629986  0.05662345  1
  Se  Se142  1  0.58276779  0.58013101  0.55010205  1
  Se  Se143  1  0.59100923  0.91340328  0.05223831  1
  Se  Se144  1  0.58599739  0.92753873  0.55718381  1
  Se  Se145  1  0.91025785  0.25488829  0.05666520  1
  Se  Se146  1  0.91491611  0.25334352  0.55351843  1
  Se  Se147  1  0.91579451  0.58346976  0.06444777  1
  Se  Se148  1  0.94330056  0.61600901  0.55468245  1
  Se  Se149  1  0.92671760  0.93127181  0.06177552  1
  Se  Se150  1  0.91399866  0.92117005  0.54700158  1
  Se  Se151  1  0.08418763  0.24968033  0.44630016  1
  Se  Se152  1  0.07510337  0.26025418  0.94037373  1
  Se  Se153  1  0.07266325  0.58826105  0.43770545  1
  Se  Se154  1  0.08805291  0.57655403  0.95496872  1
  Se  Se155  1  0.08422940  0.91701104  0.44582123  1
  Se  Se156  1  0.08140714  0.92358018  0.94288746  1
  Se  Se157  1  0.41659228  0.26069710  0.43596597  1
  Se  Se158  1  0.41757102  0.25167551  0.94770388  1
  Se  Se159  1  0.42016288  0.57889785  0.45038570  1
  Se  Se160  1  0.41857699  0.57829166  0.94942358  1
  Se  Se161  1  0.41613321  0.92503486  0.43830127  1
  Se  Se162  1  0.41629607  0.91140594  0.95151738  1
  Se  Se163  1  0.75091490  0.25000150  0.44459870  1
  Se  Se164  1  0.74893135  0.25173965  0.94644450  1
  Se  Se165  1  0.75115958  0.57923012  0.44647452  1
  Se  Se166  1  0.74511034  0.58893047  0.93770407  1
  Se  Se167  1  0.74648405  0.90729768  0.45306092  1
  Se  Se168  1  0.74785344  0.92189687  0.93943197  1
  Se  Se169  1  0.24925303  0.08492293  0.44591432  1
  Se  Se170  1  0.26316638  0.07168758  0.94339583  1
  Se  Se171  1  0.25735971  0.40455232  0.44087193  1
  Se  Se172  1  0.24596681  0.41111805  0.94840347  1
  Se  Se173  1  0.25094450  0.75222825  0.44799429  1
  Se  Se174  1  0.25847970  0.73929144  0.93567639  1
  Se  Se175  1  0.59949495  0.07703611  0.44291390  1
  Se  Se176  1  0.58710127  0.08590351  0.94672503  1
  Se  Se177  1  0.58527929  0.41656283  0.44289068  1
  Se  Se178  1  0.58381197  0.41742619  0.94734885  1
  Se  Se179  1  0.58490217  0.74456389  0.43499803  1
  Se  Se180  1  0.58542437  0.74990061  0.94646436  1
  Se  Se181  1  0.91146060  0.08721339  0.44803532  1
  Se  Se182  1  0.91386070  0.09326947  0.95314710  1
  Se  Se183  1  0.91382850  0.41882843  0.44956558  1
  Se  Se184  1  0.92048422  0.41014824  0.93903412  1
  Se  Se185  1  0.90411921  0.75368186  0.44971831  1
  Se  Se186  1  0.92790180  0.74066595  0.94966335  1
  Se  Se187  1  0.25326679  0.25480518  0.30124974  1
  Se  Se188  1  0.25285353  0.24435886  0.79916917  1
  Se  Se189  1  0.24589521  0.57980652  0.31809311  1
  Se  Se190  1  0.24083340  0.57359154  0.81278399  1
  Se  Se191  1  0.24376266  0.91214653  0.30508909  1
  Se  Se192  1  0.24082482  0.90876377  0.79768580  1
  Se  Se193  1  0.58659711  0.24779288  0.30419490  1
  Se  Se194  1  0.58784699  0.25754531  0.80683560  1
  Se  Se195  1  0.57932182  0.57156453  0.29857359  1
  Se  Se196  1  0.58457563  0.58846280  0.80249524  1
  Se  Se197  1  0.59081440  0.91346535  0.29811565  1
  Se  Se198  1  0.58644644  0.92449858  0.80532687  1
  Se  Se199  1  0.91885812  0.25552155  0.30239737  1
  Se  Se200  1  0.91623239  0.25343363  0.80131111  1
  Se  Se201  1  0.91643373  0.58132357  0.30498175  1
  Se  Se202  1  0.90848861  0.57446416  0.81272129  1
  Se  Se203  1  0.90862108  0.91337639  0.32000428  1
  Se  Se204  1  0.90443561  0.90845773  0.81119564  1
  Se  Se205  1  0.08647652  0.09422819  0.31305659  1
  Se  Se206  1  0.08658158  0.09040533  0.80609568  1
  Se  Se207  1  0.08257240  0.41523904  0.30302553  1
  Se  Se208  1  0.08054417  0.41052778  0.80457278  1
  Se  Se209  1  0.07884584  0.75665237  0.30524803  1
  Se  Se210  1  0.08074625  0.74780140  0.79927782  1
  Se  Se211  1  0.42814263  0.09341334  0.31385744  1
  Se  Se212  1  0.43001746  0.09151181  0.81426582  1
  Se  Se213  1  0.41350850  0.41786486  0.29742029  1
  Se  Se214  1  0.41830865  0.41834866  0.80592617  1
  Se  Se215  1  0.42755326  0.75590788  0.31243975  1
  Se  Se216  1  0.42414234  0.75528156  0.80958851  1
  Se  Se217  1  0.74569764  0.06768199  0.30388728  1
  Se  Se218  1  0.75084475  0.08761773  0.80309131  1
  Se  Se219  1  0.75148686  0.41489801  0.30859598  1
  Se  Se220  1  0.74806828  0.41858954  0.80045926  1
  Se  Se221  1  0.74933454  0.74030553  0.30576550  1
  Se  Se222  1  0.74637199  0.74783878  0.79904877  1
  Se  Se223  1  0.24730137  0.09187592  0.19285061  1
  Se  Se224  1  0.24049396  0.08457443  0.68319290  1
  Se  Se225  1  0.24847661  0.42499456  0.19825336  1
  Se  Se226  1  0.25463749  0.40727641  0.69675691  1
  Se  Se227  1  0.24135987  0.75975815  0.19762023  1
  Se  Se228  1  0.24367780  0.74525973  0.68626988  1
  Se  Se229  1  0.58286097  0.07803492  0.19270493  1
  Se  Se230  1  0.58798289  0.08640890  0.70016504  1
  Se  Se231  1  0.60038820  0.39477760  0.19840929  1
  Se  Se232  1  0.58561823  0.41955104  0.69552986  1
  Se  Se233  1  0.58505794  0.74382226  0.19550910  1
  Se  Se234  1  0.58710097  0.74991957  0.69779677  1
  Se  Se235  1  0.90998108  0.09244940  0.19668875  1
  Se  Se236  1  0.90534701  0.08885662  0.68385819  1
  Se  Se237  1  0.91357486  0.41590889  0.19687006  1
  Se  Se238  1  0.91586764  0.41808004  0.69452355  1
  Se  Se239  1  0.92156599  0.74373802  0.20563152  1
  Se  Se240  1  0.90300885  0.75979892  0.68490810  1
  Se  Se241  1  0.08241301  0.25397018  0.19940217  1
  Se  Se242  1  0.07509535  0.25069961  0.69518178  1
  Se  Se243  1  0.08183482  0.58702159  0.20027236  1
  Se  Se244  1  0.08697267  0.56347725  0.68889108  1
  Se  Se245  1  0.09047626  0.91230173  0.19704519  1
  Se  Se246  1  0.07370452  0.90546188  0.68289371  1
  Se  Se247  1  0.41827712  0.24983914  0.19831894  1
  Se  Se248  1  0.41900903  0.24897658  0.69659223  1
  Se  Se249  1  0.42127656  0.57974804  0.18911365  1
  Se  Se250  1  0.42067032  0.57362733  0.68744485  1
  Se  Se251  1  0.42745926  0.91364714  0.18747987  1
  Se  Se252  1  0.42450524  0.91152324  0.69211488  1
  Se  Se253  1  0.74378847  0.24770379  0.20259064  1
  Se  Se254  1  0.74672852  0.25759727  0.69715138  1
  Se  Se255  1  0.74742224  0.58318987  0.20360632  1
  Se  Se256  1  0.75034706  0.58564883  0.68972647  1
  Se  Se257  1  0.75998645  0.90464257  0.19729668  1
  Se  Se258  1  0.74311202  0.92653220  0.69269250  1
