# generated using pymatgen
data_In86Cu29Se144
_symmetry_space_group_name_H-M   'P 1'
_cell_length_a   17.58704901
_cell_length_b   17.58305547
_cell_length_c   23.44580675
_cell_angle_alpha   89.98601087
_cell_angle_beta   90.01472760
_cell_angle_gamma   90.00206215
_symmetry_Int_Tables_number   1
_chemical_formula_structural   In86Cu29Se144
_chemical_formula_sum   'In86 Cu29 Se144'
_cell_volume   7250.24150766
_cell_formula_units_Z   1
loop_
 _symmetry_equiv_pos_site_id
 _symmetry_equiv_pos_as_xyz
  1  'x, y, z'
loop_
 _atom_site_type_symbol
 _atom_site_label
 _atom_site_symmetry_multiplicity
 _atom_site_fract_x
 _atom_site_fract_y
 _atom_site_fract_z
 _atom_site_occupancy
  In  In0  1  -0.00592272  0.17210752  0.12903812  1
  In  In1  1  -0.01567223  0.16212830  0.62273400  1
  In  In2  1  -0.00284640  0.48015187  0.13087924  1
  In  In3  1  0.01150754  0.50326669  0.61683638  1
  In  In4  1  -0.00234701  0.84484216  0.13222499  1
  In  In5  1  -0.00275680  0.83139461  0.62392902  1
  In  In6  1  0.34611717  0.16929473  0.13041125  1
  In  In7  1  0.34388981  0.14758289  0.62962126  1
  In  In8  1  0.32492849  0.51309726  0.13476610  1
  In  In9  1  0.33260717  0.49704876  0.61818707  1
  In  In10  1  0.33764018  0.82405590  0.12798278  1
  In  In11  1  0.34294700  0.84339505  0.61624351  1
  In  In12  1  0.66115503  0.15132740  0.10632105  1
  In  In13  1  0.66241471  0.16519599  0.62615866  1
  In  In14  1  0.66634486  0.50557696  0.12597824  1
  In  In15  1  0.66265106  0.51147954  0.63026838  1
  In  In16  1  0.67314425  0.84604190  0.10810811  1
  In  In17  1  0.66392863  0.83329985  0.62988038  1
  In  In18  1  0.14874675  0.00245805  0.37441812  1
  In  In19  1  0.15787551  -0.00955953  0.86152303  1
  In  In20  1  0.17531270  0.34417464  0.36808514  1
  In  In21  1  0.17707662  0.34038103  0.87927815  1
  In  In22  1  0.16899648  0.65506377  0.38709579  1
  In  In23  1  0.15494747  0.67198810  0.87518915  1
  In  In24  1  0.50870720  -0.00838633  0.38324624  1
  In  In25  1  0.50688794  0.00194859  0.87151008  1
  In  In26  1  0.49503378  0.34284470  0.38732111  1
  In  In27  1  0.50580729  0.32010874  0.87492877  1
  In  In28  1  0.48595089  0.67699760  0.38124930  1
  In  In29  1  0.52018408  0.67987025  0.86367145  1
  In  In30  1  0.83983671  -0.00799672  0.38521981  1
  In  In31  1  0.83071760  -0.00287314  0.87542879  1
  In  In32  1  0.82329675  0.31831311  0.37423410  1
  In  In33  1  0.81828635  0.33189136  0.87221551  1
  In  In34  1  0.84512930  0.67984231  0.38103505  1
  In  In35  1  0.84048761  0.67637173  0.86779420  1
  In  In36  1  -0.01411058  0.15735234  0.36953832  1
  In  In37  1  -0.00143797  0.14920882  0.87163451  1
  In  In38  1  0.01287008  0.50944688  0.37570856  1
  In  In39  1  -0.00173840  0.51270983  0.87735602  1
  In  In40  1  -0.01283020  0.84171442  0.39042628  1
  In  In41  1  -0.01034909  0.82564889  0.86720697  1
  In  In42  1  0.33288372  0.17716551  0.37095360  1
  In  In43  1  0.35568842  0.16144927  0.87957399  1
  In  In44  1  0.33112311  0.50232560  0.37798681  1
  In  In45  1  0.33151239  0.49169029  0.88111722  1
  In  In46  1  0.34462233  0.81582030  0.37867140  1
  In  In47  1  0.34097187  0.84833204  0.86804390  1
  In  In48  1  0.67069026  0.16795416  0.39196175  1
  In  In49  1  0.66544042  0.16358241  0.87287692  1
  In  In50  1  0.65842723  0.48596763  0.38314171  1
  In  In51  1  0.67368527  0.50177370  0.86088528  1
  In  In52  1  0.66671538  0.83316181  0.38344716  1
  In  In53  1  0.67178700  0.84337795  0.87425692  1
  In  In54  1  0.15809180  -0.01204642  0.12886162  1
  In  In55  1  0.17841390  -0.01433363  0.63078868  1
  In  In56  1  0.15769189  0.34524616  0.13431290  1
  In  In57  1  0.16207935  0.34125586  0.61701843  1
  In  In58  1  0.18319340  0.66925428  0.12811432  1
  In  In59  1  0.15266382  0.66360015  0.61448880  1
  In  In60  1  0.49860195  -0.00164469  0.11225185  1
  In  In61  1  0.50053034  -0.00244613  0.62664206  1
  In  In62  1  0.50377832  0.31892315  0.12988216  1
  In  In63  1  0.51793531  0.34568594  0.60867709  1
  In  In64  1  0.49197162  0.67028987  0.12847755  1
  In  In65  1  0.51587119  0.68262741  0.61540236  1
  In  In66  1  0.83425707  0.00673184  0.11679402  1
  In  In67  1  0.82922801  -0.00129608  0.62828829  1
  In  In68  1  0.84415702  0.32221032  0.13009868  1
  In  In69  1  0.82642916  0.31637762  0.61642934  1
  In  In70  1  0.82393743  0.67178308  0.12672539  1
  In  In71  1  0.82365896  0.67812597  0.63003517  1
  In  In72  1  0.83434616  0.49909368  0.00613021  1
  In  In73  1  0.33061034  -0.00115181  0.24438514  1
  In  In74  1  0.66615035  0.67111960  0.25397810  1
  In  In75  1  0.33895951  0.32424917  0.75562792  1
  In  In76  1  0.16879065  0.16876514  -0.00217473  1
  In  In77  1  0.17172739  0.83015240  0.00122572  1
  In  In78  1  0.83433970  0.50417540  0.49768944  1
  In  In79  1  0.16941625  0.16819915  0.49759060  1
  In  In80  1  0.66917088  -0.00474230  0.24897787  1
  In  In81  1  0.00359069  0.66842080  0.25890987  1
  In  In82  1  0.33378287  0.67001493  0.74643676  1
  In  In83  1  0.49780348  0.50093034  -0.00110252  1
  In  In84  1  0.66820654  0.33103762  0.25156932  1
  In  In85  1  -0.00277437  0.33396368  0.73996260  1
  Cu  Cu86  1  0.00267140  0.33405323  0.49488506  1
  Cu  Cu87  1  0.34091663  0.66739239  0.00249013  1
  Cu  Cu88  1  0.82844672  0.16292646  0.74805421  1
  Cu  Cu89  1  0.32866538  0.34247092  0.00675864  1
  Cu  Cu90  1  0.83192994  0.15963457  0.24867192  1
  Cu  Cu91  1  0.66197461  0.66815705  0.50577277  1
  Cu  Cu92  1  0.16318484  0.50416010  0.74593821  1
  Cu  Cu93  1  0.50370468  0.49971116  0.74061607  1
  Cu  Cu94  1  0.16697563  0.16009155  0.74856624  1
  Cu  Cu95  1  -0.00302058  0.32878956  0.00565203  1
  Cu  Cu96  1  0.00601899  0.66292571  -0.00096242  1
  Cu  Cu97  1  0.16982580  0.50181403  0.25409558  1
  Cu  Cu98  1  0.66514026  0.32550490  -0.00237310  1
  Cu  Cu99  1  0.67120399  0.67655112  -0.00714783  1
  Cu  Cu100  1  0.33613465  -0.00448376  0.50146073  1
  Cu  Cu101  1  0.33888292  0.00433222  -0.00597008  1
  Cu  Cu102  1  0.15743667  0.17272858  0.25309408  1
  Cu  Cu103  1  0.33074122  0.66216699  0.50331384  1
  Cu  Cu104  1  0.16053353  0.82628418  0.74428625  1
  Cu  Cu105  1  0.66718689  -0.00096264  0.50926455  1
  Cu  Cu106  1  0.50268817  0.16718159  0.25380176  1
  Cu  Cu107  1  0.83015490  0.83777961  0.75035334  1
  Cu  Cu108  1  0.33485736  0.33081943  0.49502308  1
  Cu  Cu109  1  -0.00731271  -0.00227081  -0.00167735  1
  Cu  Cu110  1  0.50614407  0.16307284  0.74990455  1
  Cu  Cu111  1  0.16699114  0.83271935  0.25627676  1
  Cu  Cu112  1  0.83602937  0.50247816  0.74599036  1
  Cu  Cu113  1  0.49055703  0.50063749  0.25857570  1
  Cu  Cu114  1  -0.00248661  0.00143956  0.50401360  1
  Se  Se115  1  0.07928505  0.07546442  0.05651678  1
  Se  Se116  1  0.08451959  0.07936556  0.56247479  1
  Se  Se117  1  0.08111732  0.41495230  0.05408335  1
  Se  Se118  1  0.08654170  0.41996553  0.54344539  1
  Se  Se119  1  0.07957831  0.74507185  0.06426835  1
  Se  Se120  1  0.08626857  0.76274679  0.55136894  1
  Se  Se121  1  0.41289171  0.09034828  0.05246113  1
  Se  Se122  1  0.42078355  0.07964903  0.55139643  1
  Se  Se123  1  0.41454689  0.41617009  0.06743867  1
  Se  Se124  1  0.41549519  0.41698241  0.54927793  1
  Se  Se125  1  0.42169039  0.75412316  0.05303729  1
  Se  Se126  1  0.41677938  0.74946265  0.55054714  1
  Se  Se127  1  0.74359525  0.06793037  0.04278152  1
  Se  Se128  1  0.75194455  0.08539458  0.55804940  1
  Se  Se129  1  0.74123644  0.40455587  0.06214009  1
  Se  Se130  1  0.74535941  0.41891148  0.56064277  1
  Se  Se131  1  0.75828575  0.75165336  0.04916110  1
  Se  Se132  1  0.74592079  0.75417277  0.55528254  1
  Se  Se133  1  0.25180629  0.25630476  0.06505150  1
  Se  Se134  1  0.26140262  0.25211073  0.56271311  1
  Se  Se135  1  0.25428066  0.58591180  0.05338934  1
  Se  Se136  1  0.24501860  0.57888408  0.55393111  1
  Se  Se137  1  0.26139642  0.92611803  0.05882872  1
  Se  Se138  1  0.24634293  0.91400243  0.54878858  1
  Se  Se139  1  0.57632178  0.24821160  0.05062859  1
  Se  Se140  1  0.57000200  0.23110696  0.55434267  1
  Se  Se141  1  0.59192152  0.59531573  0.05415462  1
  Se  Se142  1  0.57972347  0.57786571  0.55240411  1
  Se  Se143  1  0.58660919  0.92639891  0.04442069  1
  Se  Se144  1  0.58137826  0.91279940  0.55710777  1
  Se  Se145  1  0.91235249  0.24238526  0.05215947  1
  Se  Se146  1  0.92104354  0.24967950  0.54741251  1
  Se  Se147  1  0.92669105  0.58887402  0.06529145  1
  Se  Se148  1  0.91663105  0.59389778  0.56141141  1
  Se  Se149  1  0.91742263  0.91176544  0.05514307  1
  Se  Se150  1  0.91327439  0.91895337  0.55757014  1
  Se  Se151  1  0.08064174  0.25242273  0.43286333  1
  Se  Se152  1  0.07453972  0.25578592  0.93699555  1
  Se  Se153  1  0.07312447  0.58859079  0.45477387  1
  Se  Se154  1  0.09020050  0.58024887  0.94822119  1
  Se  Se155  1  0.08417474  0.92065170  0.45186921  1
  Se  Se156  1  0.07774990  0.91679741  0.94142254  1
  Se  Se157  1  0.41697519  0.24266507  0.44656245  1
  Se  Se158  1  0.41035467  0.26329934  0.94849326  1
  Se  Se159  1  0.41644999  0.58130487  0.44806824  1
  Se  Se160  1  0.41811277  0.59517810  0.93371356  1
  Se  Se161  1  0.41705301  0.91095629  0.44564691  1
  Se  Se162  1  0.42117519  0.91918904  0.94278457  1
  Se  Se163  1  0.75111475  0.25583274  0.45612713  1
  Se  Se164  1  0.75079585  0.24538004  0.94461720  1
  Se  Se165  1  0.73996346  0.59413245  0.43849582  1
  Se  Se166  1  0.74869277  0.58543628  0.93927462  1
  Se  Se167  1  0.74840420  0.91672828  0.45134827  1
  Se  Se168  1  0.76642652  0.90398405  0.94617130  1
  Se  Se169  1  0.25787191  0.07548948  0.43747719  1
  Se  Se170  1  0.24932487  0.07349277  0.93408462  1
  Se  Se171  1  0.24845324  0.41642355  0.44704519  1
  Se  Se172  1  0.24416899  0.42446799  0.95492207  1
  Se  Se173  1  0.25147603  0.74812768  0.44832288  1
  Se  Se174  1  0.26224979  0.74531972  0.93702324  1
  Se  Se175  1  0.58386686  0.07916407  0.45173781  1
  Se  Se176  1  0.55707477  0.11039881  0.93671150  1
  Se  Se177  1  0.58876741  0.40658023  0.45718225  1
  Se  Se178  1  0.59439230  0.41630278  0.93900182  1
  Se  Se179  1  0.57997758  0.75017826  0.44804780  1
  Se  Se180  1  0.58418566  0.75775680  0.94287605  1
  Se  Se181  1  0.91516875  0.08681419  0.45087883  1
  Se  Se182  1  0.91324184  0.08433238  0.94577968  1
  Se  Se183  1  0.91982707  0.41158235  0.43470641  1
  Se  Se184  1  0.92018165  0.40924893  0.94033885  1
  Se  Se185  1  0.91515236  0.75172199  0.45916633  1
  Se  Se186  1  0.92240472  0.74452372  0.94548894  1
  Se  Se187  1  0.24905888  0.25210047  0.29998456  1
  Se  Se188  1  0.24348478  0.23558831  0.81407126  1
  Se  Se189  1  0.24925364  0.58725642  0.30863146  1
  Se  Se190  1  0.24634512  0.57641212  0.80942710  1
  Se  Se191  1  0.24795162  0.91600171  0.31468397  1
  Se  Se192  1  0.24536717  0.90907340  0.79729783  1
  Se  Se193  1  0.58146873  0.24440941  0.31607755  1
  Se  Se194  1  0.58839055  0.25193248  0.80022087  1
  Se  Se195  1  0.57806134  0.57749304  0.31446174  1
  Se  Se196  1  0.58529075  0.58286309  0.79666069  1
  Se  Se197  1  0.57756377  0.90455096  0.30638309  1
  Se  Se198  1  0.58949739  0.92131679  0.80309019  1
  Se  Se199  1  0.91065865  0.24852675  0.30121615  1
  Se  Se200  1  0.91283806  0.24552085  0.80607076  1
  Se  Se201  1  0.90634450  0.57800496  0.31175104  1
  Se  Se202  1  0.91864575  0.58302712  0.80209077  1
  Se  Se203  1  0.92314837  0.92171955  0.31168149  1
  Se  Se204  1  0.91717935  0.92035209  0.80286474  1
  Se  Se205  1  0.07599064  0.08330867  0.30013686  1
  Se  Se206  1  0.07694259  0.07784853  0.79557583  1
  Se  Se207  1  0.08105471  0.42025086  0.30325669  1
  Se  Se208  1  0.08688482  0.41920584  0.80714005  1
  Se  Se209  1  0.08949981  0.75741405  0.32110569  1
  Se  Se210  1  0.07793678  0.74452144  0.79974726  1
  Se  Se211  1  0.42365013  0.08132775  0.31045159  1
  Se  Se212  1  0.41716014  0.08184082  0.80040210  1
  Se  Se213  1  0.41313082  0.41257929  0.31114369  1
  Se  Se214  1  0.42848949  0.42531946  0.80895166  1
  Se  Se215  1  0.42066486  0.74931714  0.29905393  1
  Se  Se216  1  0.42651860  0.76281682  0.79950809  1
  Se  Se217  1  0.75125804  0.08715146  0.31379162  1
  Se  Se218  1  0.74922342  0.08039783  0.80531141  1
  Se  Se219  1  0.75499548  0.42479757  0.30937345  1
  Se  Se220  1  0.75307548  0.41366050  0.79461043  1
  Se  Se221  1  0.75981285  0.76241861  0.30933767  1
  Se  Se222  1  0.74802011  0.75147015  0.80386867  1
  Se  Se223  1  0.23626933  0.09384377  0.18864302  1
  Se  Se224  1  0.25344447  0.07740939  0.69867229  1
  Se  Se225  1  0.25297084  0.41746909  0.20000079  1
  Se  Se226  1  0.24641408  0.41689134  0.69519881  1
  Se  Se227  1  0.25251334  0.75372121  0.20209849  1
  Se  Se228  1  0.24411904  0.75251073  0.68208934  1
  Se  Se229  1  0.57657573  0.08724611  0.19015559  1
  Se  Se230  1  0.58688155  0.07723129  0.69660759  1
  Se  Se231  1  0.57327473  0.42700925  0.19469068  1
  Se  Se232  1  0.58702626  0.41175319  0.69291772  1
  Se  Se233  1  0.58976409  0.75863427  0.18311723  1
  Se  Se234  1  0.58618087  0.74428014  0.69779414  1
  Se  Se235  1  0.91551417  0.07935374  0.19275783  1
  Se  Se236  1  0.91597811  0.08085363  0.69809039  1
  Se  Se237  1  0.90426865  0.41671931  0.19974364  1
  Se  Se238  1  0.90821517  0.42312709  0.67942550  1
  Se  Se239  1  0.91138045  0.75383803  0.19643479  1
  Se  Se240  1  0.91454621  0.75349839  0.69768569  1
  Se  Se241  1  0.07494127  0.25578605  0.19739422  1
  Se  Se242  1  0.09329558  0.24110290  0.68565239  1
  Se  Se243  1  0.08902196  0.58048274  0.19095058  1
  Se  Se244  1  0.07989752  0.58552438  0.69355943  1
  Se  Se245  1  0.08174727  0.91685422  0.20612768  1
  Se  Se246  1  0.07921939  0.91606117  0.69450215  1
  Se  Se247  1  0.41693657  0.25306163  0.20514379  1
  Se  Se248  1  0.42838659  0.24686352  0.68862497  1
  Se  Se249  1  0.41672887  0.58871142  0.20121552  1
  Se  Se250  1  0.42172556  0.58028050  0.68461541  1
  Se  Se251  1  0.42909177  0.91254938  0.19097091  1
  Se  Se252  1  0.40566323  0.92499826  0.69320909  1
  Se  Se253  1  0.74465820  0.23186357  0.18756036  1
  Se  Se254  1  0.74851794  0.24905441  0.69506001  1
  Se  Se255  1  0.75796699  0.57402299  0.19759648  1
  Se  Se256  1  0.74862243  0.58852056  0.69920589  1
  Se  Se257  1  0.76009379  0.90989881  0.18847467  1
  Se  Se258  1  0.74501260  0.91974271  0.69819471  1
