# generated using pymatgen
data_In86Cu29Se144
_symmetry_space_group_name_H-M   'P 1'
_cell_length_a   17.52370800
_cell_length_b   17.52460023
_cell_length_c   23.36873375
_cell_angle_alpha   89.98945325
_cell_angle_beta   90.00945057
_cell_angle_gamma   90.00338851
_symmetry_Int_Tables_number   1
_chemical_formula_structural   In86Cu29Se144
_chemical_formula_sum   'In86 Cu29 Se144'
_cell_volume   7176.44389756
_cell_formula_units_Z   1
loop_
 _symmetry_equiv_pos_site_id
 _symmetry_equiv_pos_as_xyz
  1  'x, y, z'
loop_
 _atom_site_type_symbol
 _atom_site_label
 _atom_site_symmetry_multiplicity
 _atom_site_fract_x
 _atom_site_fract_y
 _atom_site_fract_z
 _atom_site_occupancy
  In  In0  1  0.00993612  0.16705504  0.13236829  1
  In  In1  1  0.00819450  0.18078437  0.61351096  1
  In  In2  1  -0.01443743  0.49438139  0.13232086  1
  In  In3  1  -0.01700330  0.47962588  0.59430248  1
  In  In4  1  0.00637649  0.84182356  0.11984586  1
  In  In5  1  -0.00596258  0.81900095  0.60856306  1
  In  In6  1  0.32124947  0.15428660  0.11392454  1
  In  In7  1  0.32664088  0.16954784  0.63719198  1
  In  In8  1  0.34725873  0.50334548  0.13175530  1
  In  In9  1  0.31609269  0.50046028  0.61742665  1
  In  In10  1  0.33595693  0.83694737  0.12873346  1
  In  In11  1  0.33766302  0.83353085  0.61726554  1
  In  In12  1  0.66405751  0.17650628  0.12696801  1
  In  In13  1  0.66315283  0.15824719  0.62183291  1
  In  In14  1  0.66564465  0.50095359  0.13959575  1
  In  In15  1  0.68722405  0.50443498  0.61756399  1
  In  In16  1  0.66167433  0.82781858  0.12530244  1
  In  In17  1  0.66299561  0.83135917  0.62380932  1
  In  In18  1  0.17511569  -0.00537799  0.37927554  1
  In  In19  1  0.18119295  -0.00599318  0.88173639  1
  In  In20  1  0.14835788  0.34297728  0.39489056  1
  In  In21  1  0.15386859  0.31810214  0.86468310  1
  In  In22  1  0.17466462  0.66055389  0.39200960  1
  In  In23  1  0.18036019  0.67474978  0.87074783  1
  In  In24  1  0.48050262  -0.00415351  0.36851892  1
  In  In25  1  0.49853944  -0.00077146  0.88043878  1
  In  In26  1  0.50801694  0.32313861  0.37082210  1
  In  In27  1  0.48312886  0.33564134  0.86766111  1
  In  In28  1  0.51206251  0.68007537  0.37560530  1
  In  In29  1  0.51400798  0.66809701  0.86888988  1
  In  In30  1  0.83904941  -0.00877961  0.38321272  1
  In  In31  1  0.81497122  0.00231579  0.86538371  1
  In  In32  1  0.83105589  0.33849445  0.38811023  1
  In  In33  1  0.84351640  0.31679421  0.86166738  1
  In  In34  1  0.82292201  0.66458728  0.39574659  1
  In  In35  1  0.83314998  0.68285482  0.86688210  1
  In  In36  1  -0.01623528  0.18595168  0.39608067  1
  In  In37  1  -0.00323607  0.17970203  0.86768963  1
  In  In38  1  0.00944731  0.49206420  0.39419353  1
  In  In39  1  0.00759843  0.48323057  0.86928579  1
  In  In40  1  0.00502273  0.81815052  0.39363338  1
  In  In41  1  0.00029078  0.83725433  0.87560385  1
  In  In42  1  0.33099929  0.15129250  0.37422585  1
  In  In43  1  0.32888106  0.16139039  0.87807092  1
  In  In44  1  0.31419214  0.50584116  0.37809641  1
  In  In45  1  0.34260723  0.49964499  0.86703017  1
  In  In46  1  0.33517545  0.83251627  0.37833610  1
  In  In47  1  0.32753296  0.84840377  0.88919589  1
  In  In48  1  0.66904455  0.17986166  0.37795020  1
  In  In49  1  0.67267613  0.14088661  0.86422732  1
  In  In50  1  0.67422233  0.50590806  0.38179076  1
  In  In51  1  0.65456650  0.50818244  0.86686939  1
  In  In52  1  0.67404918  0.80904600  0.39395139  1
  In  In53  1  0.66264828  0.83519550  0.87469809  1
  In  In54  1  0.18027566  0.00905922  0.11520474  1
  In  In55  1  0.17143383  0.00572755  0.62651083  1
  In  In56  1  0.16824919  0.32058881  0.13227439  1
  In  In57  1  0.16431782  0.32967342  0.61987240  1
  In  In58  1  0.16666362  0.68654730  0.13022410  1
  In  In59  1  0.16482216  0.65678652  0.60033129  1
  In  In60  1  0.47721515  -0.02031645  0.10365745  1
  In  In61  1  0.50770248  -0.00677538  0.63579587  1
  In  In62  1  0.50882778  0.33721381  0.12316941  1
  In  In63  1  0.50084308  0.31592136  0.62648573  1
  In  In64  1  0.49537369  0.67402241  0.14099926  1
  In  In65  1  0.49840410  0.69572588  0.61469388  1
  In  In66  1  0.84959626  -0.00231698  0.12391705  1
  In  In67  1  0.82321255  -0.00699475  0.61932082  1
  In  In68  1  0.83162536  0.33514265  0.14012356  1
  In  In69  1  0.83851245  0.33934747  0.60704552  1
  In  In70  1  0.82272703  0.66818691  0.13050896  1
  In  In71  1  0.82502319  0.65549228  0.60444993  1
  In  In72  1  0.16557998  0.50465711  -0.00446724  1
  In  In73  1  0.49985685  0.50586720  0.00080077  1
  In  In74  1  0.50247797  0.50490552  0.49434960  1
  In  In75  1  0.65938293  -0.00378748  0.24809666  1
  In  In76  1  0.83404176  0.15865377  -0.00479005  1
  In  In77  1  0.50417978  0.15969988  0.50289948  1
  In  In78  1  0.00576741  0.00364753  0.25494701  1
  In  In79  1  0.33191959  0.33441791  0.25365494  1
  In  In80  1  0.00116552  0.66254135  0.26698200  1
  In  In81  1  -0.00559320  0.65835015  0.72916767  1
  In  In82  1  0.00039897  0.00629655  0.74126964  1
  In  In83  1  0.67276155  0.33579180  0.74374960  1
  In  In84  1  0.83108217  0.50442824  0.00546778  1
  In  In85  1  0.33615400  0.66811498  0.74393504  1
  Cu  Cu86  1  0.33234251  0.33056981  0.50381480  1
  Cu  Cu87  1  0.33325495  0.67792322  0.00680423  1
  Cu  Cu88  1  0.50211971  0.83292947  0.25076803  1
  Cu  Cu89  1  0.50153031  0.50451022  0.74123598  1
  Cu  Cu90  1  0.49687563  0.16271454  0.75598430  1
  Cu  Cu91  1  0.66475044  0.32526525  -0.00017101  1
  Cu  Cu92  1  0.82951800  0.17929247  0.26551569  1
  Cu  Cu93  1  0.00214756  0.32602760  0.00103689  1
  Cu  Cu94  1  0.83790305  0.50204926  0.73635913  1
  Cu  Cu95  1  0.66012454  -0.00647823  0.50095888  1
  Cu  Cu96  1  0.66549802  -0.00325262  -0.00582622  1
  Cu  Cu97  1  0.17411390  0.16336864  0.74727332  1
  Cu  Cu98  1  0.18504166  0.83868403  0.25372567  1
  Cu  Cu99  1  0.00069104  0.00321904  0.50571941  1
  Cu  Cu100  1  0.83322155  0.82186625  0.25780969  1
  Cu  Cu101  1  0.50562575  0.50572968  0.25847817  1
  Cu  Cu102  1  0.16656654  0.83103473  0.74754456  1
  Cu  Cu103  1  0.49626000  0.16401309  0.24541183  1
  Cu  Cu104  1  0.33413558  -0.00333252  0.50266206  1
  Cu  Cu105  1  0.15840138  0.50326714  0.26319000  1
  Cu  Cu106  1  0.83276617  0.49307117  0.26132669  1
  Cu  Cu107  1  0.16295587  0.17119878  0.25476073  1
  Cu  Cu108  1  0.00258755  0.68028431  -0.00358951  1
  Cu  Cu109  1  0.66816735  0.67593691  0.00226100  1
  Cu  Cu110  1  0.32476578  0.32268289  -0.00677416  1
  Cu  Cu111  1  0.16122193  0.48463143  0.73730975  1
  Cu  Cu112  1  0.00498463  -0.00450020  -0.00292663  1
  Cu  Cu113  1  0.49749465  0.84251862  0.74962718  1
  Cu  Cu114  1  0.81533743  0.83681108  0.74632003  1
  Se  Se115  1  0.07694609  0.08450705  0.05586752  1
  Se  Se116  1  0.09027967  0.08459809  0.55463425  1
  Se  Se117  1  0.07672117  0.41411558  0.06060744  1
  Se  Se118  1  0.10371292  0.42482359  0.54718379  1
  Se  Se119  1  0.08925502  0.75663421  0.05203931  1
  Se  Se120  1  0.09714954  0.76232575  0.54217423  1
  Se  Se121  1  0.41995072  0.09153196  0.04777267  1
  Se  Se122  1  0.41205417  0.07715590  0.56559695  1
  Se  Se123  1  0.40382040  0.40773826  0.05331506  1
  Se  Se124  1  0.41873473  0.40841580  0.56023655  1
  Se  Se125  1  0.42366412  0.75000972  0.06229112  1
  Se  Se126  1  0.39780660  0.74082207  0.54342792  1
  Se  Se127  1  0.74378557  0.07310137  0.06081071  1
  Se  Se128  1  0.74427324  0.08075926  0.54950000  1
  Se  Se129  1  0.73966707  0.40817259  0.06200650  1
  Se  Se130  1  0.75846750  0.42975314  0.53983006  1
  Se  Se131  1  0.75561610  0.75411847  0.05616579  1
  Se  Se132  1  0.75069340  0.76059598  0.55122512  1
  Se  Se133  1  0.23830863  0.24896715  0.05156678  1
  Se  Se134  1  0.25493288  0.24172973  0.55704479  1
  Se  Se135  1  0.25697935  0.58787264  0.06305515  1
  Se  Se136  1  0.26616847  0.58758998  0.53821610  1
  Se  Se137  1  0.25135315  0.90978743  0.05540264  1
  Se  Se138  1  0.24630711  0.91804726  0.55582528  1
  Se  Se139  1  0.57818530  0.24596562  0.05192845  1
  Se  Se140  1  0.59668740  0.25961357  0.55057408  1
  Se  Se141  1  0.59126671  0.59138746  0.06387429  1
  Se  Se142  1  0.58525287  0.59069057  0.56245670  1
  Se  Se143  1  0.58827923  0.91095183  0.05155493  1
  Se  Se144  1  0.57390250  0.91431043  0.55573334  1
  Se  Se145  1  0.91449069  0.25370400  0.06210157  1
  Se  Se146  1  0.92559280  0.25678341  0.54159460  1
  Se  Se147  1  0.92786790  0.59819328  0.05991828  1
  Se  Se148  1  0.94513187  0.60937810  0.54863308  1
  Se  Se149  1  0.91655283  0.91409583  0.04845478  1
  Se  Se150  1  0.91229035  0.91641074  0.55117577  1
  Se  Se151  1  0.09796043  0.23337315  0.45631904  1
  Se  Se152  1  0.08225911  0.24358117  0.94524425  1
  Se  Se153  1  0.06621644  0.60285417  0.45373331  1
  Se  Se154  1  0.07319243  0.59397355  0.93323630  1
  Se  Se155  1  0.08243277  0.92244441  0.44778026  1
  Se  Se156  1  0.08837329  0.91129937  0.94456678  1
  Se  Se157  1  0.41123681  0.25166534  0.44148944  1
  Se  Se158  1  0.41891401  0.24932879  0.94247141  1
  Se  Se159  1  0.41132733  0.59202312  0.43516868  1
  Se  Se160  1  0.40704705  0.59778239  0.94050616  1
  Se  Se161  1  0.41954292  0.91568233  0.44906437  1
  Se  Se162  1  0.42435593  0.91652845  0.95413004  1
  Se  Se163  1  0.75991508  0.23699150  0.45117295  1
  Se  Se164  1  0.74532266  0.25259161  0.93499474  1
  Se  Se165  1  0.74998578  0.57103060  0.46389577  1
  Se  Se166  1  0.74227698  0.59041928  0.94034838  1
  Se  Se167  1  0.74958254  0.91303441  0.44984477  1
  Se  Se168  1  0.75333980  0.91609884  0.94225078  1
  Se  Se169  1  0.25129664  0.08265683  0.45127603  1
  Se  Se170  1  0.25139071  0.08292798  0.95202282  1
  Se  Se171  1  0.25046844  0.41845415  0.45316267  1
  Se  Se172  1  0.25161202  0.41254765  0.93302332  1
  Se  Se173  1  0.23519811  0.77194560  0.44759208  1
  Se  Se174  1  0.24498051  0.75304248  0.95052320  1
  Se  Se175  1  0.58618545  0.07230702  0.43358509  1
  Se  Se176  1  0.58786016  0.08808802  0.94450762  1
  Se  Se177  1  0.58954906  0.40368623  0.44273437  1
  Se  Se178  1  0.58754990  0.41112818  0.93932923  1
  Se  Se179  1  0.57146768  0.75212505  0.46047727  1
  Se  Se180  1  0.58011714  0.75120333  0.94580677  1
  Se  Se181  1  0.91113180  0.08149226  0.45256291  1
  Se  Se182  1  0.92558078  0.07225899  0.93229699  1
  Se  Se183  1  0.91839135  0.41463075  0.45905269  1
  Se  Se184  1  0.91702468  0.40632059  0.94349372  1
  Se  Se185  1  0.90322339  0.75763765  0.45805480  1
  Se  Se186  1  0.91241124  0.75551261  0.94253572  1
  Se  Se187  1  0.24171823  0.25145101  0.31777960  1
  Se  Se188  1  0.25532137  0.24841229  0.80315638  1
  Se  Se189  1  0.24275595  0.59365363  0.30638243  1
  Se  Se190  1  0.23862434  0.57073979  0.79896914  1
  Se  Se191  1  0.26396386  0.92616982  0.30599156  1
  Se  Se192  1  0.24932989  0.90917246  0.80552689  1
  Se  Se193  1  0.58442910  0.24328639  0.29781585  1
  Se  Se194  1  0.58386827  0.24817445  0.80921448  1
  Se  Se195  1  0.59084765  0.58658920  0.31132082  1
  Se  Se196  1  0.58652005  0.59037945  0.79055543  1
  Se  Se197  1  0.58389911  0.90525401  0.31721761  1
  Se  Se198  1  0.58282958  0.92211762  0.80609633  1
  Se  Se199  1  0.91769396  0.26030388  0.31426931  1
  Se  Se200  1  0.92647285  0.25017519  0.78731763  1
  Se  Se201  1  0.90877822  0.57356349  0.32496303  1
  Se  Se202  1  0.91462873  0.57577069  0.80702312  1
  Se  Se203  1  0.92013507  0.90244637  0.31119571  1
  Se  Se204  1  0.90908089  0.91117725  0.80108727  1
  Se  Se205  1  0.08508368  0.09453445  0.32053451  1
  Se  Se206  1  0.09244250  0.08388892  0.80935566  1
  Se  Se207  1  0.07806027  0.41601069  0.31328529  1
  Se  Se208  1  0.07715987  0.40388838  0.79270601  1
  Se  Se209  1  0.09675965  0.76115861  0.31221690  1
  Se  Se210  1  0.08061217  0.74675835  0.80040898  1
  Se  Se211  1  0.40914398  0.08189661  0.29545281  1
  Se  Se212  1  0.41451623  0.07929218  0.80935756  1
  Se  Se213  1  0.42084439  0.42591456  0.31618913  1
  Se  Se214  1  0.41549388  0.41983729  0.79135459  1
  Se  Se215  1  0.41856246  0.75142950  0.30661509  1
  Se  Se216  1  0.41744920  0.75870002  0.81096861  1
  Se  Se217  1  0.75371276  0.08084317  0.31188772  1
  Se  Se218  1  0.77470536  0.10254822  0.79123790  1
  Se  Se219  1  0.74524193  0.41185294  0.31291425  1
  Se  Se220  1  0.76067361  0.42852864  0.80729054  1
  Se  Se221  1  0.75246057  0.74042097  0.31397116  1
  Se  Se222  1  0.73735359  0.74850983  0.79976886  1
  Se  Se223  1  0.24405455  0.08924623  0.19636577  1
  Se  Se224  1  0.25765413  0.07103841  0.70354743  1
  Se  Se225  1  0.23992203  0.42914346  0.19563612  1
  Se  Se226  1  0.25563606  0.40696511  0.69024383  1
  Se  Se227  1  0.26064175  0.74799606  0.20125375  1
  Se  Se228  1  0.23673319  0.74581180  0.68323927  1
  Se  Se229  1  0.57173074  0.08057883  0.18261381  1
  Se  Se230  1  0.58535610  0.08717355  0.70038933  1
  Se  Se231  1  0.57935194  0.41412040  0.20282192  1
  Se  Se232  1  0.58306361  0.42473487  0.68133922  1
  Se  Se233  1  0.59353784  0.74838410  0.20446079  1
  Se  Se234  1  0.57748270  0.75384673  0.69735106  1
  Se  Se235  1  0.90549183  0.09657716  0.20051558  1
  Se  Se236  1  0.91489042  0.09044790  0.67650934  1
  Se  Se237  1  0.91995786  0.41182097  0.20931873  1
  Se  Se238  1  0.91833560  0.41779194  0.68266517  1
  Se  Se239  1  0.92199702  0.75213197  0.19471481  1
  Se  Se240  1  0.89852819  0.75768379  0.68549540  1
  Se  Se241  1  0.07670836  0.25676519  0.20579144  1
  Se  Se242  1  0.08877956  0.24512140  0.69413413  1
  Se  Se243  1  0.08556101  0.57999510  0.19256697  1
  Se  Se244  1  0.08832074  0.56777872  0.67460420  1
  Se  Se245  1  0.09678587  0.91462407  0.19405396  1
  Se  Se246  1  0.08100313  0.90272677  0.68545270  1
  Se  Se247  1  0.41566165  0.24766741  0.18647284  1
  Se  Se248  1  0.41739844  0.25002638  0.70277573  1
  Se  Se249  1  0.41513169  0.58530935  0.20797673  1
  Se  Se250  1  0.42113479  0.58155891  0.67850205  1
  Se  Se251  1  0.42236080  0.92060456  0.19670034  1
  Se  Se252  1  0.40686367  0.91598456  0.69508305  1
  Se  Se253  1  0.74346983  0.25074162  0.20314945  1
  Se  Se254  1  0.75832500  0.24999030  0.67963255  1
  Se  Se255  1  0.75588543  0.58092675  0.20476047  1
  Se  Se256  1  0.75451057  0.59233218  0.69151402  1
  Se  Se257  1  0.76384370  0.90953112  0.19404587  1
  Se  Se258  1  0.73676365  0.92472213  0.69410262  1
