# generated using pymatgen
data_In86Cu29Se144
_symmetry_space_group_name_H-M   'P 1'
_cell_length_a   17.57660681
_cell_length_b   17.57726325
_cell_length_c   23.44077824
_cell_angle_alpha   90.00136094
_cell_angle_beta   90.01598512
_cell_angle_gamma   90.01115821
_symmetry_Int_Tables_number   1
_chemical_formula_structural   In86Cu29Se144
_chemical_formula_sum   'In86 Cu29 Se144'
_cell_volume   7241.99625259
_cell_formula_units_Z   1
loop_
 _symmetry_equiv_pos_site_id
 _symmetry_equiv_pos_as_xyz
  1  'x, y, z'
loop_
 _atom_site_type_symbol
 _atom_site_label
 _atom_site_symmetry_multiplicity
 _atom_site_fract_x
 _atom_site_fract_y
 _atom_site_fract_z
 _atom_site_occupancy
  In  In0  1  -0.00977285  0.18328347  0.13345665  1
  In  In1  1  0.00640074  0.17173951  0.61678348  1
  In  In2  1  -0.00866736  0.50982986  0.12683021  1
  In  In3  1  -0.01193008  0.48825702  0.62524702  1
  In  In4  1  -0.00841643  0.82307439  0.11583514  1
  In  In5  1  0.00817509  0.82542711  0.62241057  1
  In  In6  1  0.33148928  0.16332114  0.13557393  1
  In  In7  1  0.33517192  0.16003420  0.62610731  1
  In  In8  1  0.33770733  0.48580592  0.12162184  1
  In  In9  1  0.33234210  0.49799196  0.63351045  1
  In  In10  1  0.34288372  0.84053575  0.11647230  1
  In  In11  1  0.33870514  0.84151960  0.62888752  1
  In  In12  1  0.68292927  0.15547003  0.14491155  1
  In  In13  1  0.67414037  0.16880007  0.61226994  1
  In  In14  1  0.65991678  0.49039884  0.11907858  1
  In  In15  1  0.65459756  0.48997342  0.62596583  1
  In  In16  1  0.67137277  0.85091493  0.11310971  1
  In  In17  1  0.65613863  0.83690975  0.62253937  1
  In  In18  1  0.17678732  -0.00872110  0.38177149  1
  In  In19  1  0.16584744  -0.00425998  0.87220414  1
  In  In20  1  0.15516538  0.32435620  0.36991465  1
  In  In21  1  0.16639050  0.33171521  0.86232931  1
  In  In22  1  0.16550074  0.68141065  0.37427969  1
  In  In23  1  0.17981380  0.66734477  0.87442630  1
  In  In24  1  0.50394311  0.00748212  0.37610717  1
  In  In25  1  0.49356515  0.00148080  0.87270906  1
  In  In26  1  0.48772419  0.32255534  0.36956567  1
  In  In27  1  0.50610657  0.33169788  0.86902894  1
  In  In28  1  0.51302538  0.69063582  0.38023487  1
  In  In29  1  0.48633220  0.67265011  0.88145943  1
  In  In30  1  0.83117968  0.01992502  0.36953505  1
  In  In31  1  0.82735000  0.00115324  0.89434796  1
  In  In32  1  0.80828226  0.30270008  0.34076972  1
  In  In33  1  0.83114641  0.33007895  0.87879717  1
  In  In34  1  0.83350577  0.65728831  0.36813878  1
  In  In35  1  0.83447909  0.67077255  0.89305417  1
  In  In36  1  -0.00854839  0.17748940  0.38276516  1
  In  In37  1  -0.01014268  0.16205224  0.87531400  1
  In  In38  1  -0.00959828  0.48957973  0.36313788  1
  In  In39  1  -0.00195040  0.49321141  0.88151290  1
  In  In40  1  0.01128464  0.83952163  0.37003907  1
  In  In41  1  0.00137023  0.83374897  0.89230529  1
  In  In42  1  0.33557266  0.16416153  0.37917382  1
  In  In43  1  0.33119544  0.16751200  0.85594717  1
  In  In44  1  0.34511002  0.49315869  0.37625123  1
  In  In45  1  0.33382667  0.50757855  0.86810988  1
  In  In46  1  0.33256306  0.84615162  0.37885863  1
  In  In47  1  0.33683930  0.83220592  0.87199979  1
  In  In48  1  0.66199594  0.16487736  0.37267390  1
  In  In49  1  0.66287464  0.17038636  0.87595203  1
  In  In50  1  0.67820949  0.50011828  0.37386105  1
  In  In51  1  0.67012858  0.48982871  0.88383410  1
  In  In52  1  0.64832365  0.83577677  0.37907077  1
  In  In53  1  0.66667939  0.83530809  0.88778876  1
  In  In54  1  0.18180455  0.00049394  0.12682718  1
  In  In55  1  0.18752763  0.01802517  0.61559118  1
  In  In56  1  0.17137406  0.33056494  0.13243799  1
  In  In57  1  0.18131389  0.30555682  0.64510114  1
  In  In58  1  0.14923337  0.67127040  0.11905609  1
  In  In59  1  0.17106939  0.68285833  0.62318495  1
  In  In60  1  0.50641746  -0.00504521  0.13186322  1
  In  In61  1  0.48811986  -0.01513917  0.60930602  1
  In  In62  1  0.49858460  0.33150599  0.12809123  1
  In  In63  1  0.50946067  0.32612485  0.62969909  1
  In  In64  1  0.50880213  0.67216646  0.11518884  1
  In  In65  1  0.49161440  0.66840587  0.62672181  1
  In  In66  1  0.82307458  0.00372109  0.12298357  1
  In  In67  1  0.81457330  0.01080230  0.62219837  1
  In  In68  1  0.82946491  0.33163426  0.12518215  1
  In  In69  1  0.84205872  0.32176888  0.63364135  1
  In  In70  1  0.84694635  0.67056492  0.11327806  1
  In  In71  1  0.84402081  0.67207109  0.63070628  1
  In  In72  1  0.50851194  0.15998188  -0.00219758  1
  In  In73  1  0.32774649  0.65902269  0.24891076  1
  In  In74  1  0.00230795  0.00220899  0.24874020  1
  In  In75  1  0.83264005  0.49535600  0.49148020  1
  In  In76  1  0.16560943  0.50558217  -0.00404276  1
  In  In77  1  0.83254971  0.84127726  0.50042218  1
  In  In78  1  0.00875800  0.66018162  0.76318049  1
  In  In79  1  0.16309164  0.49705900  0.50503851  1
  In  In80  1  0.65786601  0.00151689  0.74977983  1
  In  In81  1  0.16248515  0.16166103  -0.00217105  1
  In  In82  1  0.00634491  0.00301060  0.75105479  1
  In  In83  1  0.66640946  0.66560472  0.24708977  1
  In  In84  1  0.50069063  0.50301952  0.50455391  1
  In  In85  1  0.66475069  0.66053052  0.74841530  1
  Cu  Cu86  1  0.16557934  0.49767791  0.24408105  1
  Cu  Cu87  1  0.50154548  0.49625405  0.24898812  1
  Cu  Cu88  1  0.17101715  0.16293228  0.25685603  1
  Cu  Cu89  1  0.00517828  0.66917789  0.49414153  1
  Cu  Cu90  1  0.82856532  0.83435950  0.23899183  1
  Cu  Cu91  1  0.33927925  0.33118341  -0.00267366  1
  Cu  Cu92  1  0.83984268  0.49988235  0.24090425  1
  Cu  Cu93  1  0.49692815  0.16991921  0.25434320  1
  Cu  Cu94  1  0.33452711  0.66808142  -0.00517746  1
  Cu  Cu95  1  0.16518744  0.82837274  0.25009885  1
  Cu  Cu96  1  0.33737303  -0.00574096  -0.00197734  1
  Cu  Cu97  1  0.49993202  0.16587864  0.74375045  1
  Cu  Cu98  1  0.66109771  0.65725928  0.00179280  1
  Cu  Cu99  1  -0.00258220  0.32522702  0.49995415  1
  Cu  Cu100  1  0.82586416  0.48815643  0.75709629  1
  Cu  Cu101  1  0.16056856  0.50180067  0.74978680  1
  Cu  Cu102  1  0.33867452  -0.00005498  0.49987944  1
  Cu  Cu103  1  0.66857557  0.33250634  0.49377153  1
  Cu  Cu104  1  0.83414138  0.83827520  0.76233427  1
  Cu  Cu105  1  0.83154716  0.17153458  0.75067082  1
  Cu  Cu106  1  -0.00566706  0.33676139  0.00418957  1
  Cu  Cu107  1  0.49963839  0.49511436  0.75305920  1
  Cu  Cu108  1  0.33705296  0.68124490  0.50100148  1
  Cu  Cu109  1  -0.00251187  0.00363785  0.00661359  1
  Cu  Cu110  1  0.00278655  -0.00081206  0.49511114  1
  Cu  Cu111  1  0.66813733  0.32791796  0.00068724  1
  Cu  Cu112  1  0.32778268  0.32484447  0.50258648  1
  Cu  Cu113  1  0.17917396  0.84038492  0.74828142  1
  Cu  Cu114  1  0.49543940  0.84366771  0.24877453  1
  Se  Se115  1  0.07612304  0.08315247  0.06924287  1
  Se  Se116  1  0.08464003  0.08174747  0.55159318  1
  Se  Se117  1  0.08441143  0.41113945  0.06015403  1
  Se  Se118  1  0.07742242  0.40232406  0.56261615  1
  Se  Se119  1  0.08796224  0.76046518  0.04653191  1
  Se  Se120  1  0.08815560  0.75191777  0.54722827  1
  Se  Se121  1  0.40948117  0.08050802  0.05958937  1
  Se  Se122  1  0.41920659  0.08945309  0.55070134  1
  Se  Se123  1  0.42318563  0.41140474  0.05106526  1
  Se  Se124  1  0.40852137  0.40966242  0.55977692  1
  Se  Se125  1  0.41856574  0.75017887  0.04982168  1
  Se  Se126  1  0.42154042  0.75847191  0.55686790  1
  Se  Se127  1  0.74027690  0.08911734  0.05751000  1
  Se  Se128  1  0.75059610  0.08377835  0.54198601  1
  Se  Se129  1  0.75114805  0.41452043  0.05262648  1
  Se  Se130  1  0.74696501  0.40903801  0.55867520  1
  Se  Se131  1  0.73964732  0.74173876  0.05849399  1
  Se  Se132  1  0.75073692  0.74459394  0.56337103  1
  Se  Se133  1  0.25759216  0.25154446  0.05649063  1
  Se  Se134  1  0.24626657  0.24365484  0.55825831  1
  Se  Se135  1  0.25811179  0.58972631  0.06090337  1
  Se  Se136  1  0.26081885  0.59110894  0.55697318  1
  Se  Se137  1  0.24819298  0.91651329  0.05079624  1
  Se  Se138  1  0.25444615  0.91531318  0.55403997  1
  Se  Se139  1  0.59151291  0.24724575  0.06347136  1
  Se  Se140  1  0.58336837  0.25522386  0.55039580  1
  Se  Se141  1  0.57517491  0.57221564  0.05100297  1
  Se  Se142  1  0.59405710  0.59436391  0.56010305  1
  Se  Se143  1  0.56423354  0.91078506  0.05315365  1
  Se  Se144  1  0.61111300  0.94271911  0.55672118  1
  Se  Se145  1  0.91261760  0.24877135  0.05386648  1
  Se  Se146  1  0.90845919  0.24571411  0.55276761  1
  Se  Se147  1  0.92251163  0.58052311  0.04669209  1
  Se  Se148  1  0.92394461  0.59034476  0.55368633  1
  Se  Se149  1  0.91209805  0.92174261  0.05843233  1
  Se  Se150  1  0.92473235  0.92665532  0.56433924  1
  Se  Se151  1  0.08905024  0.24630902  0.44993737  1
  Se  Se152  1  0.07737698  0.26043056  0.94149970  1
  Se  Se153  1  0.07789463  0.58126091  0.43572524  1
  Se  Se154  1  0.07504766  0.59843344  0.93985445  1
  Se  Se155  1  0.08594873  0.91107070  0.44802729  1
  Se  Se156  1  0.08501785  0.92933958  0.94993667  1
  Se  Se157  1  0.41760880  0.24919706  0.44921759  1
  Se  Se158  1  0.41126677  0.24471054  0.93683562  1
  Se  Se159  1  0.41431494  0.59741362  0.44088232  1
  Se  Se160  1  0.41340396  0.57523786  0.94678591  1
  Se  Se161  1  0.42425470  0.91850626  0.44592039  1
  Se  Se162  1  0.42046413  0.91387352  0.94324148  1
  Se  Se163  1  0.75192777  0.25455567  0.43586980  1
  Se  Se164  1  0.74945260  0.24344366  0.94685481  1
  Se  Se165  1  0.73986580  0.59865739  0.44584682  1
  Se  Se166  1  0.74959662  0.57745624  0.95076548  1
  Se  Se167  1  0.74762623  0.92479860  0.43448587  1
  Se  Se168  1  0.75794907  0.90380361  0.95612936  1
  Se  Se169  1  0.25114217  0.08257485  0.44889421  1
  Se  Se170  1  0.26216318  0.08135387  0.93864318  1
  Se  Se171  1  0.25402447  0.41034568  0.44236596  1
  Se  Se172  1  0.25315914  0.40804719  0.93923901  1
  Se  Se173  1  0.25085556  0.75597001  0.44410723  1
  Se  Se174  1  0.25128888  0.75438305  0.94511227  1
  Se  Se175  1  0.57209676  0.09980716  0.44568606  1
  Se  Se176  1  0.59717050  0.06524852  0.94146649  1
  Se  Se177  1  0.58614369  0.41509054  0.43721971  1
  Se  Se178  1  0.57938518  0.40696323  0.94757094  1
  Se  Se179  1  0.58591767  0.75748154  0.45974480  1
  Se  Se180  1  0.58176132  0.74359877  0.94744480  1
  Se  Se181  1  0.91600460  0.08273057  0.44695311  1
  Se  Se182  1  0.91664824  0.08956603  0.95357156  1
  Se  Se183  1  0.91880857  0.40086680  0.43575625  1
  Se  Se184  1  0.91048044  0.41716688  0.94916110  1
  Se  Se185  1  0.91916829  0.74696333  0.43674141  1
  Se  Se186  1  0.91218342  0.75876179  0.95753078  1
  Se  Se187  1  0.25354037  0.24934201  0.30897794  1
  Se  Se188  1  0.25060822  0.25580615  0.79374490  1
  Se  Se189  1  0.23992143  0.57130482  0.31416909  1
  Se  Se190  1  0.24775613  0.58626186  0.79821215  1
  Se  Se191  1  0.24758058  0.91304874  0.30301188  1
  Se  Se192  1  0.25718471  0.92384654  0.80480848  1
  Se  Se193  1  0.58370658  0.25519447  0.30304711  1
  Se  Se194  1  0.58488327  0.24401013  0.80060541  1
  Se  Se195  1  0.57313303  0.58113957  0.31198286  1
  Se  Se196  1  0.57889146  0.57571844  0.81442522  1
  Se  Se197  1  0.58201458  0.92048761  0.30418550  1
  Se  Se198  1  0.57879445  0.90365625  0.81035056  1
  Se  Se199  1  0.93396574  0.25368724  0.29980905  1
  Se  Se200  1  0.91523278  0.25063675  0.80672445  1
  Se  Se201  1  0.91883112  0.58521171  0.29671939  1
  Se  Se202  1  0.90232844  0.57785836  0.81324127  1
  Se  Se203  1  0.90698077  0.91095983  0.30624780  1
  Se  Se204  1  0.91567699  0.91938910  0.81808562  1
  Se  Se205  1  0.08838760  0.08465269  0.31702644  1
  Se  Se206  1  0.09389087  0.09858728  0.80767135  1
  Se  Se207  1  0.08361202  0.41348830  0.29919229  1
  Se  Se208  1  0.07697326  0.42248425  0.80513706  1
  Se  Se209  1  0.07784856  0.74607290  0.29915783  1
  Se  Se210  1  0.09235427  0.76725844  0.81088512  1
  Se  Se211  1  0.41453884  0.08324324  0.30634986  1
  Se  Se212  1  0.42015055  0.07954979  0.79696967  1
  Se  Se213  1  0.41395459  0.41435542  0.29981824  1
  Se  Se214  1  0.41394964  0.41333374  0.80614332  1
  Se  Se215  1  0.41899506  0.75434320  0.30553432  1
  Se  Se216  1  0.40935847  0.73985942  0.80394445  1
  Se  Se217  1  0.74754878  0.09220519  0.29926275  1
  Se  Se218  1  0.75840506  0.08289839  0.81033996  1
  Se  Se219  1  0.74958421  0.42562987  0.29635548  1
  Se  Se220  1  0.74147371  0.40692630  0.80870324  1
  Se  Se221  1  0.75238063  0.75935787  0.30830876  1
  Se  Se222  1  0.75398243  0.74940142  0.81326193  1
  Se  Se223  1  0.25283779  0.07758474  0.20456593  1
  Se  Se224  1  0.24979771  0.08603537  0.69890350  1
  Se  Se225  1  0.25608824  0.41625344  0.19737953  1
  Se  Se226  1  0.24620466  0.41739972  0.69954561  1
  Se  Se227  1  0.24692688  0.75289646  0.18646247  1
  Se  Se228  1  0.25660875  0.75072206  0.69588773  1
  Se  Se229  1  0.57880273  0.08354611  0.20194243  1
  Se  Se230  1  0.57928674  0.08870308  0.68157710  1
  Se  Se231  1  0.58486308  0.41404130  0.19597779  1
  Se  Se232  1  0.58540327  0.41143727  0.70230804  1
  Se  Se233  1  0.57816382  0.76131372  0.19065326  1
  Se  Se234  1  0.57520382  0.75775360  0.69672778  1
  Se  Se235  1  0.90593343  0.09061690  0.19598437  1
  Se  Se236  1  0.90828764  0.08620720  0.69108161  1
  Se  Se237  1  0.92210482  0.41192407  0.19128157  1
  Se  Se238  1  0.91555788  0.41311598  0.70238607  1
  Se  Se239  1  0.91512506  0.74879072  0.19315443  1
  Se  Se240  1  0.91942613  0.76038239  0.70428632  1
  Se  Se241  1  0.09072572  0.24528544  0.19967926  1
  Se  Se242  1  0.06149448  0.25681347  0.69602311  1
  Se  Se243  1  0.08419970  0.58496646  0.19428313  1
  Se  Se244  1  0.08525273  0.58050224  0.68445982  1
  Se  Se245  1  0.08784157  0.90946755  0.18740627  1
  Se  Se246  1  0.09284825  0.91349771  0.68775096  1
  Se  Se247  1  0.41412216  0.25202871  0.19808304  1
  Se  Se248  1  0.41499282  0.25147471  0.69356456  1
  Se  Se249  1  0.42632669  0.57994825  0.18784789  1
  Se  Se250  1  0.42051191  0.58015254  0.69758749  1
  Se  Se251  1  0.40720519  0.92150150  0.19567351  1
  Se  Se252  1  0.42578538  0.92181016  0.69527029  1
  Se  Se253  1  0.74675114  0.26279306  0.20197086  1
  Se  Se254  1  0.74313818  0.24546135  0.69370925  1
  Se  Se255  1  0.75516335  0.58007135  0.18344241  1
  Se  Se256  1  0.76020698  0.57048791  0.68887269  1
  Se  Se257  1  0.74272066  0.92111472  0.19478487  1
  Se  Se258  1  0.75640404  0.90820042  0.69499282  1
