# generated using pymatgen
data_In86Cu29Se144
_symmetry_space_group_name_H-M   'P 1'
_cell_length_a   17.59987626
_cell_length_b   17.59820362
_cell_length_c   23.46610393
_cell_angle_alpha   90.00900183
_cell_angle_beta   89.98713021
_cell_angle_gamma   90.01660335
_symmetry_Int_Tables_number   1
_chemical_formula_structural   In86Cu29Se144
_chemical_formula_sum   'In86 Cu29 Se144'
_cell_volume   7268.06676487
_cell_formula_units_Z   1
loop_
 _symmetry_equiv_pos_site_id
 _symmetry_equiv_pos_as_xyz
  1  'x, y, z'
loop_
 _atom_site_type_symbol
 _atom_site_label
 _atom_site_symmetry_multiplicity
 _atom_site_fract_x
 _atom_site_fract_y
 _atom_site_fract_z
 _atom_site_occupancy
  In  In0  1  -0.00378254  0.16681568  0.11467056  1
  In  In1  1  0.00283687  0.15975230  0.62437018  1
  In  In2  1  0.01074596  0.48508683  0.13491958  1
  In  In3  1  0.00340609  0.50101065  0.63421015  1
  In  In4  1  -0.00518371  0.84145321  0.12172847  1
  In  In5  1  0.00063519  0.83894508  0.62832573  1
  In  In6  1  0.32395906  0.17103584  0.12294240  1
  In  In7  1  0.31344065  0.16720702  0.61863035  1
  In  In8  1  0.31324658  0.48874305  0.11570732  1
  In  In9  1  0.34209815  0.49395041  0.62216224  1
  In  In10  1  0.31219715  0.84614711  0.12138880  1
  In  In11  1  0.34970458  0.85299697  0.60570990  1
  In  In12  1  0.66308944  0.15163885  0.12844347  1
  In  In13  1  0.67788026  0.15002783  0.63805602  1
  In  In14  1  0.68541947  0.50301196  0.12752991  1
  In  In15  1  0.66063232  0.49546834  0.62694334  1
  In  In16  1  0.67448652  0.82885159  0.13593389  1
  In  In17  1  0.68313912  0.84610676  0.61927263  1
  In  In18  1  0.15255302  0.01722839  0.38915342  1
  In  In19  1  0.16253690  0.00352994  0.88187554  1
  In  In20  1  0.16231813  0.31832589  0.36327675  1
  In  In21  1  0.16252171  0.34533510  0.88816227  1
  In  In22  1  0.16514301  0.68115793  0.37072665  1
  In  In23  1  0.14962597  0.68205839  0.88470399  1
  In  In24  1  0.49327343  -0.01286385  0.37734870  1
  In  In25  1  0.50283321  0.01392328  0.85298562  1
  In  In26  1  0.49526370  0.34130244  0.37181765  1
  In  In27  1  0.49645650  0.29140299  0.86484907  1
  In  In28  1  0.50898517  0.67659298  0.36980167  1
  In  In29  1  0.50066833  0.67080999  0.87272960  1
  In  In30  1  0.83642605  0.00110795  0.37501034  1
  In  In31  1  0.84079219  -0.00129967  0.88573639  1
  In  In32  1  0.84243244  0.31436936  0.37612238  1
  In  In33  1  0.82209125  0.31612712  0.86772563  1
  In  In34  1  0.84470113  0.68190767  0.36690881  1
  In  In35  1  0.85293060  0.66557496  0.87611661  1
  In  In36  1  0.00370424  0.15988592  0.37306102  1
  In  In37  1  -0.00135643  0.16396001  0.87955318  1
  In  In38  1  0.00622816  0.50065825  0.36818486  1
  In  In39  1  0.00756506  0.50518075  0.87195567  1
  In  In40  1  -0.00202040  0.83888994  0.37499584  1
  In  In41  1  0.00544852  0.83739066  0.87898538  1
  In  In42  1  0.29846390  0.16748656  0.38066585  1
  In  In43  1  0.32067073  0.15474589  0.88070523  1
  In  In44  1  0.33823521  0.48901338  0.36721605  1
  In  In45  1  0.31991764  0.48367942  0.87720911  1
  In  In46  1  0.31269651  0.86578316  0.40152155  1
  In  In47  1  0.31592014  0.85073922  0.88085338  1
  In  In48  1  0.68688425  0.16569763  0.37823482  1
  In  In49  1  0.67255075  0.16782761  0.86576094  1
  In  In50  1  0.65126447  0.50724720  0.37253489  1
  In  In51  1  0.68296109  0.48721050  0.87905009  1
  In  In52  1  0.66918670  0.84146080  0.37306823  1
  In  In53  1  0.66711230  0.85092105  0.87226132  1
  In  In54  1  0.15376496  -0.01128009  0.09747639  1
  In  In55  1  0.16478834  -0.00466107  0.62559514  1
  In  In56  1  0.16361123  0.32668985  0.11435033  1
  In  In57  1  0.17143297  0.31214265  0.62309056  1
  In  In58  1  0.15509481  0.66327976  0.12539666  1
  In  In59  1  0.15508822  0.67792015  0.63136750  1
  In  In60  1  0.50281833  0.00804623  0.13194595  1
  In  In61  1  0.51010068  0.00008921  0.63210678  1
  In  In62  1  0.49265835  0.31894679  0.12805011  1
  In  In63  1  0.50113857  0.33966004  0.62402876  1
  In  In64  1  0.50280194  0.67722785  0.12970620  1
  In  In65  1  0.48785069  0.66622388  0.62427136  1
  In  In66  1  0.83673172  0.00070996  0.12091226  1
  In  In67  1  0.83701137  -0.00059117  0.62792367  1
  In  In68  1  0.84586083  0.33383564  0.12486022  1
  In  In69  1  0.84945754  0.32138605  0.63129971  1
  In  In70  1  0.83077272  0.67829745  0.13647040  1
  In  In71  1  0.83576252  0.68320498  0.62408268  1
  In  In72  1  0.16929270  0.49974073  0.49832995  1
  In  In73  1  0.84437385  0.49982522  0.00565810  1
  In  In74  1  0.49797769  0.16538858  0.50043333  1
  In  In75  1  0.50306971  0.49685276  -0.00050517  1
  In  In76  1  0.49778775  0.50016162  0.50140077  1
  In  In77  1  0.67169910  0.66826461  0.74379235  1
  In  In78  1  0.83285599  0.50358137  0.49232185  1
  In  In79  1  0.32521677  0.67364174  0.75196131  1
  In  In80  1  0.34343863  0.66526705  0.25498366  1
  In  In81  1  0.32967390  0.32774629  0.74890297  1
  In  In82  1  0.48886439  0.16131164  -0.00616123  1
  In  In83  1  0.67190272  0.33764104  0.25475260  1
  In  In84  1  0.32221822  0.00902358  0.24821430  1
  In  In85  1  0.49486459  0.83705756  -0.00191756  1
  Cu  Cu86  1  -0.00087350  0.67212427  0.00577040  1
  Cu  Cu87  1  0.84021541  0.16063109  0.24802298  1
  Cu  Cu88  1  0.83783659  0.49009971  0.75299766  1
  Cu  Cu89  1  0.50889798  0.49153398  0.75513341  1
  Cu  Cu90  1  -0.00443061  0.33360369  -0.00066834  1
  Cu  Cu91  1  0.83291910  0.50848340  0.25486471  1
  Cu  Cu92  1  0.66791006  0.67888519  0.49627140  1
  Cu  Cu93  1  0.16381121  0.84441854  0.75414067  1
  Cu  Cu94  1  0.49941108  0.83529283  0.25506762  1
  Cu  Cu95  1  0.49704629  0.83685198  0.74486110  1
  Cu  Cu96  1  0.15830556  0.83795949  0.24682628  1
  Cu  Cu97  1  0.33024439  0.66124375  0.00037856  1
  Cu  Cu98  1  0.84165351  0.83666830  0.75291847  1
  Cu  Cu99  1  0.15523299  0.16331847  0.75138527  1
  Cu  Cu100  1  0.16631402  0.49033323  0.24472149  1
  Cu  Cu101  1  0.67523035  0.67428747  0.00811274  1
  Cu  Cu102  1  0.16234221  0.50164344  0.75324256  1
  Cu  Cu103  1  0.67540325  0.32609740  0.50585127  1
  Cu  Cu104  1  -0.00376183  0.00008992  0.50324926  1
  Cu  Cu105  1  0.49883036  0.16263497  0.25397123  1
  Cu  Cu106  1  0.66970565  -0.00012918  0.50491057  1
  Cu  Cu107  1  0.83941315  0.84642090  0.25011988  1
  Cu  Cu108  1  -0.00591467  0.67694430  0.50086291  1
  Cu  Cu109  1  0.00577002  0.32212933  0.50045429  1
  Cu  Cu110  1  0.49767058  0.49886770  0.24455935  1
  Cu  Cu111  1  0.66372598  0.32286614  -0.00921089  1
  Cu  Cu112  1  0.33183074  0.66674130  0.49821383  1
  Cu  Cu113  1  0.84187091  0.15879831  0.75219166  1
  Cu  Cu114  1  0.67028813  -0.00001327  0.00230438  1
  Se  Se115  1  0.05710541  0.07128132  0.04063876  1
  Se  Se116  1  0.08616932  0.08070998  0.55352306  1
  Se  Se117  1  0.07906160  0.42038360  0.05037363  1
  Se  Se118  1  0.07814730  0.41150354  0.55973763  1
  Se  Se119  1  0.08495579  0.75525029  0.05729206  1
  Se  Se120  1  0.08043573  0.75423457  0.55607815  1
  Se  Se121  1  0.40920999  0.07146912  0.06014244  1
  Se  Se122  1  0.41279529  0.07747469  0.56347441  1
  Se  Se123  1  0.41428321  0.40560774  0.05715065  1
  Se  Se124  1  0.40365001  0.40032296  0.54786773  1
  Se  Se125  1  0.40495920  0.74467715  0.06037299  1
  Se  Se126  1  0.42086052  0.74671856  0.54839466  1
  Se  Se127  1  0.74952278  0.08754786  0.05426627  1
  Se  Se128  1  0.75337569  0.08289825  0.55783656  1
  Se  Se129  1  0.74096827  0.40523904  0.05298565  1
  Se  Se130  1  0.75246792  0.41410037  0.56107068  1
  Se  Se131  1  0.75644186  0.75740421  0.06015631  1
  Se  Se132  1  0.75573852  0.75562328  0.54969658  1
  Se  Se133  1  0.24775967  0.24344778  0.04711699  1
  Se  Se134  1  0.24687355  0.25045863  0.54259295  1
  Se  Se135  1  0.24160036  0.58600009  0.05440556  1
  Se  Se136  1  0.25627254  0.59097508  0.56335335  1
  Se  Se137  1  0.25999101  0.92164039  0.03801256  1
  Se  Se138  1  0.23051391  0.90007148  0.55530056  1
  Se  Se139  1  0.58564270  0.24824996  0.05599168  1
  Se  Se140  1  0.59160739  0.24989745  0.56405020  1
  Se  Se141  1  0.59235014  0.59034131  0.06114061  1
  Se  Se142  1  0.59336721  0.59486906  0.55674044  1
  Se  Se143  1  0.58767796  0.92044138  0.06225842  1
  Se  Se144  1  0.58402935  0.91814093  0.55705498  1
  Se  Se145  1  0.90719606  0.25078308  0.04741192  1
  Se  Se146  1  0.91900156  0.24340171  0.55406156  1
  Se  Se147  1  0.92441755  0.59119407  0.07029085  1
  Se  Se148  1  0.92191914  0.58677340  0.55859657  1
  Se  Se149  1  0.90572015  0.91052593  0.05041457  1
  Se  Se150  1  0.91499386  0.91535309  0.55676087  1
  Se  Se151  1  0.08805642  0.24506289  0.44223955  1
  Se  Se152  1  0.08046441  0.25141312  0.94723022  1
  Se  Se153  1  0.07562684  0.59438050  0.44289473  1
  Se  Se154  1  0.07769096  0.58531453  0.94970252  1
  Se  Se155  1  0.07974021  0.91656774  0.44842215  1
  Se  Se156  1  0.10879319  0.89362557  0.94501949  1
  Se  Se157  1  0.41136473  0.25060928  0.43471667  1
  Se  Se158  1  0.39880844  0.26089987  0.94436192  1
  Se  Se159  1  0.41054413  0.58868283  0.43613187  1
  Se  Se160  1  0.41124456  0.58735739  0.93827619  1
  Se  Se161  1  0.42803535  0.91384693  0.45793643  1
  Se  Se162  1  0.42225798  0.93264356  0.93266177  1
  Se  Se163  1  0.75969469  0.24682160  0.45244220  1
  Se  Se164  1  0.75071596  0.23765401  0.94478911  1
  Se  Se165  1  0.74115954  0.59531085  0.43527579  1
  Se  Se166  1  0.74920577  0.58990315  0.94557839  1
  Se  Se167  1  0.75059950  0.92094672  0.44481323  1
  Se  Se168  1  0.75012066  0.91313880  0.94955535  1
  Se  Se169  1  0.27933064  0.04751652  0.44064266  1
  Se  Se170  1  0.23593979  0.09147911  0.95480813  1
  Se  Se171  1  0.25188209  0.40893981  0.43562753  1
  Se  Se172  1  0.24584736  0.42442416  0.95807140  1
  Se  Se173  1  0.24492908  0.74888011  0.44784408  1
  Se  Se174  1  0.25471049  0.74828538  0.94492463  1
  Se  Se175  1  0.59244389  0.07866715  0.44037603  1
  Se  Se176  1  0.58836659  0.07513064  0.93847093  1
  Se  Se177  1  0.59447960  0.40555469  0.44635358  1
  Se  Se178  1  0.58083266  0.40246020  0.93357376  1
  Se  Se179  1  0.58309615  0.75770714  0.44227698  1
  Se  Se180  1  0.59302335  0.74487832  0.94257505  1
  Se  Se181  1  0.91828545  0.08483059  0.44474515  1
  Se  Se182  1  0.93998363  0.06523883  0.95215481  1
  Se  Se183  1  0.92950617  0.40917154  0.44259412  1
  Se  Se184  1  0.91558236  0.40948179  0.93411340  1
  Se  Se185  1  0.91203722  0.75841443  0.44595108  1
  Se  Se186  1  0.91903678  0.75300270  0.94827521  1
  Se  Se187  1  0.25922711  0.25034320  0.29685318  1
  Se  Se188  1  0.23545941  0.24698412  0.81170348  1
  Se  Se189  1  0.24148851  0.57426732  0.30728834  1
  Se  Se190  1  0.24059842  0.58210677  0.81440849  1
  Se  Se191  1  0.24090242  0.91250847  0.30910418  1
  Se  Se192  1  0.24799211  0.92977791  0.80454920  1
  Se  Se193  1  0.58136805  0.24288846  0.31251367  1
  Se  Se194  1  0.59345011  0.24614935  0.79261837  1
  Se  Se195  1  0.57697815  0.58542687  0.29785822  1
  Se  Se196  1  0.58722443  0.57666515  0.81193035  1
  Se  Se197  1  0.58266876  0.92260555  0.30392975  1
  Se  Se198  1  0.58577676  0.91805191  0.79592357  1
  Se  Se199  1  0.92295928  0.24561494  0.30121632  1
  Se  Se200  1  0.92118238  0.24627937  0.80555454  1
  Se  Se201  1  0.92215700  0.58787696  0.30447157  1
  Se  Se202  1  0.91827654  0.58031854  0.80172328  1
  Se  Se203  1  0.92454797  0.92705069  0.30399259  1
  Se  Se204  1  0.91979240  0.91849290  0.81114764  1
  Se  Se205  1  0.09937554  0.09081571  0.30525047  1
  Se  Se206  1  0.07849174  0.07953164  0.80924870  1
  Se  Se207  1  0.08171003  0.41154705  0.30145349  1
  Se  Se208  1  0.08582824  0.41275042  0.80699987  1
  Se  Se209  1  0.07801508  0.75456728  0.30212599  1
  Se  Se210  1  0.08205776  0.75367790  0.80349252  1
  Se  Se211  1  0.41576055  0.08690321  0.31439964  1
  Se  Se212  1  0.41828365  0.11341353  0.80523459  1
  Se  Se213  1  0.41660677  0.41068156  0.29396107  1
  Se  Se214  1  0.42431452  0.41435565  0.81297204  1
  Se  Se215  1  0.41096727  0.76815418  0.31734643  1
  Se  Se216  1  0.41855822  0.76487967  0.81097012  1
  Se  Se217  1  0.75288260  0.08294807  0.30252141  1
  Se  Se218  1  0.76095076  0.07635318  0.80938001  1
  Se  Se219  1  0.75949377  0.42585467  0.31878928  1
  Se  Se220  1  0.74751126  0.40958070  0.80013222  1
  Se  Se221  1  0.75422202  0.76088347  0.30224186  1
  Se  Se222  1  0.75725766  0.75332810  0.81056552  1
  Se  Se223  1  0.23133427  0.07826584  0.17744440  1
  Se  Se224  1  0.24209369  0.08684735  0.69421133  1
  Se  Se225  1  0.24608127  0.40611405  0.19041757  1
  Se  Se226  1  0.24153156  0.42495874  0.68915317  1
  Se  Se227  1  0.24680889  0.75314417  0.19565474  1
  Se  Se228  1  0.24653559  0.76890581  0.69076930  1
  Se  Se229  1  0.58611561  0.07897443  0.20551331  1
  Se  Se230  1  0.57989091  0.08654046  0.70402729  1
  Se  Se231  1  0.58116838  0.41953512  0.18568731  1
  Se  Se232  1  0.58726410  0.41065287  0.69766177  1
  Se  Se233  1  0.58298584  0.75046548  0.20296539  1
  Se  Se234  1  0.57723476  0.75557919  0.68585343  1
  Se  Se235  1  0.92122551  0.08262819  0.18930641  1
  Se  Se236  1  0.92380526  0.07770077  0.69656261  1
  Se  Se237  1  0.90885427  0.41991164  0.20020722  1
  Se  Se238  1  0.92444037  0.41148764  0.69898962  1
  Se  Se239  1  0.92196994  0.75921164  0.19882690  1
  Se  Se240  1  0.91976519  0.75069099  0.69827256  1
  Se  Se241  1  0.06010676  0.26834741  0.17962257  1
  Se  Se242  1  0.07990455  0.25024102  0.69474098  1
  Se  Se243  1  0.08261238  0.58202608  0.20038564  1
  Se  Se244  1  0.08269357  0.58892168  0.70056949  1
  Se  Se245  1  0.08876126  0.92229473  0.18515731  1
  Se  Se246  1  0.07747702  0.92368969  0.69976615  1
  Se  Se247  1  0.41337076  0.23880746  0.19746984  1
  Se  Se248  1  0.41667640  0.24413542  0.68359465  1
  Se  Se249  1  0.41619566  0.57337828  0.18173778  1
  Se  Se250  1  0.42289699  0.57272062  0.70059659  1
  Se  Se251  1  0.41564205  0.90945047  0.19149245  1
  Se  Se252  1  0.41170003  0.91892507  0.69277199  1
  Se  Se253  1  0.75462782  0.24505865  0.19208757  1
  Se  Se254  1  0.75976901  0.24470802  0.69808964  1
  Se  Se255  1  0.74745908  0.58918295  0.20270946  1
  Se  Se256  1  0.76413526  0.57303996  0.68795925  1
  Se  Se257  1  0.75185664  0.92535808  0.19567034  1
  Se  Se258  1  0.75433538  0.91646821  0.69970303  1
