# generated using pymatgen
data_In86Cu29Se144
_symmetry_space_group_name_H-M   'P 1'
_cell_length_a   17.57578902
_cell_length_b   17.57713425
_cell_length_c   23.43238129
_cell_angle_alpha   90.00805145
_cell_angle_beta   90.00208610
_cell_angle_gamma   89.99709761
_symmetry_Int_Tables_number   1
_chemical_formula_structural   In86Cu29Se144
_chemical_formula_sum   'In86 Cu29 Se144'
_cell_volume   7239.01240539
_cell_formula_units_Z   1
loop_
 _symmetry_equiv_pos_site_id
 _symmetry_equiv_pos_as_xyz
  1  'x, y, z'
loop_
 _atom_site_type_symbol
 _atom_site_label
 _atom_site_symmetry_multiplicity
 _atom_site_fract_x
 _atom_site_fract_y
 _atom_site_fract_z
 _atom_site_occupancy
  In  In0  1  0.00969563  0.15719070  0.13447623  1
  In  In1  1  0.01324563  0.17459930  0.61997795  1
  In  In2  1  0.00489475  0.50365985  0.12154255  1
  In  In3  1  -0.01448295  0.48835168  0.61848277  1
  In  In4  1  -0.00347693  0.82854203  0.12538483  1
  In  In5  1  0.00645267  0.83108926  0.62898834  1
  In  In6  1  0.32626413  0.17238808  0.12167099  1
  In  In7  1  0.32291751  0.17892105  0.63495428  1
  In  In8  1  0.33607155  0.50653045  0.11346199  1
  In  In9  1  0.33064653  0.50430644  0.63377148  1
  In  In10  1  0.31288392  0.81328956  0.10473297  1
  In  In11  1  0.34065483  0.81737601  0.64207543  1
  In  In12  1  0.67244058  0.17051905  0.12432002  1
  In  In13  1  0.68001029  0.17384528  0.62302006  1
  In  In14  1  0.67782460  0.50856861  0.10969322  1
  In  In15  1  0.68616424  0.48958843  0.63842246  1
  In  In16  1  0.66695478  0.83103633  0.11514356  1
  In  In17  1  0.65566666  0.83942034  0.63018123  1
  In  In18  1  0.15953821  0.00946915  0.37627487  1
  In  In19  1  0.19402122  -0.01538909  0.89872566  1
  In  In20  1  0.15534627  0.34449236  0.38330240  1
  In  In21  1  0.16459104  0.33201466  0.87664645  1
  In  In22  1  0.15914324  0.66025698  0.36504684  1
  In  In23  1  0.16921089  0.66054561  0.87646627  1
  In  In24  1  0.48687649  -0.00965310  0.37700248  1
  In  In25  1  0.47628149  -0.00519796  0.87513903  1
  In  In26  1  0.50347893  0.34421482  0.37822137  1
  In  In27  1  0.50993843  0.34993880  0.86383396  1
  In  In28  1  0.50623900  0.67501218  0.37677216  1
  In  In29  1  0.49995271  0.66613243  0.87430757  1
  In  In30  1  0.84878006  0.00201484  0.37212405  1
  In  In31  1  0.83040253  -0.01156733  0.87901294  1
  In  In32  1  0.84306662  0.32236193  0.38786509  1
  In  In33  1  0.84025406  0.34241662  0.87497324  1
  In  In34  1  0.83875762  0.65905500  0.37364959  1
  In  In35  1  0.82356564  0.66936363  0.87944532  1
  In  In36  1  -0.00061008  0.17048858  0.37595264  1
  In  In37  1  0.01006107  0.18960944  0.87558333  1
  In  In38  1  0.00516887  0.49853336  0.37199002  1
  In  In39  1  0.00568702  0.47998487  0.89286821  1
  In  In40  1  -0.00399216  0.83417390  0.35721663  1
  In  In41  1  0.00218468  0.83298581  0.88416601  1
  In  In42  1  0.32656197  0.15185319  0.38149394  1
  In  In43  1  0.31798863  0.15941024  0.86743909  1
  In  In44  1  0.31865338  0.49516297  0.37266869  1
  In  In45  1  0.33192248  0.50396991  0.86987148  1
  In  In46  1  0.34342221  0.83061806  0.37619252  1
  In  In47  1  0.33169869  0.83365678  0.87621193  1
  In  In48  1  0.67862112  0.18019187  0.37900309  1
  In  In49  1  0.65980207  0.17135999  0.86728805  1
  In  In50  1  0.67413037  0.50757962  0.38043887  1
  In  In51  1  0.66424102  0.49787580  0.87790239  1
  In  In52  1  0.65905715  0.82088563  0.38028626  1
  In  In53  1  0.67816371  0.81520009  0.87920618  1
  In  In54  1  0.15432452  -0.01905921  0.10705993  1
  In  In55  1  0.16296651  0.01161138  0.62861871  1
  In  In56  1  0.14707274  0.32223986  0.10569463  1
  In  In57  1  0.16317034  0.33441856  0.62726708  1
  In  In58  1  0.16396317  0.66543122  0.12176883  1
  In  In59  1  0.18274781  0.65652736  0.63257372  1
  In  In60  1  0.49677665  -0.01293573  0.11780334  1
  In  In61  1  0.49961626  -0.01530414  0.62689543  1
  In  In62  1  0.50010327  0.34033448  0.11085492  1
  In  In63  1  0.50256996  0.33464069  0.63659026  1
  In  In64  1  0.49236370  0.65970690  0.11760547  1
  In  In65  1  0.49818784  0.67482987  0.63381353  1
  In  In66  1  0.84649117  -0.00311684  0.12739308  1
  In  In67  1  0.82206955  0.00646173  0.62365998  1
  In  In68  1  0.85500032  0.36592846  0.10214193  1
  In  In69  1  0.83634098  0.33777639  0.62834935  1
  In  In70  1  0.84681116  0.67592005  0.11992550  1
  In  In71  1  0.84275179  0.65150862  0.63026701  1
  In  In72  1  -0.00003783  0.66314509  0.75876794  1
  In  In73  1  0.66254284  0.00224409  0.74703774  1
  In  In74  1  0.16747951  0.83234536  0.50163601  1
  In  In75  1  0.67487912  0.66534481  0.25533996  1
  In  In76  1  0.00652596  0.00339219  0.75919868  1
  In  In77  1  0.83293249  0.16187362  -0.00447708  1
  In  In78  1  0.67710732  0.33943640  0.24335843  1
  In  In79  1  0.50195154  0.50283435  0.50527976  1
  In  In80  1  0.49400874  0.16839369  -0.00966477  1
  In  In81  1  0.66729152  -0.00118966  0.23996323  1
  In  In82  1  0.49960018  0.16528752  0.51065780  1
  In  In83  1  0.31434691  0.33524120  0.24451536  1
  In  In84  1  0.82888168  0.83386005  0.49647899  1
  In  In85  1  0.32377482  -0.00677125  0.24297603  1
  Cu  Cu86  1  0.50018397  0.50982733  0.75257691  1
  Cu  Cu87  1  -0.00186957  0.66544251  0.00007415  1
  Cu  Cu88  1  -0.00503755  0.00590624  0.49870020  1
  Cu  Cu89  1  0.83957535  0.17224680  0.74711305  1
  Cu  Cu90  1  0.16502491  0.17090966  0.75188352  1
  Cu  Cu91  1  0.84698650  0.49782383  0.24886632  1
  Cu  Cu92  1  0.33369538  0.34045288  -0.00973624  1
  Cu  Cu93  1  0.49727339  0.82274876  0.24938350  1
  Cu  Cu94  1  0.16184452  0.49622616  0.75463447  1
  Cu  Cu95  1  0.32715030  0.32701822  0.50349800  1
  Cu  Cu96  1  0.66188470  0.66063195  -0.00275042  1
  Cu  Cu97  1  0.33693292  0.66629534  0.50817295  1
  Cu  Cu98  1  0.49364422  0.17086434  0.75206035  1
  Cu  Cu99  1  0.84180442  0.17252735  0.25265192  1
  Cu  Cu100  1  0.16632724  0.83276381  0.23928103  1
  Cu  Cu101  1  0.00066745  0.33394523  0.50128778  1
  Cu  Cu102  1  0.32981784  -0.00868869  0.50266657  1
  Cu  Cu103  1  0.66282617  -0.01110592  -0.00414576  1
  Cu  Cu104  1  0.50102364  0.83289482  0.75807869  1
  Cu  Cu105  1  0.00317462  0.00094374  0.00384158  1
  Cu  Cu106  1  0.33372897  0.66621600  -0.00763811  1
  Cu  Cu107  1  0.00569768  0.65625485  0.49679335  1
  Cu  Cu108  1  0.15736967  0.16975598  0.25173137  1
  Cu  Cu109  1  0.49283169  0.50237848  0.23939061  1
  Cu  Cu110  1  0.66704988  0.66611047  0.50556975  1
  Cu  Cu111  1  0.49766014  0.17368277  0.24925962  1
  Cu  Cu112  1  0.83387727  0.49879385  0.75592962  1
  Cu  Cu113  1  0.66195674  0.00741754  0.50225195  1
  Cu  Cu114  1  0.16410698  0.50302611  0.24456235  1
  Se  Se115  1  0.08499262  0.09022341  0.05296004  1
  Se  Se116  1  0.08517140  0.08207935  0.55116249  1
  Se  Se117  1  0.08694867  0.42922801  0.04738275  1
  Se  Se118  1  0.08441873  0.41749821  0.55511526  1
  Se  Se119  1  0.08087400  0.75068330  0.05408362  1
  Se  Se120  1  0.08091724  0.73602085  0.56071339  1
  Se  Se121  1  0.41056216  0.08074823  0.05674287  1
  Se  Se122  1  0.40531057  0.07507691  0.56537793  1
  Se  Se123  1  0.41742718  0.42196491  0.04442666  1
  Se  Se124  1  0.41113913  0.40765775  0.56104894  1
  Se  Se125  1  0.42018181  0.74820688  0.04671094  1
  Se  Se126  1  0.41720283  0.75264632  0.55988846  1
  Se  Se127  1  0.74159051  0.06911959  0.05783127  1
  Se  Se128  1  0.75125239  0.08844344  0.54910936  1
  Se  Se129  1  0.73293099  0.39972150  0.04954830  1
  Se  Se130  1  0.76065649  0.42576115  0.55848907  1
  Se  Se131  1  0.74773462  0.74122782  0.05239839  1
  Se  Se132  1  0.74827410  0.74736646  0.56582900  1
  Se  Se133  1  0.25655019  0.25669039  0.04852190  1
  Se  Se134  1  0.24288412  0.24601967  0.55685317  1
  Se  Se135  1  0.24766671  0.58778127  0.04888433  1
  Se  Se136  1  0.25363644  0.57830124  0.55527472  1
  Se  Se137  1  0.26668279  0.93015382  0.04940444  1
  Se  Se138  1  0.25355847  0.91506674  0.56848888  1
  Se  Se139  1  0.59234538  0.25127473  0.05121848  1
  Se  Se140  1  0.58982499  0.26395250  0.55922205  1
  Se  Se141  1  0.57597095  0.57809213  0.04933036  1
  Se  Se142  1  0.59106864  0.58677271  0.56915185  1
  Se  Se143  1  0.57709756  0.90714833  0.04781186  1
  Se  Se144  1  0.58430422  0.91635749  0.55163690  1
  Se  Se145  1  0.92156635  0.24196909  0.06199375  1
  Se  Se146  1  0.91847903  0.25249195  0.55835263  1
  Se  Se147  1  0.91367919  0.58031550  0.05227725  1
  Se  Se148  1  0.91425196  0.58183593  0.54946703  1
  Se  Se149  1  0.91734903  0.91523495  0.05304921  1
  Se  Se150  1  0.92178332  0.92129065  0.56019753  1
  Se  Se151  1  0.08367704  0.24804838  0.44782596  1
  Se  Se152  1  0.08074180  0.26286416  0.95321624  1
  Se  Se153  1  0.09207509  0.57855607  0.44243243  1
  Se  Se154  1  0.08304893  0.58390340  0.94679427  1
  Se  Se155  1  0.07042374  0.91676456  0.44073759  1
  Se  Se156  1  0.08625507  0.91325015  0.95340760  1
  Se  Se157  1  0.41132479  0.25409084  0.44096033  1
  Se  Se158  1  0.41119954  0.25932718  0.92757611  1
  Se  Se159  1  0.41088666  0.58636506  0.44027044  1
  Se  Se160  1  0.41720728  0.58062093  0.94180024  1
  Se  Se161  1  0.41705615  0.90961846  0.45275086  1
  Se  Se162  1  0.41195652  0.91303796  0.95045433  1
  Se  Se163  1  0.74710604  0.25585749  0.45503962  1
  Se  Se164  1  0.74312556  0.25182980  0.93761874  1
  Se  Se165  1  0.75339363  0.59110942  0.44918799  1
  Se  Se166  1  0.75057941  0.57826581  0.94781134  1
  Se  Se167  1  0.73998250  0.92820734  0.43648446  1
  Se  Se168  1  0.75299524  0.90648783  0.94914455  1
  Se  Se169  1  0.24472895  0.07581717  0.45287889  1
  Se  Se170  1  0.24426855  0.10224698  0.95187837  1
  Se  Se171  1  0.25047134  0.41640505  0.45008277  1
  Se  Se172  1  0.24770753  0.42400710  0.94011273  1
  Se  Se173  1  0.25579356  0.74051650  0.44152931  1
  Se  Se174  1  0.24586844  0.75021533  0.94453500  1
  Se  Se175  1  0.58177422  0.08176277  0.43627659  1
  Se  Se176  1  0.58838308  0.07270082  0.93587364  1
  Se  Se177  1  0.59727342  0.41176317  0.44813927  1
  Se  Se178  1  0.57908984  0.41576899  0.94590063  1
  Se  Se179  1  0.57944401  0.74875910  0.45574457  1
  Se  Se180  1  0.58121729  0.74873956  0.94592754  1
  Se  Se181  1  0.91233561  0.08982732  0.44608571  1
  Se  Se182  1  0.92879138  0.07628664  0.93567485  1
  Se  Se183  1  0.92242551  0.42076200  0.44492713  1
  Se  Se184  1  0.90903523  0.40978335  0.95805263  1
  Se  Se185  1  0.92990361  0.74814151  0.44135140  1
  Se  Se186  1  0.91409235  0.74866464  0.94672265  1
  Se  Se187  1  0.24243067  0.24127236  0.31441429  1
  Se  Se188  1  0.24903141  0.25784054  0.80225817  1
  Se  Se189  1  0.25136596  0.58151754  0.29931155  1
  Se  Se190  1  0.24641294  0.58542197  0.79980917  1
  Se  Se191  1  0.23886850  0.90676566  0.31176437  1
  Se  Se192  1  0.25430802  0.92661559  0.81039617  1
  Se  Se193  1  0.58032023  0.25118800  0.30664398  1
  Se  Se194  1  0.58395220  0.25415556  0.79690384  1
  Se  Se195  1  0.57504502  0.57156851  0.30695527  1
  Se  Se196  1  0.58865690  0.58646381  0.80685479  1
  Se  Se197  1  0.57667497  0.90903927  0.30580357  1
  Se  Se198  1  0.58267925  0.91560758  0.81600407  1
  Se  Se199  1  0.92028327  0.25853832  0.30671397  1
  Se  Se200  1  0.91778660  0.25476635  0.80446381  1
  Se  Se201  1  0.92464299  0.58594093  0.30286434  1
  Se  Se202  1  0.91559024  0.57183801  0.82055667  1
  Se  Se203  1  0.91345354  0.92201330  0.29588278  1
  Se  Se204  1  0.91222984  0.90607145  0.80750022  1
  Se  Se205  1  0.07656003  0.08292078  0.30423375  1
  Se  Se206  1  0.09564554  0.09035571  0.81906785  1
  Se  Se207  1  0.08775151  0.41576304  0.30120944  1
  Se  Se208  1  0.07735603  0.41554492  0.80827827  1
  Se  Se209  1  0.08517061  0.74970437  0.29660234  1
  Se  Se210  1  0.09064735  0.75961618  0.81034835  1
  Se  Se211  1  0.41913771  0.08750131  0.30370185  1
  Se  Se212  1  0.41190369  0.08345336  0.80133391  1
  Se  Se213  1  0.41863380  0.41864275  0.30215761  1
  Se  Se214  1  0.41386756  0.42178301  0.79878660  1
  Se  Se215  1  0.41499649  0.74204317  0.30490418  1
  Se  Se216  1  0.41418625  0.74884947  0.80698112  1
  Se  Se217  1  0.75099915  0.09274496  0.30462596  1
  Se  Se218  1  0.76185720  0.08832660  0.80701449  1
  Se  Se219  1  0.76152996  0.42492922  0.31098747  1
  Se  Se220  1  0.74769268  0.41498374  0.80700046  1
  Se  Se221  1  0.76175512  0.76286876  0.31131393  1
  Se  Se222  1  0.75443933  0.74796520  0.80111238  1
  Se  Se223  1  0.23712783  0.09129825  0.18970132  1
  Se  Se224  1  0.24822513  0.08472707  0.70052817  1
  Se  Se225  1  0.23692671  0.42407241  0.17800582  1
  Se  Se226  1  0.24645466  0.41632769  0.69716751  1
  Se  Se227  1  0.25172734  0.74768351  0.19126944  1
  Se  Se228  1  0.24027308  0.74999350  0.70342103  1
  Se  Se229  1  0.56948815  0.09174334  0.18594849  1
  Se  Se230  1  0.57398227  0.09496634  0.68606654  1
  Se  Se231  1  0.58056923  0.42606340  0.18446966  1
  Se  Se232  1  0.58345687  0.42302857  0.70091205  1
  Se  Se233  1  0.58286185  0.74797718  0.19022535  1
  Se  Se234  1  0.58624530  0.75299157  0.70297620  1
  Se  Se235  1  0.91764813  0.08139577  0.20054099  1
  Se  Se236  1  0.91664981  0.08628336  0.68974909  1
  Se  Se237  1  0.92504221  0.41444534  0.19167756  1
  Se  Se238  1  0.91876313  0.41722921  0.70117926  1
  Se  Se239  1  0.91834870  0.74731889  0.19789070  1
  Se  Se240  1  0.91294837  0.75544423  0.69484504  1
  Se  Se241  1  0.08431288  0.25852152  0.19485989  1
  Se  Se242  1  0.07986210  0.25297697  0.69898699  1
  Se  Se243  1  0.07993834  0.58889348  0.19429491  1
  Se  Se244  1  0.08039822  0.57325022  0.69050791  1
  Se  Se245  1  0.08240039  0.91899932  0.19064338  1
  Se  Se246  1  0.09389112  0.91065421  0.69669748  1
  Se  Se247  1  0.42182458  0.25465900  0.18844996  1
  Se  Se248  1  0.41093826  0.25780660  0.70142583  1
  Se  Se249  1  0.40835053  0.58659553  0.19135551  1
  Se  Se250  1  0.41369518  0.59015728  0.69929228  1
  Se  Se251  1  0.41686326  0.90155624  0.18885667  1
  Se  Se252  1  0.41852331  0.91602612  0.70269415  1
  Se  Se253  1  0.76854120  0.24982937  0.18568607  1
  Se  Se254  1  0.75065906  0.25446694  0.69815839  1
  Se  Se255  1  0.75955777  0.57545371  0.19134092  1
  Se  Se256  1  0.75406715  0.58812354  0.70496921  1
  Se  Se257  1  0.75744486  0.90244018  0.18959750  1
  Se  Se258  1  0.76001637  0.90993795  0.69545699  1
