# generated using pymatgen
data_In86Cu29Se144
_symmetry_space_group_name_H-M   'P 1'
_cell_length_a   17.64021622
_cell_length_b   17.64178651
_cell_length_c   23.50614647
_cell_angle_alpha   89.98703281
_cell_angle_beta   90.00266301
_cell_angle_gamma   90.00662212
_symmetry_Int_Tables_number   1
_chemical_formula_structural   In86Cu29Se144
_chemical_formula_sum   'In86 Cu29 Se144'
_cell_volume   7315.22838970
_cell_formula_units_Z   1
loop_
 _symmetry_equiv_pos_site_id
 _symmetry_equiv_pos_as_xyz
  1  'x, y, z'
loop_
 _atom_site_type_symbol
 _atom_site_label
 _atom_site_symmetry_multiplicity
 _atom_site_fract_x
 _atom_site_fract_y
 _atom_site_fract_z
 _atom_site_occupancy
  In  In0  1  -0.00680770  0.17699333  0.12242268  1
  In  In1  1  -0.00525384  0.15536361  0.62387637  1
  In  In2  1  -0.00993818  0.49754955  0.11142543  1
  In  In3  1  0.00607767  0.51072342  0.62998535  1
  In  In4  1  -0.00243843  0.82719362  0.11973478  1
  In  In5  1  -0.01743659  0.82225640  0.61238134  1
  In  In6  1  0.35026161  0.15881661  0.12635317  1
  In  In7  1  0.32385956  0.16279044  0.62604945  1
  In  In8  1  0.33964295  0.50408890  0.12399845  1
  In  In9  1  0.34568617  0.50894639  0.62291595  1
  In  In10  1  0.33175332  0.83134702  0.12300575  1
  In  In11  1  0.33531203  0.82891115  0.62579543  1
  In  In12  1  0.65414553  0.15385061  0.11250563  1
  In  In13  1  0.66787864  0.16557736  0.63588660  1
  In  In14  1  0.65720987  0.50688074  0.11756238  1
  In  In15  1  0.62161039  0.54111817  0.67714653  1
  In  In16  1  0.66100060  0.82539268  0.12248006  1
  In  In17  1  0.65644865  0.83576066  0.62369596  1
  In  In18  1  0.16532932  -0.00259497  0.37627631  1
  In  In19  1  0.16798889  -0.01735310  0.87529128  1
  In  In20  1  0.19515173  0.33410534  0.36959482  1
  In  In21  1  0.18021977  0.33659747  0.88131975  1
  In  In22  1  0.17776638  0.66706565  0.37626690  1
  In  In23  1  0.17169815  0.66566496  0.87794264  1
  In  In24  1  0.49691582  -0.02161975  0.37005655  1
  In  In25  1  0.50014915  -0.00220710  0.87302072  1
  In  In26  1  0.50096202  0.35650013  0.36814497  1
  In  In27  1  0.51923972  0.33325451  0.89014171  1
  In  In28  1  0.50894920  0.67875011  0.37920960  1
  In  In29  1  0.50473063  0.66288894  0.87014528  1
  In  In30  1  0.82208213  -0.00659434  0.37148850  1
  In  In31  1  0.82444689  0.00344197  0.88045196  1
  In  In32  1  0.83422457  0.32798353  0.37093919  1
  In  In33  1  0.78975394  0.36168988  0.90617309  1
  In  In34  1  0.83624286  0.67605444  0.37491371  1
  In  In35  1  0.83378023  0.67697706  0.86790292  1
  In  In36  1  -0.00053510  0.16582620  0.37181792  1
  In  In37  1  -0.01452500  0.15403654  0.87567859  1
  In  In38  1  -0.00619886  0.49679771  0.37161300  1
  In  In39  1  -0.00798167  0.51479377  0.88159508  1
  In  In40  1  -0.00093920  0.84072809  0.38984840  1
  In  In41  1  0.00811799  0.82907911  0.87595683  1
  In  In42  1  0.33149118  0.17916212  0.36702457  1
  In  In43  1  0.35174646  0.17372138  0.87819476  1
  In  In44  1  0.38625319  0.55100645  0.32008709  1
  In  In45  1  0.33343898  0.50680342  0.88522216  1
  In  In46  1  0.34692473  0.81802888  0.39205645  1
  In  In47  1  0.33602376  0.82942749  0.87447257  1
  In  In48  1  0.67717695  0.16172439  0.36829096  1
  In  In49  1  0.66673415  0.16478669  0.87959638  1
  In  In50  1  0.65249607  0.50867907  0.37900965  1
  In  In51  1  0.66366152  0.51251968  0.87239354  1
  In  In52  1  0.66824492  0.82899797  0.37876090  1
  In  In53  1  0.66909871  0.82719828  0.86541081  1
  In  In54  1  0.17974270  -0.00844721  0.12310120  1
  In  In55  1  0.17672535  -0.00341918  0.62692153  1
  In  In56  1  0.16703105  0.34381907  0.12189583  1
  In  In57  1  0.16898830  0.33679556  0.62671651  1
  In  In58  1  0.18039939  0.67292492  0.12061875  1
  In  In59  1  0.15490770  0.67875663  0.63690136  1
  In  In60  1  0.50380201  -0.00046352  0.11992538  1
  In  In61  1  0.51487402  -0.01530118  0.63554193  1
  In  In62  1  0.50218320  0.33071729  0.11840976  1
  In  In63  1  0.49945094  0.35271191  0.62783951  1
  In  In64  1  0.49536557  0.66742659  0.12770706  1
  In  In65  1  0.48938309  0.66927904  0.62640208  1
  In  In66  1  0.81796031  -0.02091807  0.11504027  1
  In  In67  1  0.82948459  -0.02330649  0.63067991  1
  In  In68  1  0.80389974  0.32260913  0.09301843  1
  In  In69  1  0.82184003  0.32911935  0.63041432  1
  In  In70  1  0.81489532  0.65429358  0.11230014  1
  In  In71  1  0.79403820  0.71124235  0.67712233  1
  In  In72  1  0.50339503  0.15718608  0.49985451  1
  In  In73  1  -0.00235598  -0.00846288  0.74735368  1
  In  In74  1  0.33970177  -0.00160746  0.24655560  1
  In  In75  1  0.82331065  0.51013264  0.51966420  1
  In  In76  1  0.16819510  0.16589502  0.49596975  1
  In  In77  1  0.34667384  0.33863337  0.75931662  1
  In  In78  1  0.00135189  0.34694480  0.23187698  1
  In  In79  1  0.16909929  0.49852936  0.49742895  1
  In  In80  1  0.16728219  0.16333313  0.00428610  1
  In  In81  1  -0.00193681  0.00151911  0.25694570  1
  In  In82  1  -0.00247833  0.33148339  0.76409268  1
  In  In83  1  0.00286449  0.66614589  0.24708762  1
  In  In84  1  0.83257212  0.15807626  0.49433989  1
  In  In85  1  0.66368332  0.33816884  0.23630285  1
  Cu  Cu86  1  0.49913943  0.16717793  0.75660069  1
  Cu  Cu87  1  0.34003515  0.33987120  0.00053159  1
  Cu  Cu88  1  0.33452037  0.66145959  0.49569858  1
  Cu  Cu89  1  0.67054940  -0.00988561  0.49970388  1
  Cu  Cu90  1  0.34378418  0.34360879  0.49542835  1
  Cu  Cu91  1  0.33612415  -0.00490725  -0.00158297  1
  Cu  Cu92  1  0.83253920  0.49820208  0.75700305  1
  Cu  Cu93  1  0.81994322  0.82435177  0.24592954  1
  Cu  Cu94  1  0.17433452  0.50571323  0.75560720  1
  Cu  Cu95  1  0.65732760  0.33925871  0.50234125  1
  Cu  Cu96  1  0.66099729  -0.00884419  -0.00625100  1
  Cu  Cu97  1  0.66404736  0.67406719  -0.00424438  1
  Cu  Cu98  1  -0.00137501  0.67119280  0.50384922  1
  Cu  Cu99  1  -0.00246686  0.33009602  -0.00225946  1
  Cu  Cu100  1  0.16994155  0.49920572  0.24334772  1
  Cu  Cu101  1  0.17526622  0.82741797  0.75250439  1
  Cu  Cu102  1  0.33748819  -0.00722803  0.50436856  1
  Cu  Cu103  1  -0.00089618  -0.00856194  -0.00234377  1
  Cu  Cu104  1  -0.00578979  0.33220326  0.49434919  1
  Cu  Cu105  1  0.82217328  0.16811003  0.75958850  1
  Cu  Cu106  1  0.16536431  0.16302546  0.74681050  1
  Cu  Cu107  1  0.49420036  0.83208599  0.75271203  1
  Cu  Cu108  1  0.00230477  0.66796141  -0.00251063  1
  Cu  Cu109  1  0.33771618  0.66891260  -0.00019349  1
  Cu  Cu110  1  0.50732267  0.16930166  0.24201530  1
  Cu  Cu111  1  0.16924897  0.83427151  0.25253570  1
  Cu  Cu112  1  0.82299640  0.49394671  0.23914439  1
  Cu  Cu113  1  0.83604817  0.16273904  0.24162464  1
  Cu  Cu114  1  0.66707770  0.66884653  0.51558688  1
  Se  Se115  1  0.07500365  0.07162246  0.06256481  1
  Se  Se116  1  0.08086069  0.07560423  0.55578443  1
  Se  Se117  1  0.08044803  0.41335023  0.05012869  1
  Se  Se118  1  0.07249706  0.40888610  0.55696912  1
  Se  Se119  1  0.08550365  0.74689992  0.05546445  1
  Se  Se120  1  0.08767102  0.75049633  0.55473547  1
  Se  Se121  1  0.41919195  0.08038151  0.05010599  1
  Se  Se122  1  0.41424550  0.07450332  0.56511596  1
  Se  Se123  1  0.42257613  0.42236123  0.05420693  1
  Se  Se124  1  0.42239110  0.42603825  0.55147702  1
  Se  Se125  1  0.41771226  0.75203642  0.05584360  1
  Se  Se126  1  0.41282647  0.74738775  0.55159670  1
  Se  Se127  1  0.74525244  0.07303962  0.04946637  1
  Se  Se128  1  0.74313454  0.07727328  0.56022737  1
  Se  Se129  1  0.73914852  0.43265332  0.04209255  1
  Se  Se130  1  0.73363253  0.41289852  0.56740787  1
  Se  Se131  1  0.75052674  0.75557987  0.04873421  1
  Se  Se132  1  0.75338243  0.74583944  0.57172665  1
  Se  Se133  1  0.26116866  0.25400944  0.05964647  1
  Se  Se134  1  0.26030424  0.26395490  0.55292174  1
  Se  Se135  1  0.25468652  0.58346062  0.05309862  1
  Se  Se136  1  0.24900244  0.59133913  0.56164315  1
  Se  Se137  1  0.25100448  0.91176880  0.04954819  1
  Se  Se138  1  0.25161770  0.91269261  0.55623352  1
  Se  Se139  1  0.60172151  0.26513057  0.05453882  1
  Se  Se140  1  0.58584511  0.25098722  0.56183528  1
  Se  Se141  1  0.57836669  0.59491690  0.05072867  1
  Se  Se142  1  0.58868726  0.58360142  0.57103240  1
  Se  Se143  1  0.58110766  0.91124182  0.05298338  1
  Se  Se144  1  0.57731690  0.91595364  0.55024719  1
  Se  Se145  1  0.91320833  0.24427559  0.04601455  1
  Se  Se146  1  0.91847669  0.25366978  0.55708475  1
  Se  Se147  1  0.91207379  0.58530732  0.04596512  1
  Se  Se148  1  0.92070189  0.59886244  0.56839822  1
  Se  Se149  1  0.91530930  0.90809097  0.05114735  1
  Se  Se150  1  0.92216514  0.93112200  0.55483152  1
  Se  Se151  1  0.08122866  0.26237205  0.43496842  1
  Se  Se152  1  0.07871729  0.24905132  0.93789461  1
  Se  Se153  1  0.07049822  0.58832532  0.44037963  1
  Se  Se154  1  0.08809463  0.58298522  0.94792696  1
  Se  Se155  1  0.09141125  0.92006392  0.44887098  1
  Se  Se156  1  0.08748701  0.91070506  0.94908599  1
  Se  Se157  1  0.41980237  0.25420891  0.44024187  1
  Se  Se158  1  0.42392075  0.25290494  0.95218575  1
  Se  Se159  1  0.40888075  0.58723439  0.42931347  1
  Se  Se160  1  0.42434071  0.58819042  0.94723545  1
  Se  Se161  1  0.42567665  0.91341526  0.45302099  1
  Se  Se162  1  0.41823492  0.91426010  0.94275898  1
  Se  Se163  1  0.73898760  0.26009873  0.44399324  1
  Se  Se164  1  0.75966967  0.23254617  0.94963125  1
  Se  Se165  1  0.74347295  0.59387583  0.44617508  1
  Se  Se166  1  0.74966710  0.59758249  0.93785189  1
  Se  Se167  1  0.75709216  0.90979841  0.44753404  1
  Se  Se168  1  0.74543835  0.90853978  0.94119612  1
  Se  Se169  1  0.26820211  0.07880140  0.44085653  1
  Se  Se170  1  0.25602791  0.07943087  0.93906680  1
  Se  Se171  1  0.26732504  0.42568271  0.43604274  1
  Se  Se172  1  0.25056618  0.42088289  0.95308717  1
  Se  Se173  1  0.24418842  0.74899791  0.45243523  1
  Se  Se174  1  0.25266838  0.75072018  0.94629507  1
  Se  Se175  1  0.59548925  0.07372998  0.43725323  1
  Se  Se176  1  0.57922368  0.08020761  0.94485648  1
  Se  Se177  1  0.57688545  0.42273121  0.44886995  1
  Se  Se178  1  0.60612764  0.42034544  0.95003009  1
  Se  Se179  1  0.59069903  0.75036548  0.45439507  1
  Se  Se180  1  0.58270157  0.75271280  0.93706832  1
  Se  Se181  1  0.92626750  0.07048847  0.43689743  1
  Se  Se182  1  0.91366540  0.07732143  0.95153056  1
  Se  Se183  1  0.90916975  0.41700126  0.44435246  1
  Se  Se184  1  0.91908483  0.41521304  0.94288340  1
  Se  Se185  1  0.91307315  0.75065357  0.44948055  1
  Se  Se186  1  0.91978779  0.74965807  0.94217636  1
  Se  Se187  1  0.24910948  0.24675566  0.29352177  1
  Se  Se188  1  0.24570526  0.24307827  0.80733540  1
  Se  Se189  1  0.24241910  0.58801727  0.29874564  1
  Se  Se190  1  0.25875582  0.58465915  0.80933824  1
  Se  Se191  1  0.25270590  0.91166921  0.31168402  1
  Se  Se192  1  0.25517077  0.91533299  0.80332503  1
  Se  Se193  1  0.58251144  0.24921264  0.30788053  1
  Se  Se194  1  0.58116617  0.24804405  0.81161057  1
  Se  Se195  1  0.57092548  0.58001489  0.30743021  1
  Se  Se196  1  0.59160983  0.59115841  0.79492531  1
  Se  Se197  1  0.60101585  0.92255551  0.30867984  1
  Se  Se198  1  0.58084525  0.91466314  0.80339652  1
  Se  Se199  1  0.91594463  0.24759073  0.29679924  1
  Se  Se200  1  0.90004639  0.24891776  0.81898014  1
  Se  Se201  1  0.90475133  0.57185987  0.30076081  1
  Se  Se202  1  0.91681919  0.58503007  0.80335376  1
  Se  Se203  1  0.90844455  0.89912014  0.30554457  1
  Se  Se204  1  0.90981496  0.91167636  0.81310568  1
  Se  Se205  1  0.09697073  0.09528789  0.30512045  1
  Se  Se206  1  0.08765774  0.08473524  0.80923385  1
  Se  Se207  1  0.09007293  0.42166175  0.30633116  1
  Se  Se208  1  0.09392498  0.42409785  0.81474653  1
  Se  Se209  1  0.08390216  0.75865332  0.31211571  1
  Se  Se210  1  0.08995026  0.74780094  0.80677852  1
  Se  Se211  1  0.42984789  0.09138953  0.30836995  1
  Se  Se212  1  0.41349954  0.08321965  0.80562736  1
  Se  Se213  1  0.39474044  0.40450243  0.30480773  1
  Se  Se214  1  0.43157055  0.42324474  0.82264579  1
  Se  Se215  1  0.41844081  0.75588162  0.31076955  1
  Se  Se216  1  0.41501231  0.74492543  0.80488360  1
  Se  Se217  1  0.75533079  0.08121629  0.29749024  1
  Se  Se218  1  0.74214957  0.07752316  0.80717379  1
  Se  Se219  1  0.74998165  0.42032667  0.30921100  1
  Se  Se220  1  0.74768276  0.41862726  0.80962338  1
  Se  Se221  1  0.74474256  0.74198262  0.30577426  1
  Se  Se222  1  0.74901261  0.74647071  0.79218809  1
  Se  Se223  1  0.24512482  0.08990881  0.19113327  1
  Se  Se224  1  0.25196510  0.08020555  0.69908559  1
  Se  Se225  1  0.25356532  0.41792344  0.19075954  1
  Se  Se226  1  0.25000453  0.42219694  0.69508544  1
  Se  Se227  1  0.25065730  0.75351295  0.19680511  1
  Se  Se228  1  0.25856364  0.74369845  0.69810856  1
  Se  Se229  1  0.58506663  0.07977677  0.19258701  1
  Se  Se230  1  0.58056591  0.08473300  0.70034613  1
  Se  Se231  1  0.56703242  0.43119292  0.19099655  1
  Se  Se232  1  0.58946950  0.40212661  0.70348710  1
  Se  Se233  1  0.59955421  0.72845120  0.19167252  1
  Se  Se234  1  0.57419621  0.75290506  0.69391369  1
  Se  Se235  1  0.91225366  0.07816096  0.18375923  1
  Se  Se236  1  0.90172162  0.09024404  0.69641960  1
  Se  Se237  1  0.89315489  0.41363811  0.17450474  1
  Se  Se238  1  0.91678827  0.41718679  0.69383320  1
  Se  Se239  1  0.90486459  0.74663692  0.18730179  1
  Se  Se240  1  0.93080675  0.75561001  0.70037372  1
  Se  Se241  1  0.09285346  0.24334401  0.18911810  1
  Se  Se242  1  0.08383965  0.24369521  0.69069267  1
  Se  Se243  1  0.08376630  0.57385824  0.18336352  1
  Se  Se244  1  0.08496557  0.58354841  0.70412207  1
  Se  Se245  1  0.08670908  0.91116188  0.19300953  1
  Se  Se246  1  0.09255516  0.90551888  0.69100605  1
  Se  Se247  1  0.42205302  0.25204658  0.19242789  1
  Se  Se248  1  0.42103946  0.24345832  0.68998680  1
  Se  Se249  1  0.40522628  0.59224187  0.19902653  1
  Se  Se250  1  0.43064200  0.56918631  0.69777344  1
  Se  Se251  1  0.42919325  0.90651134  0.19162026  1
  Se  Se252  1  0.41310257  0.91574939  0.69624514  1
  Se  Se253  1  0.75445929  0.24259361  0.18303789  1
  Se  Se254  1  0.74450776  0.25354574  0.70424057  1
  Se  Se255  1  0.74141702  0.58211926  0.19130012  1
  Se  Se256  1  0.76855984  0.56509669  0.68036149  1
  Se  Se257  1  0.74152556  0.91205511  0.19402186  1
  Se  Se258  1  0.73060249  0.92201760  0.69671800  1
