# generated using pymatgen
data_In86Cu29Se144
_symmetry_space_group_name_H-M   'P 1'
_cell_length_a   17.70272787
_cell_length_b   17.70095046
_cell_length_c   23.54513326
_cell_angle_alpha   89.99303301
_cell_angle_beta   89.98935260
_cell_angle_gamma   89.97149083
_symmetry_Int_Tables_number   1
_chemical_formula_structural   In86Cu29Se144
_chemical_formula_sum   'In86 Cu29 Se144'
_cell_volume   7377.98670428
_cell_formula_units_Z   1
loop_
 _symmetry_equiv_pos_site_id
 _symmetry_equiv_pos_as_xyz
  1  'x, y, z'
loop_
 _atom_site_type_symbol
 _atom_site_label
 _atom_site_symmetry_multiplicity
 _atom_site_fract_x
 _atom_site_fract_y
 _atom_site_fract_z
 _atom_site_occupancy
  In  In0  1  0.01284783  0.16618178  0.12092337  1
  In  In1  1  -0.00608178  0.16309282  0.63035159  1
  In  In2  1  -0.00767649  0.50007928  0.12444720  1
  In  In3  1  0.00548401  0.50601009  0.61943041  1
  In  In4  1  -0.01159448  0.82717573  0.11635644  1
  In  In5  1  0.00054524  0.84317725  0.62939790  1
  In  In6  1  0.32626399  0.16868298  0.12180802  1
  In  In7  1  0.32650500  0.16398272  0.62600554  1
  In  In8  1  0.32128382  0.50354830  0.11897252  1
  In  In9  1  0.33371487  0.50923627  0.61899683  1
  In  In10  1  0.34343669  0.82497332  0.12329482  1
  In  In11  1  0.34538005  0.83203587  0.62418851  1
  In  In12  1  0.64385513  0.17096429  0.12208760  1
  In  In13  1  0.67634081  0.17210568  0.62846582  1
  In  In14  1  0.67403944  0.51363302  0.11992635  1
  In  In15  1  0.66735016  0.49427403  0.63306023  1
  In  In16  1  0.65852491  0.82786559  0.13256384  1
  In  In17  1  0.64960566  0.82382889  0.61746147  1
  In  In18  1  0.19329192  -0.01653284  0.37323277  1
  In  In19  1  0.17184760  -0.00418542  0.87839557  1
  In  In20  1  0.18903195  0.36115185  0.35594994  1
  In  In21  1  0.22746402  0.29827460  0.93915299  1
  In  In22  1  0.17024224  0.65754233  0.37335029  1
  In  In23  1  0.18731438  0.64837997  0.89313922  1
  In  In24  1  0.49976753  -0.00136438  0.37396612  1
  In  In25  1  0.49229813  -0.00170938  0.88039506  1
  In  In26  1  0.49002665  0.34555289  0.36812422  1
  In  In27  1  0.50363689  0.32971109  0.87740783  1
  In  In28  1  0.53753374  0.70905679  0.31923387  1
  In  In29  1  0.50660142  0.65648225  0.88847235  1
  In  In30  1  0.82003075  -0.00464349  0.37403842  1
  In  In31  1  0.83370323  -0.01632838  0.87650695  1
  In  In32  1  0.84785481  0.33456358  0.37224855  1
  In  In33  1  0.83113133  0.34745297  0.87641455  1
  In  In34  1  0.82653646  0.67509097  0.38567740  1
  In  In35  1  0.83026231  0.66840039  0.87681134  1
  In  In36  1  -0.00039434  0.17269455  0.36970812  1
  In  In37  1  0.02155517  0.16983738  0.87667405  1
  In  In38  1  0.00842971  0.49745625  0.37857240  1
  In  In39  1  0.00766549  0.48274452  0.88125047  1
  In  In40  1  -0.00026732  0.82278198  0.37827309  1
  In  In41  1  -0.00082501  0.83271781  0.87763335  1
  In  In42  1  0.33018907  0.16933956  0.36933788  1
  In  In43  1  0.34542496  0.15305069  0.88019203  1
  In  In44  1  0.33434087  0.50785325  0.36331230  1
  In  In45  1  0.37225306  0.47918514  0.95502766  1
  In  In46  1  0.38233602  0.86317548  0.31562812  1
  In  In47  1  0.32788346  0.83222912  0.88625465  1
  In  In48  1  0.67094362  0.16012988  0.37055065  1
  In  In49  1  0.65112835  0.16086243  0.87678985  1
  In  In50  1  0.66195654  0.51235409  0.37334829  1
  In  In51  1  0.66991268  0.50396042  0.87567842  1
  In  In52  1  0.66897425  0.83934365  0.38216787  1
  In  In53  1  0.67685691  0.82399853  0.88062381  1
  In  In54  1  0.17490099  0.00530954  0.11839626  1
  In  In55  1  0.17281560  -0.00529989  0.63782579  1
  In  In56  1  0.16320967  0.33317508  0.12308645  1
  In  In57  1  0.16357326  0.33710074  0.62411570  1
  In  In58  1  0.17979519  0.68019747  0.09830434  1
  In  In59  1  0.18052075  0.65938179  0.62248579  1
  In  In60  1  0.49367863  -0.00092585  0.13019385  1
  In  In61  1  0.49786498  -0.01495837  0.62461468  1
  In  In62  1  0.48870119  0.32243589  0.11788165  1
  In  In63  1  0.50053382  0.34526603  0.63020899  1
  In  In64  1  0.49930562  0.66596493  0.12166547  1
  In  In65  1  0.49691779  0.67741566  0.62535324  1
  In  In66  1  0.82559226  -0.01595754  0.12713655  1
  In  In67  1  0.83993942  0.00236741  0.62698576  1
  In  In68  1  0.83215863  0.35535716  0.13122850  1
  In  In69  1  0.82834949  0.33149625  0.62667924  1
  In  In70  1  0.81700151  0.65719890  0.12361441  1
  In  In71  1  0.82009943  0.65542434  0.61647521  1
  In  In72  1  0.00442635  0.00450428  0.24760272  1
  In  In73  1  0.66761971  -0.00019297  0.74565193  1
  In  In74  1  0.82890501  0.16135446  -0.00059519  1
  In  In75  1  0.83482825  0.16529410  0.50539070  1
  In  In76  1  0.49262569  0.50475460  0.49357024  1
  In  In77  1  0.66499742  0.33518964  0.24618101  1
  In  In78  1  -0.00155636  0.65832659  0.25045997  1
  In  In79  1  0.16811816  0.82674990  0.49993604  1
  In  In80  1  0.16435443  0.17248193  0.49681482  1
  In  In81  1  0.49604838  0.16686997  0.49300453  1
  In  In82  1  0.00081233  0.67271998  0.75466332  1
  In  In83  1  0.33917277  0.66946254  0.75620948  1
  In  In84  1  0.33813435  0.33835962  0.76773178  1
  In  In85  1  0.00289381  0.33102792  0.75299367  1
  Cu  Cu86  1  -0.00008605  -0.00227379  0.00223644  1
  Cu  Cu87  1  0.49265400  0.16855003  0.24349974  1
  Cu  Cu88  1  0.16837378  0.83597149  0.75847707  1
  Cu  Cu89  1  0.16201874  0.50349353  0.24083290  1
  Cu  Cu90  1  0.49877341  0.16920094  0.75546985  1
  Cu  Cu91  1  0.33892491  -0.00494076  0.00463838  1
  Cu  Cu92  1  0.83048655  0.50345671  0.75029219  1
  Cu  Cu93  1  0.50425736  0.49776254  0.76082830  1
  Cu  Cu94  1  0.66275688  0.33680580  0.00405219  1
  Cu  Cu95  1  0.66899744  0.67051137  0.00222356  1
  Cu  Cu96  1  0.33358998  0.66884495  0.49063489  1
  Cu  Cu97  1  0.17118655  0.49701000  0.75658018  1
  Cu  Cu98  1  0.82739284  0.83113094  0.25293752  1
  Cu  Cu99  1  0.83489218  0.16601822  0.74959842  1
  Cu  Cu100  1  0.67038159  0.33450534  0.50395302  1
  Cu  Cu101  1  0.00112899  0.00045108  0.50335521  1
  Cu  Cu102  1  -0.01464841  0.67090618  -0.00092902  1
  Cu  Cu103  1  0.65239355  -0.00629857  0.00481246  1
  Cu  Cu104  1  0.00916113  0.34513635  0.49663313  1
  Cu  Cu105  1  0.83192803  0.16719362  0.24966589  1
  Cu  Cu106  1  0.83250217  0.83044532  0.75371173  1
  Cu  Cu107  1  0.50344555  0.83406947  0.74996129  1
  Cu  Cu108  1  0.65492094  0.66775096  0.49192122  1
  Cu  Cu109  1  0.17891708  0.16124148  0.75854301  1
  Cu  Cu110  1  -0.00440720  0.66466189  0.50009197  1
  Cu  Cu111  1  -0.00692622  0.33352860  0.00369799  1
  Cu  Cu112  1  0.16737491  0.16623070  0.24447161  1
  Cu  Cu113  1  0.16967410  0.82820320  0.23618863  1
  Cu  Cu114  1  0.49180604  0.49715938  0.23837863  1
  Se  Se115  1  0.08592772  0.08233422  0.05001937  1
  Se  Se116  1  0.08172459  0.07852245  0.56258498  1
  Se  Se117  1  0.07535823  0.41514890  0.05807977  1
  Se  Se118  1  0.09146898  0.42337709  0.55403709  1
  Se  Se119  1  0.07389113  0.75458941  0.04548771  1
  Se  Se120  1  0.07634295  0.74021610  0.56448728  1
  Se  Se121  1  0.41491197  0.08347948  0.05937788  1
  Se  Se122  1  0.41210282  0.07899776  0.55914508  1
  Se  Se123  1  0.41943272  0.42727726  0.05397082  1
  Se  Se124  1  0.40953574  0.40921602  0.55632280  1
  Se  Se125  1  0.40543088  0.73121722  0.04984901  1
  Se  Se126  1  0.41474732  0.74739941  0.55044193  1
  Se  Se127  1  0.73673265  0.07609841  0.06147416  1
  Se  Se128  1  0.74041322  0.07412883  0.55899007  1
  Se  Se129  1  0.74854144  0.41810111  0.05437964  1
  Se  Se130  1  0.74915029  0.41718840  0.55967208  1
  Se  Se131  1  0.74607589  0.75419975  0.06032860  1
  Se  Se132  1  0.73828808  0.74346284  0.55238446  1
  Se  Se133  1  0.25055926  0.25744999  0.05115043  1
  Se  Se134  1  0.25759452  0.25998693  0.55690756  1
  Se  Se135  1  0.22549000  0.56015531  0.04591336  1
  Se  Se136  1  0.25318833  0.58428770  0.54578405  1
  Se  Se137  1  0.25671606  0.91288359  0.05891609  1
  Se  Se138  1  0.25393107  0.92041969  0.56067103  1
  Se  Se139  1  0.57448390  0.24970001  0.04550975  1
  Se  Se140  1  0.58622790  0.25620788  0.56051006  1
  Se  Se141  1  0.58396109  0.58496862  0.05163375  1
  Se  Se142  1  0.58378475  0.58592322  0.55993418  1
  Se  Se143  1  0.57635933  0.91226720  0.06365592  1
  Se  Se144  1  0.57794750  0.91581531  0.55140615  1
  Se  Se145  1  0.91300528  0.25226720  0.06251648  1
  Se  Se146  1  0.93143898  0.26168112  0.55746909  1
  Se  Se147  1  0.91099366  0.58580528  0.05712536  1
  Se  Se148  1  0.91462256  0.57953949  0.55329430  1
  Se  Se149  1  0.91036361  0.91925299  0.05182146  1
  Se  Se150  1  0.91890248  0.91885196  0.55703524  1
  Se  Se151  1  0.08179948  0.26297914  0.43439583  1
  Se  Se152  1  0.08227298  0.25688080  0.95095699  1
  Se  Se153  1  0.08296350  0.58839420  0.44580497  1
  Se  Se154  1  0.06518128  0.59333577  0.93919856  1
  Se  Se155  1  0.08119324  0.92494738  0.43944955  1
  Se  Se156  1  0.08121243  0.91770578  0.94449040  1
  Se  Se157  1  0.40705502  0.26263543  0.43971356  1
  Se  Se158  1  0.39756349  0.26627665  0.93970923  1
  Se  Se159  1  0.41799910  0.59618705  0.42959821  1
  Se  Se160  1  0.39198605  0.62413630  0.95414563  1
  Se  Se161  1  0.39324624  0.91671825  0.41836123  1
  Se  Se162  1  0.41991078  0.91100344  0.95038116  1
  Se  Se163  1  0.74701293  0.25470172  0.44127610  1
  Se  Se164  1  0.74095265  0.25502089  0.94069705  1
  Se  Se165  1  0.74411535  0.58225858  0.44789058  1
  Se  Se166  1  0.74993308  0.58599253  0.94643825  1
  Se  Se167  1  0.76136712  0.91141103  0.44949501  1
  Se  Se168  1  0.74273408  0.92131384  0.94867228  1
  Se  Se169  1  0.25846345  0.07873455  0.44501498  1
  Se  Se170  1  0.25671219  0.07671163  0.94766167  1
  Se  Se171  1  0.25590138  0.42876710  0.43675972  1
  Se  Se172  1  0.23378075  0.44388992  0.93761470  1
  Se  Se173  1  0.25513754  0.75135387  0.43228470  1
  Se  Se174  1  0.23101164  0.76357671  0.95032348  1
  Se  Se175  1  0.59461493  0.07782671  0.44373732  1
  Se  Se176  1  0.57653253  0.08064253  0.94895668  1
  Se  Se177  1  0.58887314  0.40839842  0.44083079  1
  Se  Se178  1  0.58671713  0.41697217  0.94215970  1
  Se  Se179  1  0.57648192  0.73755178  0.42588690  1
  Se  Se180  1  0.58568769  0.75238954  0.94861741  1
  Se  Se181  1  0.92452179  0.08003138  0.44045040  1
  Se  Se182  1  0.92363388  0.07858725  0.93831964  1
  Se  Se183  1  0.91674497  0.41932541  0.44556792  1
  Se  Se184  1  0.91179604  0.41804760  0.95072108  1
  Se  Se185  1  0.91641619  0.75465768  0.45200450  1
  Se  Se186  1  0.90777181  0.75666302  0.94365471  1
  Se  Se187  1  0.24866645  0.24976026  0.29982984  1
  Se  Se188  1  0.24589629  0.24653682  0.82112373  1
  Se  Se189  1  0.24459549  0.58574689  0.29526270  1
  Se  Se190  1  0.25662797  0.57398869  0.81243315  1
  Se  Se191  1  0.24882520  0.91840253  0.28518814  1
  Se  Se192  1  0.25708988  0.91403667  0.80995375  1
  Se  Se193  1  0.57430502  0.24473301  0.30800560  1
  Se  Se194  1  0.58477105  0.25073453  0.80480243  1
  Se  Se195  1  0.57928446  0.57048485  0.29462394  1
  Se  Se196  1  0.58365206  0.58841016  0.80945167  1
  Se  Se197  1  0.58533460  0.91500316  0.31043717  1
  Se  Se198  1  0.58379441  0.91306238  0.81134417  1
  Se  Se199  1  0.91755685  0.24943609  0.29870210  1
  Se  Se200  1  0.91176861  0.24304550  0.81481007  1
  Se  Se201  1  0.91028354  0.58257465  0.31860816  1
  Se  Se202  1  0.91699338  0.57357071  0.81075413  1
  Se  Se203  1  0.91674614  0.91031623  0.30735966  1
  Se  Se204  1  0.91805939  0.91207496  0.80385472  1
  Se  Se205  1  0.09769314  0.08477624  0.31243084  1
  Se  Se206  1  0.09005716  0.07974652  0.80730227  1
  Se  Se207  1  0.07993850  0.42323163  0.29855711  1
  Se  Se208  1  0.09826833  0.40868488  0.81285778  1
  Se  Se209  1  0.09072719  0.75781607  0.30327345  1
  Se  Se210  1  0.09762710  0.74777994  0.81665322  1
  Se  Se211  1  0.41985251  0.08870583  0.30682341  1
  Se  Se212  1  0.42081480  0.07886065  0.80389131  1
  Se  Se213  1  0.40999832  0.41658676  0.29417187  1
  Se  Se214  1  0.41815439  0.43561442  0.82537606  1
  Se  Se215  1  0.39432721  0.72059362  0.29864130  1
  Se  Se216  1  0.42789083  0.75752333  0.81590553  1
  Se  Se217  1  0.75150952  0.08117854  0.30013237  1
  Se  Se218  1  0.75550511  0.08657552  0.81145339  1
  Se  Se219  1  0.75104486  0.41856434  0.31150573  1
  Se  Se220  1  0.74870929  0.41910636  0.80341994  1
  Se  Se221  1  0.74928472  0.75151133  0.31169182  1
  Se  Se222  1  0.74942856  0.74637210  0.80400937  1
  Se  Se223  1  0.25053246  0.08260474  0.19315237  1
  Se  Se224  1  0.25835922  0.08108962  0.70053816  1
  Se  Se225  1  0.24609314  0.41719850  0.19066854  1
  Se  Se226  1  0.25249349  0.42137226  0.69295181  1
  Se  Se227  1  0.24812164  0.74207762  0.18402818  1
  Se  Se228  1  0.24518092  0.75707107  0.69372665  1
  Se  Se229  1  0.57999829  0.08484365  0.19637986  1
  Se  Se230  1  0.57449232  0.09173558  0.68878151  1
  Se  Se231  1  0.57551007  0.41618501  0.18081533  1
  Se  Se232  1  0.58322995  0.41502712  0.70328113  1
  Se  Se233  1  0.57656099  0.74116922  0.19897303  1
  Se  Se234  1  0.58289801  0.74735776  0.69789190  1
  Se  Se235  1  0.90984460  0.08778977  0.18598351  1
  Se  Se236  1  0.91838186  0.08030132  0.70084026  1
  Se  Se237  1  0.92052099  0.42137750  0.20088453  1
  Se  Se238  1  0.91581607  0.42463165  0.69175916  1
  Se  Se239  1  0.90787383  0.75284986  0.19355572  1
  Se  Se240  1  0.90829070  0.75042210  0.68863918  1
  Se  Se241  1  0.08255982  0.24891277  0.19444986  1
  Se  Se242  1  0.09739783  0.23750297  0.69462788  1
  Se  Se243  1  0.09094956  0.59045107  0.18013278  1
  Se  Se244  1  0.09485467  0.57797564  0.69628003  1
  Se  Se245  1  0.08214653  0.90965365  0.18337571  1
  Se  Se246  1  0.08445168  0.91426486  0.70218956  1
  Se  Se247  1  0.40861817  0.25119334  0.19274507  1
  Se  Se248  1  0.41765534  0.24936726  0.69521986  1
  Se  Se249  1  0.41073392  0.58104580  0.18550610  1
  Se  Se250  1  0.42679553  0.57399435  0.69398063  1
  Se  Se251  1  0.41866912  0.90648625  0.19720233  1
  Se  Se252  1  0.41586924  0.91419823  0.69931382  1
  Se  Se253  1  0.75255517  0.24289617  0.18480917  1
  Se  Se254  1  0.75224374  0.25252846  0.70066609  1
  Se  Se255  1  0.75337770  0.57389203  0.19974092  1
  Se  Se256  1  0.74737590  0.58522999  0.69682412  1
  Se  Se257  1  0.74337673  0.91329444  0.20020121  1
  Se  Se258  1  0.75383747  0.90571383  0.68780994  1
