# generated using pymatgen
data_In86Cu29Se144
_symmetry_space_group_name_H-M   'P 1'
_cell_length_a   17.57564635
_cell_length_b   17.57389114
_cell_length_c   23.42938005
_cell_angle_alpha   90.01831948
_cell_angle_beta   89.96896195
_cell_angle_gamma   90.00484253
_symmetry_Int_Tables_number   1
_chemical_formula_structural   In86Cu29Se144
_chemical_formula_sum   'In86 Cu29 Se144'
_cell_volume   7236.68962792
_cell_formula_units_Z   1
loop_
 _symmetry_equiv_pos_site_id
 _symmetry_equiv_pos_as_xyz
  1  'x, y, z'
loop_
 _atom_site_type_symbol
 _atom_site_label
 _atom_site_symmetry_multiplicity
 _atom_site_fract_x
 _atom_site_fract_y
 _atom_site_fract_z
 _atom_site_occupancy
  In  In0  1  -0.00556122  0.16419911  0.13545163  1
  In  In1  1  -0.01341392  0.16252529  0.62998053  1
  In  In2  1  -0.02880448  0.51968086  0.14541144  1
  In  In3  1  0.00342811  0.51187827  0.61979980  1
  In  In4  1  -0.00335448  0.84649732  0.12980716  1
  In  In5  1  0.00905521  0.82675642  0.62729881  1
  In  In6  1  0.33558132  0.16710355  0.10657551  1
  In  In7  1  0.33796086  0.16359810  0.63047900  1
  In  In8  1  0.34544704  0.50172193  0.12559119  1
  In  In9  1  0.33926943  0.49879954  0.63591420  1
  In  In10  1  0.32090661  0.82675423  0.12343179  1
  In  In11  1  0.33028864  0.83291624  0.62625651  1
  In  In12  1  0.66857586  0.18589277  0.12250613  1
  In  In13  1  0.66463914  0.18500043  0.63014138  1
  In  In14  1  0.66861769  0.50155872  0.12871078  1
  In  In15  1  0.67296512  0.49406362  0.62802568  1
  In  In16  1  0.66823706  0.81504078  0.12503673  1
  In  In17  1  0.65131435  0.83109966  0.62419980  1
  In  In18  1  0.15405289  -0.00112988  0.37744867  1
  In  In19  1  0.17571220  0.00726779  0.87007118  1
  In  In20  1  0.16815634  0.33976020  0.37419918  1
  In  In21  1  0.17033230  0.31683099  0.88028215  1
  In  In22  1  0.17641062  0.67599880  0.36340522  1
  In  In23  1  0.16930885  0.67256863  0.86965472  1
  In  In24  1  0.49020063  0.00658811  0.38279191  1
  In  In25  1  0.49475300  0.01376877  0.87939761  1
  In  In26  1  0.50076555  0.32671743  0.37529792  1
  In  In27  1  0.50341422  0.33529763  0.87090856  1
  In  In28  1  0.50724216  0.66986430  0.37264925  1
  In  In29  1  0.49511370  0.65858671  0.87189158  1
  In  In30  1  0.84187419  -0.01069876  0.37013896  1
  In  In31  1  0.83825561  -0.01824976  0.88045972  1
  In  In32  1  0.84435239  0.35095917  0.35259735  1
  In  In33  1  0.83296855  0.34998361  0.87853048  1
  In  In34  1  0.83085266  0.65746830  0.36243829  1
  In  In35  1  0.83180476  0.66192196  0.87410190  1
  In  In36  1  -0.00750065  0.16565958  0.35907596  1
  In  In37  1  0.01937295  0.16245029  0.88447606  1
  In  In38  1  -0.00692080  0.49816482  0.36086889  1
  In  In39  1  -0.01464645  0.50038941  0.88019896  1
  In  In40  1  0.01325709  0.83628371  0.36434089  1
  In  In41  1  -0.00313451  0.82529146  0.87158264  1
  In  In42  1  0.34915294  0.17946536  0.38203694  1
  In  In43  1  0.33181006  0.16602424  0.87231763  1
  In  In44  1  0.33130675  0.49686859  0.37354591  1
  In  In45  1  0.34806236  0.51308601  0.86888822  1
  In  In46  1  0.33492243  0.82934470  0.38603507  1
  In  In47  1  0.33179501  0.83352028  0.86800519  1
  In  In48  1  0.65665719  0.17191141  0.37392933  1
  In  In49  1  0.65208821  0.16900812  0.87674979  1
  In  In50  1  0.68032659  0.51832179  0.35243817  1
  In  In51  1  0.66739887  0.49850531  0.87387558  1
  In  In52  1  0.66326160  0.82231619  0.37523716  1
  In  In53  1  0.68265490  0.83135337  0.87655477  1
  In  In54  1  0.14764415  0.00005170  0.11330673  1
  In  In55  1  0.17794455  -0.01033884  0.63278234  1
  In  In56  1  0.16104658  0.31915788  0.11958126  1
  In  In57  1  0.17045853  0.34699688  0.62575352  1
  In  In58  1  0.16605617  0.68037344  0.14065192  1
  In  In59  1  0.15595715  0.67273248  0.63109541  1
  In  In60  1  0.48892174  0.00987074  0.11663828  1
  In  In61  1  0.48765694  -0.01009183  0.62115982  1
  In  In62  1  0.51191263  0.34686334  0.11224954  1
  In  In63  1  0.50368719  0.33031009  0.62680947  1
  In  In64  1  0.52212635  0.64318757  0.14834726  1
  In  In65  1  0.49159724  0.67610497  0.63210974  1
  In  In66  1  0.86247250  -0.00080845  0.11764532  1
  In  In67  1  0.83898256  0.00903565  0.63253123  1
  In  In68  1  0.80689432  0.35248389  0.15126920  1
  In  In69  1  0.82182325  0.33546940  0.62418092  1
  In  In70  1  0.83012187  0.66563750  0.12211504  1
  In  In71  1  0.84299356  0.65641134  0.62666271  1
  In  In72  1  0.83782491  0.16933794  0.00810815  1
  In  In73  1  0.82792855  0.82953047  0.49269781  1
  In  In74  1  0.49735985  0.82893826  -0.00174708  1
  In  In75  1  0.00200117  0.33304319  0.75698135  1
  In  In76  1  0.82591941  0.16778225  0.49947197  1
  In  In77  1  0.66494841  -0.00239200  0.75479040  1
  In  In78  1  0.16991916  0.50519559  0.49111852  1
  In  In79  1  0.16755249  0.16242419  0.50465242  1
  In  In80  1  0.33638950  0.33415856  0.25046403  1
  In  In81  1  0.50487091  0.49778330  0.50020094  1
  In  In82  1  0.67507042  -0.00031628  0.24998808  1
  In  In83  1  0.32693838  -0.00655730  0.24565100  1
  In  In84  1  0.16484210  0.83718143  0.00218962  1
  In  In85  1  0.16517343  0.49238050  0.00648715  1
  Cu  Cu86  1  0.83855414  0.82985840  0.24656218  1
  Cu  Cu87  1  0.16639056  0.15874651  0.24653002  1
  Cu  Cu88  1  0.49848897  0.16872017  0.75128786  1
  Cu  Cu89  1  0.67009424  0.65583302  0.00212357  1
  Cu  Cu90  1  0.50022366  0.17279296  0.24421882  1
  Cu  Cu91  1  0.34194186  0.66198183  0.00528052  1
  Cu  Cu92  1  0.67034767  -0.00322976  -0.00073470  1
  Cu  Cu93  1  0.83606778  0.82462997  0.75060636  1
  Cu  Cu94  1  -0.00723858  0.66422690  0.00017019  1
  Cu  Cu95  1  -0.00301509  0.66611570  0.49846434  1
  Cu  Cu96  1  0.66897939  0.33999055  0.49830537  1
  Cu  Cu97  1  0.49807635  0.82960588  0.75058334  1
  Cu  Cu98  1  0.34053193  0.33451645  -0.00625887  1
  Cu  Cu99  1  0.16321463  0.83536887  0.74930476  1
  Cu  Cu100  1  0.83297457  0.50228539  0.75105048  1
  Cu  Cu101  1  -0.00897918  0.33772576  0.01072866  1
  Cu  Cu102  1  0.16998798  0.50109206  0.75291156  1
  Cu  Cu103  1  0.16571004  0.49722066  0.24997567  1
  Cu  Cu104  1  0.83524053  0.16549576  0.75593239  1
  Cu  Cu105  1  0.50768047  0.49938152  0.75025018  1
  Cu  Cu106  1  -0.00621118  0.33645823  0.48498458  1
  Cu  Cu107  1  0.33292484  -0.00229684  0.50678868  1
  Cu  Cu108  1  0.00122786  -0.00804193  0.49945789  1
  Cu  Cu109  1  0.33021559  0.67080941  0.50453885  1
  Cu  Cu110  1  0.66469585  0.66363468  0.49397278  1
  Cu  Cu111  1  0.65282145  0.00711209  0.50053888  1
  Cu  Cu112  1  0.66412333  0.33835143  0.00182311  1
  Cu  Cu113  1  0.49739330  0.82920732  0.25492423  1
  Cu  Cu114  1  0.17032916  0.16569571  0.75200316  1
  Se  Se115  1  0.07106773  0.09622495  0.05511562  1
  Se  Se116  1  0.07382094  0.07447534  0.56358100  1
  Se  Se117  1  0.06807450  0.42118136  0.07173395  1
  Se  Se118  1  0.07558175  0.41115541  0.54954054  1
  Se  Se119  1  0.07866851  0.74031219  0.05889481  1
  Se  Se120  1  0.08239082  0.74658008  0.55171892  1
  Se  Se121  1  0.42026109  0.08586357  0.03998421  1
  Se  Se122  1  0.41599376  0.08606179  0.55543073  1
  Se  Se123  1  0.41611351  0.42228613  0.04872234  1
  Se  Se124  1  0.41033330  0.41326393  0.55975169  1
  Se  Se125  1  0.42026132  0.74047301  0.06734575  1
  Se  Se126  1  0.41674282  0.75278575  0.55611343  1
  Se  Se127  1  0.74535732  0.07513085  0.06521702  1
  Se  Se128  1  0.73798018  0.07731425  0.56348461  1
  Se  Se129  1  0.74981187  0.41333280  0.05984937  1
  Se  Se130  1  0.75392473  0.42215643  0.55082450  1
  Se  Se131  1  0.75077807  0.74772964  0.04892389  1
  Se  Se132  1  0.74360560  0.74250533  0.55888397  1
  Se  Se133  1  0.25017335  0.25620483  0.04510829  1
  Se  Se134  1  0.25439442  0.25707819  0.56084278  1
  Se  Se135  1  0.24884862  0.59259596  0.06314043  1
  Se  Se136  1  0.25347382  0.58580807  0.56358700  1
  Se  Se137  1  0.26067355  0.92994269  0.05496792  1
  Se  Se138  1  0.24614476  0.91258259  0.55381833  1
  Se  Se139  1  0.58003481  0.24700039  0.04684665  1
  Se  Se140  1  0.58771108  0.25530465  0.55223108  1
  Se  Se141  1  0.58145059  0.58201329  0.05834497  1
  Se  Se142  1  0.58747566  0.59158905  0.56280188  1
  Se  Se143  1  0.58875446  0.91798975  0.06105542  1
  Se  Se144  1  0.57828963  0.91523378  0.55236679  1
  Se  Se145  1  0.90960596  0.26434024  0.07443925  1
  Se  Se146  1  0.92337811  0.25950972  0.55532959  1
  Se  Se147  1  0.91274594  0.57827626  0.05357069  1
  Se  Se148  1  0.91396544  0.57926963  0.54754487  1
  Se  Se149  1  0.92673871  0.90999006  0.04582424  1
  Se  Se150  1  0.91319790  0.91885238  0.55888016  1
  Se  Se151  1  0.07693066  0.24763319  0.43700835  1
  Se  Se152  1  0.07741773  0.25981683  0.95574551  1
  Se  Se153  1  0.07540812  0.58890572  0.43290805  1
  Se  Se154  1  0.08210179  0.58885400  0.94239113  1
  Se  Se155  1  0.08327530  0.90818899  0.44739427  1
  Se  Se156  1  0.08090523  0.92093447  0.93504195  1
  Se  Se157  1  0.42381320  0.25796793  0.45394584  1
  Se  Se158  1  0.42005327  0.25010000  0.93803961  1
  Se  Se159  1  0.40862845  0.58913810  0.44426658  1
  Se  Se160  1  0.42369591  0.58023640  0.95009201  1
  Se  Se161  1  0.41770283  0.91654358  0.45122928  1
  Se  Se162  1  0.40633957  0.92138012  0.94220359  1
  Se  Se163  1  0.74994972  0.26179135  0.43550572  1
  Se  Se164  1  0.74595679  0.25484091  0.94262773  1
  Se  Se165  1  0.74813803  0.58415255  0.43807046  1
  Se  Se166  1  0.75350918  0.57636904  0.94476911  1
  Se  Se167  1  0.73663665  0.92976573  0.44040844  1
  Se  Se168  1  0.75450661  0.90938851  0.95375983  1
  Se  Se169  1  0.25925018  0.07766735  0.43949843  1
  Se  Se170  1  0.23858633  0.09838845  0.94205894  1
  Se  Se171  1  0.26415387  0.40244299  0.44724012  1
  Se  Se172  1  0.25770813  0.41843059  0.93674050  1
  Se  Se173  1  0.24244960  0.74581535  0.44817197  1
  Se  Se174  1  0.26062228  0.74261879  0.94594768  1
  Se  Se175  1  0.57575386  0.09365047  0.44621069  1
  Se  Se176  1  0.58544570  0.08181492  0.95069086  1
  Se  Se177  1  0.59522505  0.42029261  0.43343994  1
  Se  Se178  1  0.58245592  0.41787506  0.94354042  1
  Se  Se179  1  0.57866107  0.75168082  0.44928434  1
  Se  Se180  1  0.59269563  0.74013447  0.94081191  1
  Se  Se181  1  0.92337398  0.07802250  0.44234104  1
  Se  Se182  1  0.92112640  0.07833387  0.94399286  1
  Se  Se183  1  0.91173219  0.42202351  0.43583862  1
  Se  Se184  1  0.91133032  0.42132545  0.95537044  1
  Se  Se185  1  0.92037811  0.74388017  0.43322056  1
  Se  Se186  1  0.91422933  0.74727037  0.94298401  1
  Se  Se187  1  0.24635190  0.23726228  0.30921330  1
  Se  Se188  1  0.25209302  0.25354442  0.80165726  1
  Se  Se189  1  0.25242635  0.57674614  0.30298147  1
  Se  Se190  1  0.25304871  0.58762313  0.80393502  1
  Se  Se191  1  0.24468071  0.91068755  0.31444397  1
  Se  Se192  1  0.25013680  0.91748692  0.80091398  1
  Se  Se193  1  0.58167686  0.25325736  0.29992059  1
  Se  Se194  1  0.58691699  0.25139097  0.79998206  1
  Se  Se195  1  0.57362395  0.58622862  0.29773171  1
  Se  Se196  1  0.58771351  0.58469578  0.80467872  1
  Se  Se197  1  0.57436959  0.91842304  0.31157511  1
  Se  Se198  1  0.57457725  0.90856305  0.81605369  1
  Se  Se199  1  0.91716976  0.25178019  0.29230417  1
  Se  Se200  1  0.91393246  0.24377284  0.81970499  1
  Se  Se201  1  0.90884317  0.57612246  0.29161633  1
  Se  Se202  1  0.91977809  0.58302798  0.80334101  1
  Se  Se203  1  0.92269733  0.91534095  0.29767675  1
  Se  Se204  1  0.91628538  0.91290396  0.80227983  1
  Se  Se205  1  0.08275474  0.07704847  0.30080457  1
  Se  Se206  1  0.08258085  0.08504355  0.80313753  1
  Se  Se207  1  0.08521913  0.41024953  0.30169741  1
  Se  Se208  1  0.09182104  0.42317397  0.81748390  1
  Se  Se209  1  0.07337771  0.73524465  0.29937949  1
  Se  Se210  1  0.08162185  0.74739275  0.80076992  1
  Se  Se211  1  0.41811592  0.09200721  0.30275130  1
  Se  Se212  1  0.41573528  0.08226091  0.80192085  1
  Se  Se213  1  0.42851110  0.42536120  0.30577520  1
  Se  Se214  1  0.41950421  0.41827641  0.80209377  1
  Se  Se215  1  0.41326822  0.75204214  0.31145906  1
  Se  Se216  1  0.41484906  0.74602282  0.80445050  1
  Se  Se217  1  0.75861475  0.08997404  0.31388460  1
  Se  Se218  1  0.75603845  0.08550184  0.81743318  1
  Se  Se219  1  0.73219627  0.40490828  0.29488815  1
  Se  Se220  1  0.75042093  0.41564427  0.80192077  1
  Se  Se221  1  0.75109647  0.75549705  0.30304150  1
  Se  Se222  1  0.74906533  0.74494766  0.80270884  1
  Se  Se223  1  0.24863103  0.08939157  0.18228788  1
  Se  Se224  1  0.25333299  0.08166011  0.69799767  1
  Se  Se225  1  0.24329823  0.41760143  0.18629289  1
  Se  Se226  1  0.25178420  0.41520167  0.70142513  1
  Se  Se227  1  0.25736650  0.75587426  0.20549180  1
  Se  Se228  1  0.24741048  0.75041351  0.69589562  1
  Se  Se229  1  0.57862598  0.08517367  0.18898124  1
  Se  Se230  1  0.57873377  0.08535749  0.68996693  1
  Se  Se231  1  0.58264527  0.41288951  0.19245864  1
  Se  Se232  1  0.58692332  0.41347686  0.69483092  1
  Se  Se233  1  0.58966996  0.75117989  0.20553151  1
  Se  Se234  1  0.58614452  0.74786449  0.70076470  1
  Se  Se235  1  0.91391033  0.07594682  0.20132869  1
  Se  Se236  1  0.92045096  0.08056765  0.70744684  1
  Se  Se237  1  0.92762264  0.40196159  0.20210613  1
  Se  Se238  1  0.91598465  0.42071978  0.69046448  1
  Se  Se239  1  0.91904742  0.74882523  0.18927746  1
  Se  Se240  1  0.92045467  0.74631335  0.69292689  1
  Se  Se241  1  0.08567459  0.24882730  0.19833681  1
  Se  Se242  1  0.08920969  0.24503853  0.68994537  1
  Se  Se243  1  0.08448839  0.58421445  0.19891790  1
  Se  Se244  1  0.08233872  0.57862897  0.69813724  1
  Se  Se245  1  0.10355803  0.90689730  0.19041579  1
  Se  Se246  1  0.07870983  0.91952200  0.69655896  1
  Se  Se247  1  0.41894751  0.24803913  0.18189856  1
  Se  Se248  1  0.41695534  0.25321310  0.69670119  1
  Se  Se249  1  0.40043231  0.59583019  0.19791757  1
  Se  Se250  1  0.41989737  0.58500222  0.70142745  1
  Se  Se251  1  0.42711332  0.90923671  0.18859196  1
  Se  Se252  1  0.41450276  0.91402218  0.69787380  1
  Se  Se253  1  0.75212350  0.23424259  0.20327561  1
  Se  Se254  1  0.75671479  0.25078200  0.70120637  1
  Se  Se255  1  0.75255400  0.58584601  0.19475788  1
  Se  Se256  1  0.75073937  0.58433248  0.69489447  1
  Se  Se257  1  0.75811978  0.91008653  0.18521339  1
  Se  Se258  1  0.75505008  0.90782680  0.69092755  1
