# generated using pymatgen
data_In86Cu29Se144
_symmetry_space_group_name_H-M   'P 1'
_cell_length_a   17.55135790
_cell_length_b   17.54984370
_cell_length_c   23.40756490
_cell_angle_alpha   89.97950723
_cell_angle_beta   89.99812895
_cell_angle_gamma   90.01046525
_symmetry_Int_Tables_number   1
_chemical_formula_structural   In86Cu29Se144
_chemical_formula_sum   'In86 Cu29 Se144'
_cell_volume   7210.08153859
_cell_formula_units_Z   1
loop_
 _symmetry_equiv_pos_site_id
 _symmetry_equiv_pos_as_xyz
  1  'x, y, z'
loop_
 _atom_site_type_symbol
 _atom_site_label
 _atom_site_symmetry_multiplicity
 _atom_site_fract_x
 _atom_site_fract_y
 _atom_site_fract_z
 _atom_site_occupancy
  In  In0  1  -0.00292976  0.18055688  0.14052713  1
  In  In1  1  0.00961235  0.15377589  0.61514998  1
  In  In2  1  -0.00512318  0.50674227  0.11981698  1
  In  In3  1  -0.00986908  0.51547056  0.62041696  1
  In  In4  1  0.00002974  0.83276220  0.12892228  1
  In  In5  1  -0.00347923  0.84136169  0.61965943  1
  In  In6  1  0.32585108  0.15970185  0.12549294  1
  In  In7  1  0.32510381  0.15091727  0.60363246  1
  In  In8  1  0.33049202  0.52687141  0.13021179  1
  In  In9  1  0.34192301  0.50222527  0.62711992  1
  In  In10  1  0.31663755  0.81832422  0.11135923  1
  In  In11  1  0.34547604  0.82661286  0.62976509  1
  In  In12  1  0.68373637  0.16090804  0.12855178  1
  In  In13  1  0.65684401  0.17493676  0.62809577  1
  In  In14  1  0.68456133  0.49275225  0.13154407  1
  In  In15  1  0.66761761  0.49388087  0.63007669  1
  In  In16  1  0.66437762  0.82677206  0.12267923  1
  In  In17  1  0.67165808  0.83234559  0.62801129  1
  In  In18  1  0.16319562  0.00171167  0.36824777  1
  In  In19  1  0.16635557  -0.01164576  0.87464050  1
  In  In20  1  0.16432254  0.32873633  0.37233843  1
  In  In21  1  0.16811815  0.34853736  0.88186671  1
  In  In22  1  0.16158439  0.67630514  0.34895688  1
  In  In23  1  0.17032142  0.66592135  0.88272040  1
  In  In24  1  0.48650949  -0.00231474  0.39429615  1
  In  In25  1  0.49550764  -0.00866024  0.86397879  1
  In  In26  1  0.50264805  0.32128560  0.38088488  1
  In  In27  1  0.50394656  0.32189333  0.87157156  1
  In  In28  1  0.51249794  0.67334880  0.37068110  1
  In  In29  1  0.51202856  0.67796228  0.86820321  1
  In  In30  1  0.83719082  -0.01933772  0.36863357  1
  In  In31  1  0.83274297  0.00193094  0.88183281  1
  In  In32  1  0.84084654  0.34446588  0.37134089  1
  In  In33  1  0.82216232  0.34069516  0.88103850  1
  In  In34  1  0.82499478  0.67316804  0.36759600  1
  In  In35  1  0.82305507  0.66933577  0.89114173  1
  In  In36  1  0.01044463  0.17248941  0.35822635  1
  In  In37  1  -0.00412080  0.14555156  0.87906374  1
  In  In38  1  -0.00541841  0.49290774  0.36648723  1
  In  In39  1  -0.01213207  0.52195743  0.90212703  1
  In  In40  1  -0.02420346  0.81590625  0.34290144  1
  In  In41  1  -0.00106035  0.82598870  0.89791070  1
  In  In42  1  0.32922607  0.16337908  0.39903414  1
  In  In43  1  0.34645053  0.16707392  0.87018349  1
  In  In44  1  0.32280785  0.50196738  0.37403364  1
  In  In45  1  0.31522577  0.50696874  0.88086177  1
  In  In46  1  0.34105457  0.83683981  0.37753331  1
  In  In47  1  0.33870524  0.83563955  0.87288557  1
  In  In48  1  0.65315751  0.17239887  0.37852962  1
  In  In49  1  0.67311912  0.16936007  0.86606299  1
  In  In50  1  0.67922565  0.51123982  0.36993371  1
  In  In51  1  0.66853527  0.50179167  0.86839291  1
  In  In52  1  0.67092127  0.82977703  0.38278732  1
  In  In53  1  0.66926301  0.82848468  0.87714179  1
  In  In54  1  0.16516862  -0.02154188  0.13468629  1
  In  In55  1  0.16717869  0.01481982  0.61901995  1
  In  In56  1  0.13373276  0.34190453  0.13840657  1
  In  In57  1  0.18318279  0.32647376  0.61895585  1
  In  In58  1  0.16859209  0.67682386  0.12606516  1
  In  In59  1  0.17232365  0.67963928  0.62536349  1
  In  In60  1  0.51677215  -0.01100455  0.12469246  1
  In  In61  1  0.50004760  -0.00115877  0.62335171  1
  In  In62  1  0.50640017  0.34721535  0.12959997  1
  In  In63  1  0.51154073  0.33020039  0.61713128  1
  In  In64  1  0.49060248  0.67832823  0.13228345  1
  In  In65  1  0.49483521  0.67623576  0.63204526  1
  In  In66  1  0.83565922  0.00316369  0.12229033  1
  In  In67  1  0.83657708  -0.01805426  0.62348267  1
  In  In68  1  0.83646007  0.33492012  0.12681278  1
  In  In69  1  0.80681082  0.33191042  0.61388829  1
  In  In70  1  0.84146253  0.66920818  0.12613295  1
  In  In71  1  0.82561052  0.65316110  0.61464323  1
  In  In72  1  0.34909413  0.33448232  0.74624851  1
  In  In73  1  -0.00464805  0.66989410  0.76537122  1
  In  In74  1  0.33513904  0.33448779  0.26268837  1
  In  In75  1  0.66796836  -0.00192230  0.25576673  1
  In  In76  1  0.50523894  0.50877046  -0.00105779  1
  In  In77  1  -0.00178860  -0.00438929  0.75160631  1
  In  In78  1  0.16544542  0.83741566  0.49200000  1
  In  In79  1  0.50439244  0.49700836  0.50448651  1
  In  In80  1  0.83380793  0.16439291  0.49680886  1
  In  In81  1  0.33004706  -0.00644200  0.25727480  1
  In  In82  1  0.50346857  0.16352613  -0.00852358  1
  In  In83  1  0.15807927  0.49188316  0.48674054  1
  In  In84  1  -0.00512864  0.33704322  0.75525803  1
  In  In85  1  0.15732829  0.16544448  0.00392946  1
  Cu  Cu86  1  0.83324655  0.82268132  0.75291037  1
  Cu  Cu87  1  0.82193922  0.49290239  0.74951337  1
  Cu  Cu88  1  0.66780900  0.67656921  0.49862755  1
  Cu  Cu89  1  0.50696868  0.83532319  0.74972604  1
  Cu  Cu90  1  0.32932365  0.66160369  0.50036113  1
  Cu  Cu91  1  0.49586959  0.83660994  0.25313986  1
  Cu  Cu92  1  0.83672742  0.50389471  0.24424812  1
  Cu  Cu93  1  0.49837309  0.50478746  0.74910723  1
  Cu  Cu94  1  0.17930429  0.17306321  0.74072062  1
  Cu  Cu95  1  0.33518021  -0.00532066  -0.00268673  1
  Cu  Cu96  1  -0.00105670  -0.00750953  0.48830906  1
  Cu  Cu97  1  0.33240200  0.67768176  0.00166483  1
  Cu  Cu98  1  0.49487610  0.17165725  0.25750301  1
  Cu  Cu99  1  0.82511484  0.16728469  0.74902050  1
  Cu  Cu100  1  -0.01067390  0.67091982  0.48542373  1
  Cu  Cu101  1  0.82889514  0.17743391  0.25274428  1
  Cu  Cu102  1  0.16476361  0.50966578  0.75829159  1
  Cu  Cu103  1  0.66766000  -0.00520771  0.50298622  1
  Cu  Cu104  1  -0.00530904  -0.00187761  0.00932826  1
  Cu  Cu105  1  -0.00674581  0.33324969  0.00849424  1
  Cu  Cu106  1  0.50253270  0.15946988  0.74493057  1
  Cu  Cu107  1  0.00142585  0.33168640  0.49104184  1
  Cu  Cu108  1  0.31924923  0.34605958  0.00861435  1
  Cu  Cu109  1  0.67208058  0.32394827  0.00188525  1
  Cu  Cu110  1  0.17132684  0.49921229  0.24452211  1
  Cu  Cu111  1  0.18217031  0.83538471  0.75140418  1
  Cu  Cu112  1  0.66998352  0.66409287  0.00443084  1
  Cu  Cu113  1  0.51360655  0.50524896  0.24955058  1
  Cu  Cu114  1  0.67203625  -0.01158838  0.00018722  1
  Se  Se115  1  0.07622567  0.07732451  0.07033143  1
  Se  Se116  1  0.08386928  0.07703620  0.53933371  1
  Se  Se117  1  0.08200617  0.41786414  0.05353790  1
  Se  Se118  1  0.07549478  0.41068564  0.56126966  1
  Se  Se119  1  0.09062848  0.76423338  0.05831151  1
  Se  Se120  1  0.07277555  0.74093830  0.55229035  1
  Se  Se121  1  0.41513701  0.07542440  0.05807756  1
  Se  Se122  1  0.43721611  0.09218959  0.55063360  1
  Se  Se123  1  0.41049756  0.42239967  0.06159584  1
  Se  Se124  1  0.40410838  0.40598431  0.55616788  1
  Se  Se125  1  0.42518647  0.75562014  0.05125401  1
  Se  Se126  1  0.41345888  0.74304329  0.55334091  1
  Se  Se127  1  0.74887469  0.08034892  0.05084198  1
  Se  Se128  1  0.74790053  0.07718699  0.56290942  1
  Se  Se129  1  0.75185380  0.41212452  0.05363618  1
  Se  Se130  1  0.75026189  0.43539464  0.55002404  1
  Se  Se131  1  0.75390574  0.74975212  0.05586333  1
  Se  Se132  1  0.75534949  0.75487626  0.55435888  1
  Se  Se133  1  0.24406345  0.25919624  0.06569193  1
  Se  Se134  1  0.23576672  0.23661701  0.54347904  1
  Se  Se135  1  0.25008435  0.59181536  0.05306415  1
  Se  Se136  1  0.24584449  0.58010925  0.55577726  1
  Se  Se137  1  0.24510790  0.92043058  0.05133613  1
  Se  Se138  1  0.25083122  0.91248748  0.56393816  1
  Se  Se139  1  0.58513124  0.25097037  0.06161359  1
  Se  Se140  1  0.60087842  0.25895938  0.54818786  1
  Se  Se141  1  0.58958783  0.58914972  0.06853522  1
  Se  Se142  1  0.58837178  0.59583264  0.56159017  1
  Se  Se143  1  0.58303772  0.90695794  0.04886237  1
  Se  Se144  1  0.58596918  0.91134243  0.55857881  1
  Se  Se145  1  0.91609974  0.24377331  0.06013829  1
  Se  Se146  1  0.92352383  0.25641819  0.55931104  1
  Se  Se147  1  0.90031025  0.57462616  0.05269740  1
  Se  Se148  1  0.91360761  0.58246302  0.54119784  1
  Se  Se149  1  0.91091172  0.90928731  0.05718081  1
  Se  Se150  1  0.91570452  0.91344687  0.54470946  1
  Se  Se151  1  0.08131545  0.24527680  0.44039437  1
  Se  Se152  1  0.06985282  0.25699198  0.93961891  1
  Se  Se153  1  0.08062124  0.59640395  0.42978690  1
  Se  Se154  1  0.08992639  0.59333256  0.95711993  1
  Se  Se155  1  0.06743684  0.90542341  0.42531316  1
  Se  Se156  1  0.08397587  0.92366790  0.95213597  1
  Se  Se157  1  0.42355499  0.24751018  0.45384830  1
  Se  Se158  1  0.40255687  0.26586197  0.94791268  1
  Se  Se159  1  0.41441974  0.58586037  0.44005454  1
  Se  Se160  1  0.41187296  0.59604517  0.93940404  1
  Se  Se161  1  0.40705411  0.90860349  0.45810519  1
  Se  Se162  1  0.42312161  0.91726660  0.94347187  1
  Se  Se163  1  0.74899051  0.25931289  0.43895949  1
  Se  Se164  1  0.75105478  0.24058279  0.94465360  1
  Se  Se165  1  0.75052264  0.59313165  0.44514619  1
  Se  Se166  1  0.74129794  0.57140506  0.94932872  1
  Se  Se167  1  0.75418335  0.91853907  0.44755413  1
  Se  Se168  1  0.75782738  0.90697137  0.94605754  1
  Se  Se169  1  0.25674309  0.05125718  0.44429334  1
  Se  Se170  1  0.25771790  0.08487095  0.94066671  1
  Se  Se171  1  0.26257522  0.40008493  0.44354463  1
  Se  Se172  1  0.23808327  0.43096318  0.95672805  1
  Se  Se173  1  0.24746884  0.73354242  0.43566246  1
  Se  Se174  1  0.25163107  0.76054727  0.94405343  1
  Se  Se175  1  0.58736851  0.07924358  0.44844571  1
  Se  Se176  1  0.59362938  0.07045134  0.93651772  1
  Se  Se177  1  0.59291509  0.41883608  0.43680384  1
  Se  Se178  1  0.58769151  0.40437469  0.94348225  1
  Se  Se179  1  0.57667444  0.75563405  0.44928628  1
  Se  Se180  1  0.58635051  0.74607746  0.94842899  1
  Se  Se181  1  0.92239405  0.08121272  0.43089647  1
  Se  Se182  1  0.91239639  0.08264326  0.95573872  1
  Se  Se183  1  0.91911033  0.42177383  0.44627365  1
  Se  Se184  1  0.91035633  0.41442196  0.95085212  1
  Se  Se185  1  0.91221332  0.75972882  0.43351749  1
  Se  Se186  1  0.93307617  0.71994236  0.95346874  1
  Se  Se187  1  0.25224436  0.23094221  0.31345409  1
  Se  Se188  1  0.24661552  0.25501091  0.80946394  1
  Se  Se189  1  0.25480824  0.58287067  0.29749378  1
  Se  Se190  1  0.25189565  0.59431818  0.80534325  1
  Se  Se191  1  0.23707276  0.89570652  0.30685601  1
  Se  Se192  1  0.25920205  0.92558921  0.80350450  1
  Se  Se193  1  0.58472366  0.25599559  0.30183902  1
  Se  Se194  1  0.58315743  0.24705015  0.79780519  1
  Se  Se195  1  0.59418369  0.59251558  0.30154096  1
  Se  Se196  1  0.58592014  0.58513892  0.80139977  1
  Se  Se197  1  0.56988110  0.91808226  0.31694177  1
  Se  Se198  1  0.59373393  0.91440334  0.80441232  1
  Se  Se199  1  0.91873937  0.26015149  0.30076894  1
  Se  Se200  1  0.91015487  0.23790437  0.81331152  1
  Se  Se201  1  0.91429139  0.58515206  0.30489079  1
  Se  Se202  1  0.90270482  0.57061474  0.81383431  1
  Se  Se203  1  0.92427495  0.93309372  0.28665054  1
  Se  Se204  1  0.91729070  0.90048002  0.81444012  1
  Se  Se205  1  0.07348171  0.06928780  0.29612297  1
  Se  Se206  1  0.09651243  0.09226354  0.80295344  1
  Se  Se207  1  0.09175490  0.41828634  0.30302623  1
  Se  Se208  1  0.07856354  0.43472406  0.81662154  1
  Se  Se209  1  0.06584230  0.73665946  0.27815589  1
  Se  Se210  1  0.09150290  0.76622665  0.81361701  1
  Se  Se211  1  0.41832611  0.08840936  0.31562682  1
  Se  Se212  1  0.41469495  0.08060796  0.79769580  1
  Se  Se213  1  0.43217783  0.42876302  0.31317661  1
  Se  Se214  1  0.42178147  0.42950214  0.81752335  1
  Se  Se215  1  0.41643383  0.75030451  0.30761374  1
  Se  Se216  1  0.41960265  0.75299480  0.80234017  1
  Se  Se217  1  0.75572333  0.09373807  0.31574328  1
  Se  Se218  1  0.75381325  0.07479081  0.80468259  1
  Se  Se219  1  0.75448507  0.42145121  0.30114293  1
  Se  Se220  1  0.74097351  0.40600381  0.80197308  1
  Se  Se221  1  0.74335057  0.76247775  0.30286649  1
  Se  Se222  1  0.75226106  0.74009841  0.80957166  1
  Se  Se223  1  0.23928463  0.08548445  0.19706365  1
  Se  Se224  1  0.25732539  0.08434353  0.69005830  1
  Se  Se225  1  0.25385611  0.41518351  0.18775219  1
  Se  Se226  1  0.24193842  0.42442346  0.69631064  1
  Se  Se227  1  0.26215614  0.74722328  0.19608176  1
  Se  Se228  1  0.25829368  0.74541891  0.69896030  1
  Se  Se229  1  0.57607474  0.09172816  0.19621456  1
  Se  Se230  1  0.58919222  0.07668630  0.69365110  1
  Se  Se231  1  0.59396290  0.41580471  0.20050059  1
  Se  Se232  1  0.57414471  0.41619216  0.69481898  1
  Se  Se233  1  0.58113048  0.75627871  0.19853644  1
  Se  Se234  1  0.58944442  0.74861724  0.69774810  1
  Se  Se235  1  0.90387420  0.09135850  0.19584828  1
  Se  Se236  1  0.91123327  0.09066180  0.68913265  1
  Se  Se237  1  0.92190196  0.41881921  0.19317804  1
  Se  Se238  1  0.90812961  0.42054144  0.68651761  1
  Se  Se239  1  0.93342559  0.73576925  0.19908866  1
  Se  Se240  1  0.91535490  0.74987845  0.68805695  1
  Se  Se241  1  0.09462506  0.24117960  0.21052085  1
  Se  Se242  1  0.08572935  0.24827674  0.68908190  1
  Se  Se243  1  0.08939737  0.57922455  0.18759087  1
  Se  Se244  1  0.08494729  0.58687108  0.69376914  1
  Se  Se245  1  0.06015205  0.93039068  0.20317609  1
  Se  Se246  1  0.09511520  0.90988922  0.69009146  1
  Se  Se247  1  0.41860707  0.24715978  0.19047107  1
  Se  Se248  1  0.42194638  0.23873253  0.68196600  1
  Se  Se249  1  0.42129889  0.58708204  0.20362630  1
  Se  Se250  1  0.41237888  0.58743063  0.69875847  1
  Se  Se251  1  0.41921882  0.91307251  0.18844846  1
  Se  Se252  1  0.42076766  0.91712296  0.69674539  1
  Se  Se253  1  0.74596256  0.25798021  0.19678228  1
  Se  Se254  1  0.74620348  0.25452687  0.69639485  1
  Se  Se255  1  0.75194606  0.59148842  0.19613690  1
  Se  Se256  1  0.74924579  0.58505252  0.69504127  1
  Se  Se257  1  0.75342668  0.91178492  0.19184610  1
  Se  Se258  1  0.75633829  0.91319592  0.69988599  1
