# generated using pymatgen
data_In86Cu29Se144
_symmetry_space_group_name_H-M   'P 1'
_cell_length_a   17.59251892
_cell_length_b   17.58400216
_cell_length_c   23.45100538
_cell_angle_alpha   90.00471378
_cell_angle_beta   90.05806019
_cell_angle_gamma   90.01391644
_symmetry_Int_Tables_number   1
_chemical_formula_structural   In86Cu29Se144
_chemical_formula_sum   'In86 Cu29 Se144'
_cell_volume   7254.49163562
_cell_formula_units_Z   1
loop_
 _symmetry_equiv_pos_site_id
 _symmetry_equiv_pos_as_xyz
  1  'x, y, z'
loop_
 _atom_site_type_symbol
 _atom_site_label
 _atom_site_symmetry_multiplicity
 _atom_site_fract_x
 _atom_site_fract_y
 _atom_site_fract_z
 _atom_site_occupancy
  In  In0  1  0.00022891  0.17210621  0.12126158  1
  In  In1  1  0.01862054  0.16859787  0.62255649  1
  In  In2  1  -0.00404728  0.50178148  0.13517577  1
  In  In3  1  0.00783224  0.48287170  0.62918953  1
  In  In4  1  -0.02305071  0.85237115  0.14827874  1
  In  In5  1  -0.00058192  0.82401351  0.62030065  1
  In  In6  1  0.33854394  0.18856534  0.10281717  1
  In  In7  1  0.33555779  0.16714517  0.62757085  1
  In  In8  1  0.32394014  0.49112490  0.12729503  1
  In  In9  1  0.32659053  0.48622148  0.62303567  1
  In  In10  1  0.34627262  0.83571514  0.12346730  1
  In  In11  1  0.34411229  0.84334297  0.61809349  1
  In  In12  1  0.66850992  0.17021743  0.12079000  1
  In  In13  1  0.65331571  0.17998685  0.63429103  1
  In  In14  1  0.66726602  0.49678117  0.13316693  1
  In  In15  1  0.65304854  0.49454185  0.62318955  1
  In  In16  1  0.65655979  0.83561835  0.12509251  1
  In  In17  1  0.66048933  0.84928222  0.62957526  1
  In  In18  1  0.16403736  0.00740623  0.37748667  1
  In  In19  1  0.18408238  0.00806878  0.86631998  1
  In  In20  1  0.16864486  0.33056343  0.37938287  1
  In  In21  1  0.16432957  0.32617879  0.87131509  1
  In  In22  1  0.16550103  0.66629375  0.38093349  1
  In  In23  1  0.16002651  0.66323140  0.87661504  1
  In  In24  1  0.49578140  0.00858921  0.38293237  1
  In  In25  1  0.49918975  0.00223580  0.87568307  1
  In  In26  1  0.49938464  0.33106725  0.37523745  1
  In  In27  1  0.48049213  0.31042239  0.85610361  1
  In  In28  1  0.50184965  0.66580410  0.37639196  1
  In  In29  1  0.51247219  0.66551299  0.87691764  1
  In  In30  1  0.83861165  -0.01804125  0.36407130  1
  In  In31  1  0.82362245  0.01396027  0.88756504  1
  In  In32  1  0.83431119  0.33132758  0.36587422  1
  In  In33  1  0.83105269  0.32647179  0.87366255  1
  In  In34  1  0.83249563  0.67382277  0.36021479  1
  In  In35  1  0.84026009  0.67314838  0.88374515  1
  In  In36  1  0.01193352  0.17493799  0.36553114  1
  In  In37  1  -0.00137806  0.18405732  0.89327057  1
  In  In38  1  0.00639910  0.50479831  0.37124108  1
  In  In39  1  0.00773211  0.48035237  0.87707959  1
  In  In40  1  0.00705812  0.83971849  0.36132820  1
  In  In41  1  -0.00450202  0.82526039  0.88354447  1
  In  In42  1  0.32948311  0.17081389  0.37950637  1
  In  In43  1  0.33825814  0.16919257  0.87869921  1
  In  In44  1  0.34588064  0.48572565  0.38552103  1
  In  In45  1  0.33117242  0.48137829  0.86273324  1
  In  In46  1  0.33923983  0.82900375  0.38263487  1
  In  In47  1  0.33637975  0.85060802  0.87015999  1
  In  In48  1  0.65161166  0.17032951  0.37295701  1
  In  In49  1  0.66439450  0.16378701  0.87446653  1
  In  In50  1  0.65534327  0.48830772  0.36851805  1
  In  In51  1  0.66798315  0.49091806  0.87006808  1
  In  In52  1  0.66486510  0.82642568  0.36791184  1
  In  In53  1  0.65418834  0.84834766  0.88718517  1
  In  In54  1  0.15408748  0.00557830  0.13072933  1
  In  In55  1  0.18039265  0.01466738  0.61466562  1
  In  In56  1  0.17072585  0.32606914  0.12784970  1
  In  In57  1  0.17659674  0.33367524  0.62846413  1
  In  In58  1  0.15993790  0.65727125  0.13039110  1
  In  In59  1  0.16555920  0.66298021  0.61418802  1
  In  In60  1  0.49965933  0.01015996  0.12037167  1
  In  In61  1  0.49680616  0.00220573  0.62593980  1
  In  In62  1  0.49906593  0.32529723  0.13092379  1
  In  In63  1  0.49948010  0.33293755  0.62619692  1
  In  In64  1  0.50742314  0.68254021  0.12971102  1
  In  In65  1  0.49165805  0.65884089  0.61180872  1
  In  In66  1  0.83938883  0.01574127  0.11499452  1
  In  In67  1  0.82326296  -0.00686332  0.62953337  1
  In  In68  1  0.84240220  0.32084879  0.12790261  1
  In  In69  1  0.83469180  0.33233678  0.63383627  1
  In  In70  1  0.81353060  0.68587084  0.14333097  1
  In  In71  1  0.83999530  0.66815880  0.62068256  1
  In  In72  1  -0.00091850  0.00433286  0.75063948  1
  In  In73  1  -0.00231543  0.66386195  0.74842177  1
  In  In74  1  0.83414108  0.16134893  0.49255030  1
  In  In75  1  0.66679534  0.01018195  0.24614485  1
  In  In76  1  0.83216385  0.50150524  0.48814809  1
  In  In77  1  0.16602704  0.49581844  -0.00271581  1
  In  In78  1  0.66894140  0.66373809  0.74809763  1
  In  In79  1  0.83169217  0.49794212  -0.00228745  1
  In  In80  1  0.83039668  0.83110529  0.49185285  1
  In  In81  1  0.49575933  0.49629038  -0.00243992  1
  In  In82  1  0.33652310  0.66050889  0.25923587  1
  In  In83  1  0.33441486  0.00927504  0.25180761  1
  In  In84  1  0.33338630  0.66103102  0.74095246  1
  In  In85  1  0.16491180  0.83615229  0.00460251  1
  Cu  Cu86  1  0.66505837  0.67600468  0.00603033  1
  Cu  Cu87  1  0.16662647  0.84147607  0.74292336  1
  Cu  Cu88  1  0.83585017  0.16529421  0.75861015  1
  Cu  Cu89  1  0.66436090  0.32548815  -0.00205329  1
  Cu  Cu90  1  0.82219199  0.84269442  0.75943443  1
  Cu  Cu91  1  0.49658894  0.49788574  0.25483434  1
  Cu  Cu92  1  0.66438948  -0.00020488  0.00216757  1
  Cu  Cu93  1  0.65611970  0.33752967  0.50146820  1
  Cu  Cu94  1  0.00813520  0.66271251  0.49573147  1
  Cu  Cu95  1  0.66052969  0.66970111  0.49533540  1
  Cu  Cu96  1  0.33918988  0.67186546  -0.00213250  1
  Cu  Cu97  1  0.33316654  0.32713229  0.50387306  1
  Cu  Cu98  1  0.65689479  0.00528653  0.50409709  1
  Cu  Cu99  1  0.00605160  -0.00553937  0.49293480  1
  Cu  Cu100  1  0.33767067  0.00330387  -0.00414293  1
  Cu  Cu101  1  0.33216054  -0.00039132  0.50092662  1
  Cu  Cu102  1  0.83658225  0.16624443  0.24257688  1
  Cu  Cu103  1  0.00318097  -0.00102492  0.00357788  1
  Cu  Cu104  1  0.16511339  0.16702003  0.25044971  1
  Cu  Cu105  1  0.01185735  0.32794414  0.50185719  1
  Cu  Cu106  1  0.33252402  0.66648465  0.49863887  1
  Cu  Cu107  1  0.17155450  0.82499262  0.25409871  1
  Cu  Cu108  1  -0.01202778  0.67088870  0.01143472  1
  Cu  Cu109  1  0.83521121  0.49217967  0.75173837  1
  Cu  Cu110  1  0.49913109  0.15955594  0.75022231  1
  Cu  Cu111  1  0.82931368  0.49846534  0.24984739  1
  Cu  Cu112  1  0.16589513  0.48553270  0.25393221  1
  Cu  Cu113  1  0.17082363  0.17196179  0.74897661  1
  Cu  Cu114  1  0.49869395  0.83492378  0.74967900  1
  Se  Se115  1  0.08523228  0.08444731  0.05423885  1
  Se  Se116  1  0.08299834  0.08244748  0.54738054  1
  Se  Se117  1  0.07660352  0.41646252  0.06355310  1
  Se  Se118  1  0.09117008  0.41393072  0.55556996  1
  Se  Se119  1  0.07681614  0.74849591  0.06601832  1
  Se  Se120  1  0.08455076  0.75245500  0.54904732  1
  Se  Se121  1  0.41972083  0.08929364  0.04798143  1
  Se  Se122  1  0.41489263  0.08350524  0.55582870  1
  Se  Se123  1  0.40691681  0.40829529  0.05795527  1
  Se  Se124  1  0.41761663  0.41352380  0.55441917  1
  Se  Se125  1  0.42223791  0.75024563  0.05366186  1
  Se  Se126  1  0.41737223  0.75312101  0.54873678  1
  Se  Se127  1  0.74787623  0.08973147  0.04854319  1
  Se  Se128  1  0.74319418  0.08267206  0.56127123  1
  Se  Se129  1  0.74147398  0.40936013  0.05848159  1
  Se  Se130  1  0.75051955  0.41119844  0.55601663  1
  Se  Se131  1  0.74931531  0.75649839  0.05902159  1
  Se  Se132  1  0.74064733  0.74634898  0.55903555  1
  Se  Se133  1  0.22499031  0.24308921  0.04496195  1
  Se  Se134  1  0.24863030  0.24479632  0.55737728  1
  Se  Se135  1  0.25740932  0.59290229  0.05579917  1
  Se  Se136  1  0.25460476  0.57960447  0.55317082  1
  Se  Se137  1  0.25791746  0.92803441  0.06166377  1
  Se  Se138  1  0.24747233  0.91319851  0.55152441  1
  Se  Se139  1  0.57837764  0.25063570  0.05514930  1
  Se  Se140  1  0.57931375  0.24793404  0.55374354  1
  Se  Se141  1  0.58708354  0.58611772  0.05971693  1
  Se  Se142  1  0.58526761  0.58024959  0.54907893  1
  Se  Se143  1  0.57783473  0.91930760  0.05487980  1
  Se  Se144  1  0.57747650  0.91590164  0.55454580  1
  Se  Se145  1  0.91135280  0.24531900  0.05072685  1
  Se  Se146  1  0.91985679  0.25283793  0.55741084  1
  Se  Se147  1  0.90770228  0.58742290  0.06724531  1
  Se  Se148  1  0.92668959  0.58271591  0.55554259  1
  Se  Se149  1  0.92137763  0.91569905  0.05760883  1
  Se  Se150  1  0.91927985  0.92435300  0.55536483  1
  Se  Se151  1  0.08770354  0.24037880  0.44692543  1
  Se  Se152  1  0.10380343  0.24826157  0.95431210  1
  Se  Se153  1  0.08942335  0.57310673  0.44765733  1
  Se  Se154  1  0.06460789  0.59173518  0.94752808  1
  Se  Se155  1  0.08592994  0.90959966  0.43925956  1
  Se  Se156  1  0.08339565  0.92649583  0.93689028  1
  Se  Se157  1  0.41795424  0.24988849  0.44650892  1
  Se  Se158  1  0.42255821  0.25283504  0.94566212  1
  Se  Se159  1  0.41933819  0.58534460  0.44620760  1
  Se  Se160  1  0.40604744  0.58608478  0.93377169  1
  Se  Se161  1  0.41825696  0.91813171  0.44850232  1
  Se  Se162  1  0.41923200  0.91480732  0.94659749  1
  Se  Se163  1  0.74313093  0.26105027  0.44261504  1
  Se  Se164  1  0.75002432  0.24594239  0.94384412  1
  Se  Se165  1  0.74168555  0.59481213  0.43294793  1
  Se  Se166  1  0.73602959  0.59207057  0.94176793  1
  Se  Se167  1  0.73858316  0.92931672  0.44083882  1
  Se  Se168  1  0.75315572  0.91586920  0.95222018  1
  Se  Se169  1  0.24953377  0.08368649  0.44700720  1
  Se  Se170  1  0.25061816  0.08429253  0.94522752  1
  Se  Se171  1  0.25068680  0.41245351  0.45012107  1
  Se  Se172  1  0.26060490  0.40726121  0.94327344  1
  Se  Se173  1  0.24874469  0.75091015  0.44740977  1
  Se  Se174  1  0.25448761  0.74857921  0.93848236  1
  Se  Se175  1  0.57983531  0.09288468  0.45011783  1
  Se  Se176  1  0.58286915  0.08281620  0.94543524  1
  Se  Se177  1  0.57577260  0.42116367  0.44658755  1
  Se  Se178  1  0.58542463  0.40683936  0.93831602  1
  Se  Se179  1  0.58151250  0.75708326  0.44305010  1
  Se  Se180  1  0.57751958  0.75280563  0.95053125  1
  Se  Se181  1  0.92365005  0.07155969  0.43221314  1
  Se  Se182  1  0.92051280  0.08533406  0.95146359  1
  Se  Se183  1  0.92657448  0.40337404  0.44126057  1
  Se  Se184  1  0.92492681  0.40209041  0.94844253  1
  Se  Se185  1  0.92555782  0.74229920  0.43680771  1
  Se  Se186  1  0.90931419  0.75783008  0.95779520  1
  Se  Se187  1  0.24778573  0.24788082  0.30689077  1
  Se  Se188  1  0.25617395  0.24933486  0.80583841  1
  Se  Se189  1  0.24650627  0.56760917  0.31461766  1
  Se  Se190  1  0.23974847  0.57971552  0.80685092  1
  Se  Se191  1  0.25036091  0.91009275  0.31065814  1
  Se  Se192  1  0.25434111  0.92040034  0.79457298  1
  Se  Se193  1  0.59417533  0.26649840  0.30408767  1
  Se  Se194  1  0.58791541  0.24394758  0.79961984  1
  Se  Se195  1  0.58037340  0.58427508  0.30437742  1
  Se  Se196  1  0.57535559  0.57215810  0.80249853  1
  Se  Se197  1  0.57803882  0.92411110  0.31013254  1
  Se  Se198  1  0.58120417  0.91593691  0.80585963  1
  Se  Se199  1  0.91879460  0.24888090  0.29962178  1
  Se  Se200  1  0.92377608  0.24655886  0.80931087  1
  Se  Se201  1  0.91544752  0.57868682  0.30337627  1
  Se  Se202  1  0.91010185  0.57515153  0.81398002  1
  Se  Se203  1  0.91578209  0.90721765  0.29102968  1
  Se  Se204  1  0.91267172  0.91543588  0.81587983  1
  Se  Se205  1  0.08349537  0.07757503  0.30024870  1
  Se  Se206  1  0.08539049  0.09603863  0.81099940  1
  Se  Se207  1  0.07999921  0.40711860  0.30875399  1
  Se  Se208  1  0.09591288  0.42264539  0.80406133  1
  Se  Se209  1  0.08752345  0.73984302  0.30433750  1
  Se  Se210  1  0.08956256  0.76204244  0.80539548  1
  Se  Se211  1  0.42680395  0.09888215  0.30839395  1
  Se  Se212  1  0.41373508  0.08156861  0.80677433  1
  Se  Se213  1  0.41312106  0.41231433  0.30452481  1
  Se  Se214  1  0.42903110  0.42243871  0.79638952  1
  Se  Se215  1  0.42657469  0.76157383  0.30520693  1
  Se  Se216  1  0.42077621  0.75007283  0.80802858  1
  Se  Se217  1  0.76010434  0.09350386  0.31179505  1
  Se  Se218  1  0.75041375  0.07975178  0.80584024  1
  Se  Se219  1  0.74654720  0.41345388  0.30190400  1
  Se  Se220  1  0.75073114  0.40934781  0.80300654  1
  Se  Se221  1  0.76120632  0.77024421  0.29774389  1
  Se  Se222  1  0.74875421  0.75412998  0.81631259  1
  Se  Se223  1  0.24934741  0.09541878  0.18663449  1
  Se  Se224  1  0.24993033  0.08335336  0.69674786  1
  Se  Se225  1  0.25162709  0.40802139  0.19945636  1
  Se  Se226  1  0.25244534  0.41649750  0.70102014  1
  Se  Se227  1  0.25226844  0.75195036  0.19030494  1
  Se  Se228  1  0.24353099  0.75666694  0.68497018  1
  Se  Se229  1  0.57105602  0.10066172  0.19323862  1
  Se  Se230  1  0.58459908  0.07841247  0.69637612  1
  Se  Se231  1  0.57768642  0.41597778  0.19661297  1
  Se  Se232  1  0.59582082  0.40216094  0.69414570  1
  Se  Se233  1  0.59240756  0.75030066  0.20181313  1
  Se  Se234  1  0.57321819  0.75049672  0.68846848  1
  Se  Se235  1  0.92187955  0.08376102  0.19180956  1
  Se  Se236  1  0.91037964  0.09321197  0.68692416  1
  Se  Se237  1  0.91222589  0.41353004  0.19788970  1
  Se  Se238  1  0.92293444  0.41089080  0.70113458  1
  Se  Se239  1  0.93797800  0.72538481  0.19284570  1
  Se  Se240  1  0.90210383  0.76393318  0.69759899  1
  Se  Se241  1  0.08112246  0.24996959  0.19577395  1
  Se  Se242  1  0.08518502  0.25318524  0.69639036  1
  Se  Se243  1  0.08677132  0.57656800  0.20376746  1
  Se  Se244  1  0.09272507  0.57859846  0.69230063  1
  Se  Se245  1  0.09114402  0.91273718  0.20210809  1
  Se  Se246  1  0.08381309  0.91771283  0.68331422  1
  Se  Se247  1  0.39777427  0.25233047  0.19048139  1
  Se  Se248  1  0.41933675  0.24768571  0.69677181  1
  Se  Se249  1  0.42179938  0.57710544  0.18815618  1
  Se  Se250  1  0.42745202  0.57098368  0.68797800  1
  Se  Se251  1  0.42761173  0.91694949  0.19511364  1
  Se  Se252  1  0.41474807  0.91839755  0.69699475  1
  Se  Se253  1  0.74749675  0.24919372  0.19470524  1
  Se  Se254  1  0.75437406  0.24566738  0.69920897  1
  Se  Se255  1  0.74188787  0.58422896  0.20283060  1
  Se  Se256  1  0.76348114  0.57490221  0.68801939  1
  Se  Se257  1  0.75415088  0.92491049  0.18329268  1
  Se  Se258  1  0.74050200  0.92353122  0.70445546  1
