# generated using pymatgen
data_In86Cu29Se144
_symmetry_space_group_name_H-M   'P 1'
_cell_length_a   17.58185459
_cell_length_b   17.58164753
_cell_length_c   23.44091949
_cell_angle_alpha   89.98971447
_cell_angle_beta   90.03348737
_cell_angle_gamma   89.98964241
_symmetry_Int_Tables_number   1
_chemical_formula_structural   In86Cu29Se144
_chemical_formula_sum   'In86 Cu29 Se144'
_cell_volume   7246.00798111
_cell_formula_units_Z   1
loop_
 _symmetry_equiv_pos_site_id
 _symmetry_equiv_pos_as_xyz
  1  'x, y, z'
loop_
 _atom_site_type_symbol
 _atom_site_label
 _atom_site_symmetry_multiplicity
 _atom_site_fract_x
 _atom_site_fract_y
 _atom_site_fract_z
 _atom_site_occupancy
  In  In0  1  0.00401344  0.16247197  0.12973387  1
  In  In1  1  0.01611160  0.16071194  0.62952741  1
  In  In2  1  0.00168252  0.48705831  0.10627153  1
  In  In3  1  0.00966672  0.49180419  0.63155374  1
  In  In4  1  0.00905142  0.84541686  0.11273168  1
  In  In5  1  0.00921714  0.83202000  0.62456205  1
  In  In6  1  0.33789709  0.15370051  0.11559174  1
  In  In7  1  0.33247424  0.16547231  0.62823686  1
  In  In8  1  0.34197515  0.50715006  0.11440530  1
  In  In9  1  0.31961848  0.48203779  0.62345484  1
  In  In10  1  0.31301310  0.82277952  0.10442603  1
  In  In11  1  0.32894593  0.84541173  0.63138820  1
  In  In12  1  0.65982502  0.16900903  0.12147990  1
  In  In13  1  0.65834043  0.17715284  0.63822556  1
  In  In14  1  0.66022954  0.49507910  0.11095981  1
  In  In15  1  0.65627803  0.50753207  0.63728511  1
  In  In16  1  0.66736411  0.83496401  0.11235320  1
  In  In17  1  0.66810982  0.83415870  0.64655952  1
  In  In18  1  0.15609338  0.00626773  0.38784381  1
  In  In19  1  0.16020632  -0.00273902  0.86720759  1
  In  In20  1  0.16551385  0.33976414  0.37688358  1
  In  In21  1  0.16381528  0.33762204  0.86804737  1
  In  In22  1  0.17766259  0.65717809  0.38025754  1
  In  In23  1  0.17353787  0.66351924  0.88444881  1
  In  In24  1  0.50706635  0.00583396  0.38327562  1
  In  In25  1  0.49433329  0.00026081  0.87754883  1
  In  In26  1  0.49651550  0.33403837  0.38587929  1
  In  In27  1  0.49643695  0.32918748  0.87590709  1
  In  In28  1  0.47897190  0.67260635  0.37251846  1
  In  In29  1  0.50771565  0.65877478  0.87912311  1
  In  In30  1  0.83602866  -0.01198568  0.37775746  1
  In  In31  1  0.82992773  -0.01659261  0.85804091  1
  In  In32  1  0.83971214  0.32239138  0.37596911  1
  In  In33  1  0.84369345  0.34827299  0.87111246  1
  In  In34  1  0.82746748  0.66605466  0.37234125  1
  In  In35  1  0.82087277  0.67620215  0.87907813  1
  In  In36  1  0.00479735  0.17196007  0.37321837  1
  In  In37  1  0.00265107  0.16787165  0.86325931  1
  In  In38  1  0.01764101  0.50144092  0.37361106  1
  In  In39  1  0.00601529  0.48379907  0.88879546  1
  In  In40  1  0.00712501  0.84587549  0.36794775  1
  In  In41  1  -0.00467708  0.83897534  0.88091366  1
  In  In42  1  0.33352302  0.16368982  0.38460381  1
  In  In43  1  0.34185074  0.17598631  0.87152800  1
  In  In44  1  0.32776005  0.50431594  0.38144215  1
  In  In45  1  0.32857831  0.48354021  0.88612843  1
  In  In46  1  0.32982730  0.82167110  0.36913040  1
  In  In47  1  0.32447881  0.84924989  0.88632760  1
  In  In48  1  0.66016993  0.16113910  0.38415311  1
  In  In49  1  0.65647306  0.15662190  0.86355762  1
  In  In50  1  0.66487691  0.48546695  0.37856011  1
  In  In51  1  0.66480915  0.50216749  0.87194732  1
  In  In52  1  0.66919750  0.84190692  0.37825544  1
  In  In53  1  0.66856153  0.83154450  0.87056185  1
  In  In54  1  0.16213415  -0.02320820  0.11805938  1
  In  In55  1  0.16358569  0.00396899  0.62456886  1
  In  In56  1  0.15547047  0.32745485  0.11948123  1
  In  In57  1  0.17409988  0.33404263  0.63138038  1
  In  In58  1  0.17240337  0.67475958  0.12116198  1
  In  In59  1  0.16565418  0.66444991  0.62224746  1
  In  In60  1  0.47813928  -0.01044389  0.09352670  1
  In  In61  1  0.48835652  0.01009692  0.63707754  1
  In  In62  1  0.49115524  0.33047958  0.10200445  1
  In  In63  1  0.49416009  0.33219899  0.63045806  1
  In  In64  1  0.48449292  0.65747363  0.11641532  1
  In  In65  1  0.50822683  0.66416637  0.63114433  1
  In  In66  1  0.85265064  0.00518411  0.12106505  1
  In  In67  1  0.84003875  -0.00808967  0.64238806  1
  In  In68  1  0.84065865  0.34009072  0.11437584  1
  In  In69  1  0.83974757  0.32643993  0.64006011  1
  In  In70  1  0.83061242  0.66130669  0.11300627  1
  In  In71  1  0.83187333  0.66418729  0.63360346  1
  In  In72  1  0.83380897  0.16486189  0.50419779  1
  In  In73  1  0.17403412  0.17297776  -0.01008621  1
  In  In74  1  0.32761908  -0.00106890  0.24686250  1
  In  In75  1  0.83730556  0.49687278  0.51735749  1
  In  In76  1  0.83995552  0.83003700  0.51336119  1
  In  In77  1  0.33243288  0.33417422  0.24419614  1
  In  In78  1  0.66590443  0.00178868  0.25570905  1
  In  In79  1  0.66494249  0.66003939  0.24117857  1
  In  In80  1  0.49603917  0.83634164  0.50190082  1
  In  In81  1  0.00678678  0.66988726  0.24382145  1
  In  In82  1  0.66936958  0.33292560  0.23523053  1
  In  In83  1  -0.00459567  0.66995846  0.75337291  1
  In  In84  1  0.33739343  0.65641282  0.76570332  1
  In  In85  1  0.83080484  0.16449037  -0.00570047  1
  Cu  Cu86  1  0.49237260  0.50674173  0.24617100  1
  Cu  Cu87  1  0.49406267  0.49529836  0.75543146  1
  Cu  Cu88  1  -0.00663857  0.66770519  -0.00353784  1
  Cu  Cu89  1  0.49764663  0.16668954  0.75257932  1
  Cu  Cu90  1  0.32711372  0.00314723  0.50840657  1
  Cu  Cu91  1  0.83813751  0.83843523  0.24315058  1
  Cu  Cu92  1  0.84984575  0.48917589  0.24169550  1
  Cu  Cu93  1  0.17113307  0.16717600  0.74805040  1
  Cu  Cu94  1  0.50566110  0.16916766  0.24933942  1
  Cu  Cu95  1  0.65199389  0.33768563  0.51108001  1
  Cu  Cu96  1  0.66785320  0.66875593  -0.00394156  1
  Cu  Cu97  1  0.84976438  0.16469009  0.25108809  1
  Cu  Cu98  1  0.16173900  0.16531267  0.25084910  1
  Cu  Cu99  1  0.49890910  0.83634596  0.75921125  1
  Cu  Cu100  1  0.00154920  0.00089244  -0.00843982  1
  Cu  Cu101  1  0.01066552  0.67245526  0.49675853  1
  Cu  Cu102  1  0.65798377  0.00902914  0.51492755  1
  Cu  Cu103  1  0.48781349  0.82776200  0.24118864  1
  Cu  Cu104  1  0.33644598  0.66090411  0.50331807  1
  Cu  Cu105  1  0.00879691  0.33900818  0.50229721  1
  Cu  Cu106  1  0.33379440  0.67164263  -0.00557274  1
  Cu  Cu107  1  0.66874055  -0.00363384  -0.01379630  1
  Cu  Cu108  1  0.83314583  0.17213637  0.75355260  1
  Cu  Cu109  1  0.83112065  0.50677322  0.75637237  1
  Cu  Cu110  1  0.17020185  0.83324288  0.75106085  1
  Cu  Cu111  1  0.66680179  0.33300098  -0.01090559  1
  Cu  Cu112  1  0.33666522  0.32640224  0.50604300  1
  Cu  Cu113  1  0.65844189  0.65656251  0.50578319  1
  Cu  Cu114  1  0.16855789  0.49940624  0.24999149  1
  Se  Se115  1  0.08268890  0.07985084  0.05279112  1
  Se  Se116  1  0.08685773  0.08705929  0.55246470  1
  Se  Se117  1  0.10632519  0.42250361  0.04321619  1
  Se  Se118  1  0.09177121  0.41880728  0.55848743  1
  Se  Se119  1  0.08072039  0.74740872  0.05092506  1
  Se  Se120  1  0.09157472  0.75442636  0.55301683  1
  Se  Se121  1  0.43355506  0.10859347  0.03994144  1
  Se  Se122  1  0.41696201  0.08288257  0.55720900  1
  Se  Se123  1  0.41999869  0.42823347  0.04269848  1
  Se  Se124  1  0.41745093  0.41525387  0.55649923  1
  Se  Se125  1  0.41980150  0.75415159  0.04775609  1
  Se  Se126  1  0.41051214  0.74517735  0.56512030  1
  Se  Se127  1  0.74249962  0.07193442  0.05685129  1
  Se  Se128  1  0.74760081  0.08100046  0.57218517  1
  Se  Se129  1  0.74815681  0.41216222  0.04761531  1
  Se  Se130  1  0.74179230  0.40708682  0.57110179  1
  Se  Se131  1  0.75358856  0.75218280  0.04793874  1
  Se  Se132  1  0.73655902  0.74188628  0.56403955  1
  Se  Se133  1  0.26130119  0.25784671  0.05782204  1
  Se  Se134  1  0.24931879  0.24837385  0.55926765  1
  Se  Se135  1  0.25147187  0.59018978  0.05186482  1
  Se  Se136  1  0.25125048  0.58078980  0.55723609  1
  Se  Se137  1  0.27857846  0.95008522  0.05557402  1
  Se  Se138  1  0.24669691  0.91418427  0.55680987  1
  Se  Se139  1  0.58883040  0.24855986  0.04598543  1
  Se  Se140  1  0.57660137  0.24542501  0.56105679  1
  Se  Se141  1  0.58053635  0.58712301  0.04973552  1
  Se  Se142  1  0.57544760  0.57536214  0.55787973  1
  Se  Se143  1  0.58525352  0.91478789  0.04269076  1
  Se  Se144  1  0.58507975  0.91674328  0.57013431  1
  Se  Se145  1  0.92869525  0.24708079  0.05342068  1
  Se  Se146  1  0.92403382  0.25932254  0.56048073  1
  Se  Se147  1  0.91370735  0.57703851  0.04717022  1
  Se  Se148  1  0.93199066  0.59734188  0.56332948  1
  Se  Se149  1  0.91505785  0.91843628  0.04522113  1
  Se  Se150  1  0.92726638  0.93140764  0.56085300  1
  Se  Se151  1  0.08428228  0.25362235  0.44441837  1
  Se  Se152  1  0.07091658  0.25475163  0.93941970  1
  Se  Se153  1  0.08945469  0.57957816  0.44940613  1
  Se  Se154  1  0.08087597  0.58499087  0.94758285  1
  Se  Se155  1  0.07968169  0.90940386  0.44920382  1
  Se  Se156  1  0.09048657  0.91625002  0.94516946  1
  Se  Se157  1  0.42057735  0.24372464  0.45105532  1
  Se  Se158  1  0.41150711  0.25553839  0.94849826  1
  Se  Se159  1  0.42036881  0.58238923  0.44703311  1
  Se  Se160  1  0.41120687  0.58315439  0.94188927  1
  Se  Se161  1  0.40402099  0.92466599  0.44097319  1
  Se  Se162  1  0.42436355  0.91383314  0.95107870  1
  Se  Se163  1  0.73815952  0.26235048  0.44900730  1
  Se  Se164  1  0.74535266  0.25072560  0.92937078  1
  Se  Se165  1  0.74717016  0.58292174  0.44710142  1
  Se  Se166  1  0.74815859  0.58095457  0.94464679  1
  Se  Se167  1  0.74106845  0.92643557  0.45606792  1
  Se  Se168  1  0.75684934  0.91379477  0.93900358  1
  Se  Se169  1  0.24619426  0.08737319  0.45193862  1
  Se  Se170  1  0.25708996  0.07699663  0.93329241  1
  Se  Se171  1  0.25705528  0.40891498  0.44675998  1
  Se  Se172  1  0.22353147  0.42082368  0.94953686  1
  Se  Se173  1  0.25766819  0.74580453  0.44722502  1
  Se  Se174  1  0.24430922  0.75849555  0.95098361  1
  Se  Se175  1  0.57691311  0.08999922  0.45813733  1
  Se  Se176  1  0.58370713  0.08548592  0.94301219  1
  Se  Se177  1  0.57714391  0.42223463  0.45254993  1
  Se  Se178  1  0.58171416  0.41840789  0.94053922  1
  Se  Se179  1  0.58859179  0.74301012  0.44130414  1
  Se  Se180  1  0.58523209  0.75172540  0.94288654  1
  Se  Se181  1  0.92097743  0.07743011  0.44180562  1
  Se  Se182  1  0.91868737  0.07705115  0.93168214  1
  Se  Se183  1  0.92177827  0.41608161  0.44378665  1
  Se  Se184  1  0.90818440  0.41664829  0.95508041  1
  Se  Se185  1  0.91952482  0.74462246  0.43915187  1
  Se  Se186  1  0.91148538  0.75415624  0.94586928  1
  Se  Se187  1  0.24995099  0.24181918  0.30763234  1
  Se  Se188  1  0.24901151  0.25086452  0.80502340  1
  Se  Se189  1  0.25327884  0.57949420  0.30376645  1
  Se  Se190  1  0.23810912  0.56691465  0.81327474  1
  Se  Se191  1  0.24169878  0.91769753  0.31436484  1
  Se  Se192  1  0.25378234  0.91747559  0.80301806  1
  Se  Se193  1  0.58434228  0.25038017  0.30931158  1
  Se  Se194  1  0.58077759  0.25421482  0.80203215  1
  Se  Se195  1  0.57851763  0.57632808  0.31043493  1
  Se  Se196  1  0.58022793  0.58339112  0.80079248  1
  Se  Se197  1  0.56628951  0.90499265  0.30717652  1
  Se  Se198  1  0.58262786  0.92184198  0.80852266  1
  Se  Se199  1  0.92527734  0.25672497  0.30222280  1
  Se  Se200  1  0.91813091  0.25802092  0.80192145  1
  Se  Se201  1  0.91403573  0.57693355  0.30594523  1
  Se  Se202  1  0.91399448  0.58053940  0.81889790  1
  Se  Se203  1  0.91649603  0.92110942  0.30022027  1
  Se  Se204  1  0.94091829  0.92448862  0.80123815  1
  Se  Se205  1  0.08447322  0.08153687  0.30754612  1
  Se  Se206  1  0.08321154  0.08225532  0.79656827  1
  Se  Se207  1  0.08529770  0.41404622  0.30075823  1
  Se  Se208  1  0.06639123  0.41188145  0.80513749  1
  Se  Se209  1  0.09472920  0.74972068  0.31045534  1
  Se  Se210  1  0.09347255  0.75307994  0.81285894  1
  Se  Se211  1  0.42452575  0.08857460  0.30856171  1
  Se  Se212  1  0.41436901  0.08204053  0.80465096  1
  Se  Se213  1  0.42310792  0.41942303  0.30829814  1
  Se  Se214  1  0.41009347  0.41448752  0.80866540  1
  Se  Se215  1  0.40579890  0.74364142  0.29348783  1
  Se  Se216  1  0.41816991  0.75892038  0.81968898  1
  Se  Se217  1  0.76092284  0.09528876  0.31293254  1
  Se  Se218  1  0.75120594  0.08174752  0.79960291  1
  Se  Se219  1  0.76062211  0.41748943  0.30380302  1
  Se  Se220  1  0.74797810  0.41773358  0.80347850  1
  Se  Se221  1  0.75234477  0.76038391  0.30145606  1
  Se  Se222  1  0.75218625  0.75198196  0.80045141  1
  Se  Se223  1  0.23885223  0.08986626  0.18607074  1
  Se  Se224  1  0.25052211  0.07953652  0.69568838  1
  Se  Se225  1  0.24479279  0.42322527  0.18370732  1
  Se  Se226  1  0.25186350  0.41412188  0.70483102  1
  Se  Se227  1  0.24315375  0.76581211  0.18999538  1
  Se  Se228  1  0.25068606  0.74579818  0.69727813  1
  Se  Se229  1  0.57680354  0.08189740  0.18855577  1
  Se  Se230  1  0.58415443  0.08129617  0.70250738  1
  Se  Se231  1  0.56753612  0.42111953  0.18469208  1
  Se  Se232  1  0.57868631  0.41406823  0.70008459  1
  Se  Se233  1  0.57733504  0.75492308  0.18401241  1
  Se  Se234  1  0.57724087  0.74778860  0.70547724  1
  Se  Se235  1  0.92795938  0.07506475  0.19989909  1
  Se  Se236  1  0.91782045  0.09365493  0.69695756  1
  Se  Se237  1  0.93012784  0.40873045  0.18620991  1
  Se  Se238  1  0.91450356  0.42629397  0.69967497  1
  Se  Se239  1  0.91045850  0.75261168  0.18312323  1
  Se  Se240  1  0.90767354  0.76485624  0.69421463  1
  Se  Se241  1  0.08237028  0.25178368  0.19725143  1
  Se  Se242  1  0.08453961  0.25343388  0.69858073  1
  Se  Se243  1  0.08784721  0.57288327  0.18399442  1
  Se  Se244  1  0.09281950  0.58081737  0.69903598  1
  Se  Se245  1  0.07851698  0.91473375  0.19438405  1
  Se  Se246  1  0.08763000  0.91373704  0.69526796  1
  Se  Se247  1  0.42595833  0.24378302  0.18589968  1
  Se  Se248  1  0.41248512  0.24845922  0.69914893  1
  Se  Se249  1  0.40710356  0.58761612  0.19484908  1
  Se  Se250  1  0.41631188  0.57473900  0.69186906  1
  Se  Se251  1  0.41829423  0.91639598  0.18263896  1
  Se  Se252  1  0.41518135  0.91565653  0.70301759  1
  Se  Se253  1  0.76694629  0.23657991  0.18640256  1
  Se  Se254  1  0.74434122  0.25700434  0.70588223  1
  Se  Se255  1  0.75838562  0.56524781  0.18683756  1
  Se  Se256  1  0.74679013  0.58799963  0.70211787  1
  Se  Se257  1  0.75252157  0.91838673  0.18642051  1
  Se  Se258  1  0.74963917  0.92025338  0.70915590  1
