# generated using pymatgen
data_In86Cu29Se144
_symmetry_space_group_name_H-M   'P 1'
_cell_length_a   17.65274331
_cell_length_b   17.64784729
_cell_length_c   23.50740806
_cell_angle_alpha   90.00981876
_cell_angle_beta   90.00167747
_cell_angle_gamma   89.96783814
_symmetry_Int_Tables_number   1
_chemical_formula_structural   In86Cu29Se144
_chemical_formula_sum   'In86 Cu29 Se144'
_cell_volume   7323.33016580
_cell_formula_units_Z   1
loop_
 _symmetry_equiv_pos_site_id
 _symmetry_equiv_pos_as_xyz
  1  'x, y, z'
loop_
 _atom_site_type_symbol
 _atom_site_label
 _atom_site_symmetry_multiplicity
 _atom_site_fract_x
 _atom_site_fract_y
 _atom_site_fract_z
 _atom_site_occupancy
  In  In0  1  0.00032664  0.15809454  0.12225521  1
  In  In1  1  0.00204643  0.17066683  0.63185282  1
  In  In2  1  0.00328527  0.51456117  0.12524241  1
  In  In3  1  -0.00147968  0.49816511  0.62679129  1
  In  In4  1  0.01055982  0.82020553  0.12310362  1
  In  In5  1  -0.00597534  0.84103152  0.63005593  1
  In  In6  1  0.32702961  0.16948076  0.12076875  1
  In  In7  1  0.32076174  0.16018033  0.62813902  1
  In  In8  1  0.34240238  0.50959294  0.13043156  1
  In  In9  1  0.34385348  0.50817399  0.61397542  1
  In  In10  1  0.32831606  0.82354088  0.11493802  1
  In  In11  1  0.33590489  0.83996209  0.64166922  1
  In  In12  1  0.67272304  0.17487261  0.12633294  1
  In  In13  1  0.68291530  0.15943291  0.62865263  1
  In  In14  1  0.67118325  0.49516843  0.12912032  1
  In  In15  1  0.67376360  0.50478389  0.62882429  1
  In  In16  1  0.65935291  0.83688635  0.11613636  1
  In  In17  1  0.67632055  0.80944479  0.63823004  1
  In  In18  1  0.17392734  0.00480190  0.38446233  1
  In  In19  1  0.16319253  -0.00527947  0.87437119  1
  In  In20  1  0.16650799  0.33309253  0.38435108  1
  In  In21  1  0.15165048  0.33015307  0.87197488  1
  In  In22  1  0.15209570  0.66361467  0.36711448  1
  In  In23  1  0.17321324  0.67387703  0.86665859  1
  In  In24  1  0.49491305  -0.01126045  0.37803502  1
  In  In25  1  0.47049100  -0.04925239  0.82801521  1
  In  In26  1  0.51633272  0.33674302  0.37601468  1
  In  In27  1  0.50787025  0.32645548  0.87431422  1
  In  In28  1  0.49592931  0.65965922  0.36469417  1
  In  In29  1  0.50576926  0.67966286  0.86563463  1
  In  In30  1  0.83697944  -0.00636566  0.39040336  1
  In  In31  1  0.83391880  -0.00053823  0.86258198  1
  In  In32  1  0.82211097  0.34729152  0.38824379  1
  In  In33  1  0.83734436  0.34309627  0.86347863  1
  In  In34  1  0.82977362  0.66344074  0.37929615  1
  In  In35  1  0.83559304  0.66133317  0.86467878  1
  In  In36  1  0.00170206  0.16352736  0.38731417  1
  In  In37  1  0.00879007  0.16772812  0.86389433  1
  In  In38  1  -0.01020068  0.50792146  0.38473915  1
  In  In39  1  -0.01156222  0.49073761  0.85871805  1
  In  In40  1  -0.00642829  0.81952171  0.37221509  1
  In  In41  1  0.01011697  0.84267054  0.86699636  1
  In  In42  1  0.31932160  0.16071487  0.38363666  1
  In  In43  1  0.32841843  0.14833235  0.86664210  1
  In  In44  1  0.32263451  0.51044158  0.38626349  1
  In  In45  1  0.32530695  0.51033897  0.87046091  1
  In  In46  1  0.33958619  0.83107390  0.37435609  1
  In  In47  1  0.32325966  0.82391444  0.87978174  1
  In  In48  1  0.66561472  0.17859935  0.38035392  1
  In  In49  1  0.66529715  0.16730614  0.86490183  1
  In  In50  1  0.67020491  0.50768776  0.37896367  1
  In  In51  1  0.68437638  0.51766800  0.85782121  1
  In  In52  1  0.67433609  0.82095932  0.38061643  1
  In  In53  1  0.65920361  0.82775398  0.86489671  1
  In  In54  1  0.16845728  -0.00284014  0.11115216  1
  In  In55  1  0.16339267  0.01192728  0.64099616  1
  In  In56  1  0.16807049  0.32758934  0.12277760  1
  In  In57  1  0.15465286  0.32156740  0.62244559  1
  In  In58  1  0.16552887  0.67661097  0.13430395  1
  In  In59  1  0.17483566  0.66033869  0.62728447  1
  In  In60  1  0.50808504  -0.01142355  0.11666029  1
  In  In61  1  0.50073168  -0.00235196  0.63864720  1
  In  In62  1  0.51252756  0.34844565  0.12782424  1
  In  In63  1  0.50158023  0.35336266  0.62029500  1
  In  In64  1  0.49196983  0.67053394  0.13048569  1
  In  In65  1  0.51201421  0.66378125  0.63617835  1
  In  In66  1  0.82766205  0.00242585  0.12195309  1
  In  In67  1  0.83280120  -0.00181840  0.62241440  1
  In  In68  1  0.81598697  0.34220963  0.13047011  1
  In  In69  1  0.84237002  0.34002907  0.62877068  1
  In  In70  1  0.85122493  0.65838234  0.12831302  1
  In  In71  1  0.83323214  0.66178515  0.62460692  1
  In  In72  1  0.16555940  0.83960554  0.50952189  1
  In  In73  1  0.16063122  0.50108824  -0.00433046  1
  In  In74  1  0.66938794  0.00244184  0.24281781  1
  In  In75  1  -0.00472324  0.33579857  0.26487467  1
  In  In76  1  0.49842151  0.16099771  -0.00538597  1
  In  In77  1  -0.00331136  -0.01372713  0.24676754  1
  In  In78  1  0.49986092  0.49808053  0.00483430  1
  In  In79  1  0.34008597  0.34381020  0.25316590  1
  In  In80  1  0.49565186  0.83555693  0.50590284  1
  In  In81  1  0.83424395  0.16921099  0.00151626  1
  In  In82  1  0.33266989  0.33516903  0.74662902  1
  In  In83  1  0.33331494  -0.00144256  0.25689561  1
  In  In84  1  0.49879905  0.17116007  0.50808896  1
  In  In85  1  0.83959663  0.82909350  0.00272555  1
  Cu  Cu86  1  0.82565884  0.17041699  0.25597404  1
  Cu  Cu87  1  -0.00414352  0.66476033  0.49939369  1
  Cu  Cu88  1  0.66391052  -0.00310302  0.50411918  1
  Cu  Cu89  1  0.67205744  0.34058101  -0.00247864  1
  Cu  Cu90  1  0.50242968  0.50367265  0.74592262  1
  Cu  Cu91  1  0.00346665  0.32957441  0.50689774  1
  Cu  Cu92  1  0.67660292  0.34031440  0.50211967  1
  Cu  Cu93  1  0.66867283  0.66381551  -0.01093510  1
  Cu  Cu94  1  0.50281999  0.83315471  0.24720899  1
  Cu  Cu95  1  0.33220387  0.67162164  0.50093459  1
  Cu  Cu96  1  0.33245589  0.33579742  0.50349355  1
  Cu  Cu97  1  0.16259857  0.83078866  0.75040101  1
  Cu  Cu98  1  0.66932471  0.66069286  0.50737666  1
  Cu  Cu99  1  0.83529998  0.50327452  0.25677576  1
  Cu  Cu100  1  0.65782385  -0.00560289  -0.01343010  1
  Cu  Cu101  1  0.32366632  0.32412285  0.00125829  1
  Cu  Cu102  1  0.16281299  0.16325974  0.25208419  1
  Cu  Cu103  1  0.33334416  0.66822907  0.00031799  1
  Cu  Cu104  1  0.16489806  0.49825013  0.74381987  1
  Cu  Cu105  1  0.83970264  0.17026146  0.74558005  1
  Cu  Cu106  1  -0.00724519  0.33136584  -0.00837665  1
  Cu  Cu107  1  0.50820904  0.17312389  0.74535669  1
  Cu  Cu108  1  0.49818545  0.17446687  0.25227297  1
  Cu  Cu109  1  0.00414781  0.66393618  -0.00101101  1
  Cu  Cu110  1  0.00208246  0.00132865  0.51091341  1
  Cu  Cu111  1  0.83425010  0.83115436  0.74603622  1
  Cu  Cu112  1  0.00556309  0.00018501  -0.00798312  1
  Cu  Cu113  1  0.16881967  0.51155515  0.25349255  1
  Cu  Cu114  1  0.33588140  -0.00914008  -0.01160985  1
  Se  Se115  1  0.08220901  0.08543661  0.05020530  1
  Se  Se116  1  0.08488975  0.08308661  0.56349932  1
  Se  Se117  1  0.07254006  0.40827205  0.05685327  1
  Se  Se118  1  0.08479604  0.41765243  0.55735127  1
  Se  Se119  1  0.09094240  0.74230044  0.05171431  1
  Se  Se120  1  0.07580586  0.74279461  0.56177809  1
  Se  Se121  1  0.40636406  0.07045862  0.05644434  1
  Se  Se122  1  0.41501897  0.07433871  0.56378207  1
  Se  Se123  1  0.40380614  0.40371898  0.05953971  1
  Se  Se124  1  0.42207303  0.42277670  0.54384276  1
  Se  Se125  1  0.42293486  0.74744738  0.05114364  1
  Se  Se126  1  0.40689749  0.74743355  0.56696585  1
  Se  Se127  1  0.73224042  0.07511403  0.05116415  1
  Se  Se128  1  0.75162012  0.08138288  0.55064998  1
  Se  Se129  1  0.75221918  0.42311559  0.05228427  1
  Se  Se130  1  0.75563754  0.42137083  0.55953273  1
  Se  Se131  1  0.74661460  0.73900532  0.05774650  1
  Se  Se132  1  0.75144864  0.74953587  0.55497720  1
  Se  Se133  1  0.23868502  0.24114565  0.05094655  1
  Se  Se134  1  0.25336263  0.25086129  0.55727097  1
  Se  Se135  1  0.25440469  0.58375781  0.05835271  1
  Se  Se136  1  0.24855115  0.58414942  0.54973404  1
  Se  Se137  1  0.25285036  0.91261032  0.04735225  1
  Se  Se138  1  0.25422698  0.92452537  0.57126092  1
  Se  Se139  1  0.58843250  0.25864891  0.05327062  1
  Se  Se140  1  0.59541506  0.25859896  0.56181117  1
  Se  Se141  1  0.59137096  0.59089616  0.05871756  1
  Se  Se142  1  0.58154957  0.58250425  0.56010933  1
  Se  Se143  1  0.57852011  0.91006750  0.04110802  1
  Se  Se144  1  0.58828886  0.91898141  0.56694212  1
  Se  Se145  1  0.91815536  0.26239342  0.06477382  1
  Se  Se146  1  0.91852840  0.24963905  0.56023439  1
  Se  Se147  1  0.91942289  0.58013370  0.04919387  1
  Se  Se148  1  0.91690838  0.58051850  0.55524551  1
  Se  Se149  1  0.92766288  0.92772577  0.05943230  1
  Se  Se150  1  0.91558498  0.91281032  0.55356006  1
  Se  Se151  1  0.08701419  0.24737773  0.45091384  1
  Se  Se152  1  0.07724050  0.24634283  0.94411504  1
  Se  Se153  1  0.08506071  0.58642924  0.44644474  1
  Se  Se154  1  0.07463256  0.58449473  0.93047701  1
  Se  Se155  1  0.07278434  0.92115037  0.44211905  1
  Se  Se156  1  0.08644823  0.90874210  0.94720762  1
  Se  Se157  1  0.41160524  0.25716993  0.43943741  1
  Se  Se158  1  0.40535239  0.25260673  0.93771704  1
  Se  Se159  1  0.41885306  0.59273198  0.44495390  1
  Se  Se160  1  0.41278784  0.58633097  0.94167957  1
  Se  Se161  1  0.39874724  0.92767823  0.44979380  1
  Se  Se162  1  0.41974041  0.91799937  0.92948856  1
  Se  Se163  1  0.75296244  0.24701027  0.45185770  1
  Se  Se164  1  0.74602403  0.25393512  0.93879944  1
  Se  Se165  1  0.75528456  0.57993361  0.45250106  1
  Se  Se166  1  0.75617830  0.58391897  0.93992431  1
  Se  Se167  1  0.74388093  0.91145603  0.45005367  1
  Se  Se168  1  0.75399751  0.91827082  0.93862965  1
  Se  Se169  1  0.24517343  0.08557919  0.45734088  1
  Se  Se170  1  0.24949393  0.07813643  0.94286611  1
  Se  Se171  1  0.24684283  0.41807942  0.45092373  1
  Se  Se172  1  0.25327829  0.40863913  0.93834881  1
  Se  Se173  1  0.24901598  0.75033074  0.44197574  1
  Se  Se174  1  0.23995963  0.74335351  0.95043707  1
  Se  Se175  1  0.58348365  0.07594315  0.44240289  1
  Se  Se176  1  0.58089066  0.07753678  0.92934868  1
  Se  Se177  1  0.59017884  0.41955533  0.44750290  1
  Se  Se178  1  0.58983556  0.41829663  0.93806552  1
  Se  Se179  1  0.58317749  0.74077075  0.44827694  1
  Se  Se180  1  0.58516289  0.75117523  0.94215879  1
  Se  Se181  1  0.91797376  0.08182198  0.45404832  1
  Se  Se182  1  0.91795064  0.07888064  0.93888525  1
  Se  Se183  1  0.92121423  0.41402386  0.45198226  1
  Se  Se184  1  0.91497175  0.41771080  0.93916801  1
  Se  Se185  1  0.91301385  0.74892850  0.44707678  1
  Se  Se186  1  0.92593922  0.74506527  0.93647600  1
  Se  Se187  1  0.24515077  0.24696662  0.30654151  1
  Se  Se188  1  0.24426988  0.24576682  0.80654323  1
  Se  Se189  1  0.25453665  0.58951690  0.30779768  1
  Se  Se190  1  0.24635742  0.58291405  0.79670373  1
  Se  Se191  1  0.23875967  0.91021257  0.31133036  1
  Se  Se192  1  0.24627399  0.90889709  0.80817033  1
  Se  Se193  1  0.58733262  0.25069092  0.30350165  1
  Se  Se194  1  0.58821914  0.25828458  0.79831603  1
  Se  Se195  1  0.61666628  0.61480021  0.31183581  1
  Se  Se196  1  0.58272084  0.58982160  0.79949216  1
  Se  Se197  1  0.58320996  0.91146631  0.30780166  1
  Se  Se198  1  0.61329856  0.94446255  0.80874834  1
  Se  Se199  1  0.90567948  0.24225955  0.32009246  1
  Se  Se200  1  0.92038205  0.25231413  0.80196236  1
  Se  Se201  1  0.91895027  0.58698278  0.30830333  1
  Se  Se202  1  0.90209509  0.56956673  0.79295010  1
  Se  Se203  1  0.90015298  0.90887027  0.30914885  1
  Se  Se204  1  0.91834171  0.91456948  0.79887751  1
  Se  Se205  1  0.08271129  0.08235636  0.30922845  1
  Se  Se206  1  0.07404592  0.06569505  0.80419806  1
  Se  Se207  1  0.09279370  0.42789792  0.31376376  1
  Se  Se208  1  0.08486555  0.41333502  0.79733432  1
  Se  Se209  1  0.08839870  0.76262873  0.30207922  1
  Se  Se210  1  0.07768990  0.74484174  0.80082232  1
  Se  Se211  1  0.42345405  0.09539316  0.31354263  1
  Se  Se212  1  0.42744552  0.08966057  0.79954447  1
  Se  Se213  1  0.42176653  0.42748102  0.31936226  1
  Se  Se214  1  0.42404205  0.42415586  0.80994402  1
  Se  Se215  1  0.41781939  0.75316751  0.30204303  1
  Se  Se216  1  0.38817630  0.72554167  0.81242034  1
  Se  Se217  1  0.75284331  0.08327881  0.31506355  1
  Se  Se218  1  0.75457956  0.08930352  0.79896777  1
  Se  Se219  1  0.75155922  0.42121432  0.30939168  1
  Se  Se220  1  0.72909055  0.39984085  0.80357285  1
  Se  Se221  1  0.73464585  0.73010117  0.30764230  1
  Se  Se222  1  0.75143724  0.75001847  0.80191305  1
  Se  Se223  1  0.24334553  0.08636580  0.19244647  1
  Se  Se224  1  0.26398250  0.07609616  0.70604671  1
  Se  Se225  1  0.23979739  0.42489265  0.19145094  1
  Se  Se226  1  0.24971161  0.42328500  0.68223805  1
  Se  Se227  1  0.27022034  0.74084589  0.19352613  1
  Se  Se228  1  0.24766488  0.74938192  0.69746906  1
  Se  Se229  1  0.57077287  0.09281319  0.18697453  1
  Se  Se230  1  0.59010615  0.08626236  0.69550789  1
  Se  Se231  1  0.58462333  0.42395860  0.20139652  1
  Se  Se232  1  0.58551373  0.41950885  0.69516800  1
  Se  Se233  1  0.58474866  0.75569461  0.18944179  1
  Se  Se234  1  0.56227414  0.77089299  0.69986583  1
  Se  Se235  1  0.90428610  0.09201527  0.19576533  1
  Se  Se236  1  0.91481886  0.08012133  0.69226670  1
  Se  Se237  1  0.91626730  0.42253163  0.19430428  1
  Se  Se238  1  0.91355834  0.42749619  0.70075868  1
  Se  Se239  1  0.91193383  0.76368434  0.18957807  1
  Se  Se240  1  0.91680419  0.74756261  0.69292057  1
  Se  Se241  1  0.08089792  0.24600192  0.19600562  1
  Se  Se242  1  0.09084641  0.24454513  0.70125555  1
  Se  Se243  1  0.08209164  0.58890937  0.19874229  1
  Se  Se244  1  0.08305546  0.58514046  0.69319596  1
  Se  Se245  1  0.09874761  0.91117227  0.18814770  1
  Se  Se246  1  0.08117299  0.91673417  0.69906257  1
  Se  Se247  1  0.42121857  0.24791438  0.18731703  1
  Se  Se248  1  0.42569993  0.24962750  0.68377916  1
  Se  Se249  1  0.43978362  0.56572804  0.19779545  1
  Se  Se250  1  0.41414753  0.58210042  0.69346246  1
  Se  Se251  1  0.42146199  0.91569098  0.19041427  1
  Se  Se252  1  0.42416372  0.91444154  0.71036559  1
  Se  Se253  1  0.74525682  0.25317651  0.20145745  1
  Se  Se254  1  0.75494169  0.25359270  0.69383408  1
  Se  Se255  1  0.75941112  0.57999302  0.19187857  1
  Se  Se256  1  0.73303661  0.60638394  0.69493755  1
  Se  Se257  1  0.75795215  0.90637433  0.18885207  1
  Se  Se258  1  0.75143193  0.91458259  0.69228788  1
