# generated using pymatgen
data_In86Cu29Se144
_symmetry_space_group_name_H-M   'P 1'
_cell_length_a   17.57946841
_cell_length_b   17.57835307
_cell_length_c   23.44277379
_cell_angle_alpha   90.01064024
_cell_angle_beta   90.01163762
_cell_angle_gamma   90.00737587
_symmetry_Int_Tables_number   1
_chemical_formula_structural   In86Cu29Se144
_chemical_formula_sum   'In86 Cu29 Se144'
_cell_volume   7244.24114151
_cell_formula_units_Z   1
loop_
 _symmetry_equiv_pos_site_id
 _symmetry_equiv_pos_as_xyz
  1  'x, y, z'
loop_
 _atom_site_type_symbol
 _atom_site_label
 _atom_site_symmetry_multiplicity
 _atom_site_fract_x
 _atom_site_fract_y
 _atom_site_fract_z
 _atom_site_occupancy
  In  In0  1  -0.02892494  0.16109976  0.12208683  1
  In  In1  1  -0.00695650  0.15739706  0.61918659  1
  In  In2  1  0.01668467  0.49562627  0.12191420  1
  In  In3  1  0.00245468  0.50054326  0.61447205  1
  In  In4  1  0.00505029  0.82968447  0.13468982  1
  In  In5  1  0.01052900  0.84620913  0.61655811  1
  In  In6  1  0.33686953  0.15911797  0.11905847  1
  In  In7  1  0.33056940  0.16425150  0.62686709  1
  In  In8  1  0.33203363  0.51709224  0.12767943  1
  In  In9  1  0.33542289  0.50258623  0.62708948  1
  In  In10  1  0.31437141  0.82980604  0.12024822  1
  In  In11  1  0.32796850  0.83928466  0.63201267  1
  In  In12  1  0.66640757  0.15241669  0.11769445  1
  In  In13  1  0.66023064  0.16165132  0.62188549  1
  In  In14  1  0.65779506  0.49851615  0.12261053  1
  In  In15  1  0.66974727  0.50893587  0.61896875  1
  In  In16  1  0.68088157  0.84059184  0.12183376  1
  In  In17  1  0.67203288  0.82642194  0.62849821  1
  In  In18  1  0.15814886  0.00816041  0.38586686  1
  In  In19  1  0.15425273  -0.00279804  0.86473250  1
  In  In20  1  0.16459765  0.33196458  0.38402159  1
  In  In21  1  0.18366996  0.32999093  0.87201315  1
  In  In22  1  0.16448405  0.66802002  0.37849330  1
  In  In23  1  0.17220676  0.65527959  0.88653061  1
  In  In24  1  0.51134000  0.00280702  0.37633963  1
  In  In25  1  0.51142136  0.01131743  0.86812715  1
  In  In26  1  0.50654126  0.32997935  0.38690482  1
  In  In27  1  0.48553462  0.33054179  0.86971122  1
  In  In28  1  0.48480255  0.66988661  0.37727815  1
  In  In29  1  0.50089194  0.66468767  0.86063412  1
  In  In30  1  0.83052622  0.00304364  0.37791806  1
  In  In31  1  0.84052867  -0.00083898  0.86993442  1
  In  In32  1  0.83728004  0.32849554  0.38298195  1
  In  In33  1  0.82114491  0.32750902  0.87410702  1
  In  In34  1  0.84457732  0.65805946  0.38079366  1
  In  In35  1  0.83396665  0.67686811  0.87565656  1
  In  In36  1  -0.00109379  0.16172700  0.37877879  1
  In  In37  1  0.00791355  0.14888479  0.87476644  1
  In  In38  1  -0.00351340  0.50425511  0.37913062  1
  In  In39  1  0.01204520  0.50817986  0.88053473  1
  In  In40  1  0.00055008  0.83370081  0.37809664  1
  In  In41  1  -0.00320783  0.84241159  0.87782323  1
  In  In42  1  0.33271065  0.16702434  0.38774506  1
  In  In43  1  0.33730307  0.17865540  0.86383179  1
  In  In44  1  0.31920083  0.51349086  0.38850873  1
  In  In45  1  0.33142657  0.49230843  0.86248831  1
  In  In46  1  0.33249853  0.81791315  0.37805053  1
  In  In47  1  0.32310141  0.82318681  0.86622977  1
  In  In48  1  0.67658126  0.15250930  0.38621161  1
  In  In49  1  0.67822527  0.14873293  0.88785044  1
  In  In50  1  0.66859849  0.49727796  0.38597028  1
  In  In51  1  0.65483732  0.50547836  0.86971252  1
  In  In52  1  0.66832834  0.85561920  0.37128835  1
  In  In53  1  0.66847942  0.83235869  0.86488210  1
  In  In54  1  0.16176787  -0.01995901  0.12367466  1
  In  In55  1  0.16878161  0.00088618  0.62600262  1
  In  In56  1  0.14337674  0.34276313  0.12005502  1
  In  In57  1  0.17525918  0.33815335  0.62271916  1
  In  In58  1  0.16384824  0.67144321  0.12478286  1
  In  In59  1  0.17420115  0.67291364  0.62075297  1
  In  In60  1  0.50062182  0.01185388  0.11656770  1
  In  In61  1  0.49094704  0.01192907  0.63444895  1
  In  In62  1  0.50735933  0.32524679  0.12252399  1
  In  In63  1  0.49069755  0.32822446  0.62304271  1
  In  In64  1  0.49486842  0.65393971  0.12534771  1
  In  In65  1  0.50492755  0.65856682  0.63715890  1
  In  In66  1  0.82672324  0.01280474  0.14231863  1
  In  In67  1  0.83333417  -0.00168553  0.62397850  1
  In  In68  1  0.84370048  0.31583043  0.12405938  1
  In  In69  1  0.83325554  0.33304404  0.61589124  1
  In  In70  1  0.83757803  0.68155948  0.12551702  1
  In  In71  1  0.82983310  0.66406446  0.61508141  1
  In  In72  1  0.83762692  0.49451936  0.00063994  1
  In  In73  1  0.33035363  -0.00679514  0.24803878  1
  In  In74  1  0.00017781  0.67177714  0.75041323  1
  In  In75  1  0.16772306  0.16779103  -0.00444208  1
  In  In76  1  0.50255263  0.83665216  -0.00954180  1
  In  In77  1  0.49996991  0.83557374  0.50087150  1
  In  In78  1  -0.00273566  0.32826288  0.25697861  1
  In  In79  1  0.49594137  0.49465647  -0.00531397  1
  In  In80  1  0.33038587  0.33876081  0.25852199  1
  In  In81  1  0.66860335  0.33147662  0.24698868  1
  In  In82  1  0.66823010  0.67258508  0.24535764  1
  In  In83  1  0.00329548  0.32636246  0.74242306  1
  In  In84  1  0.83780141  0.83563942  -0.00118641  1
  In  In85  1  0.65715528  0.32961573  0.74254895  1
  Cu  Cu86  1  0.33515363  0.00161278  -0.00574587  1
  Cu  Cu87  1  0.83711314  0.15614978  0.74965035  1
  Cu  Cu88  1  0.32815910  0.66741633  -0.00185396  1
  Cu  Cu89  1  0.50284677  0.16533192  0.74863959  1
  Cu  Cu90  1  0.33097460  -0.00086257  0.50939226  1
  Cu  Cu91  1  0.83431398  0.83490846  0.74718061  1
  Cu  Cu92  1  0.49904256  0.83766777  0.74843845  1
  Cu  Cu93  1  0.82734787  0.50805334  0.74287350  1
  Cu  Cu94  1  0.16316826  0.83584596  0.74654632  1
  Cu  Cu95  1  0.33124906  0.66318011  0.50528489  1
  Cu  Cu96  1  0.66317959  0.33789570  0.50589844  1
  Cu  Cu97  1  0.32843135  0.33707484  -0.00735034  1
  Cu  Cu98  1  0.17374646  0.50014214  0.74877247  1
  Cu  Cu99  1  0.66766913  0.67205308  0.50058093  1
  Cu  Cu100  1  0.50441126  0.16276702  0.24930091  1
  Cu  Cu101  1  0.49050993  0.50847836  0.25893420  1
  Cu  Cu102  1  0.83909896  0.83662304  0.25452406  1
  Cu  Cu103  1  0.84041290  0.50452951  0.25366125  1
  Cu  Cu104  1  0.33643711  0.33389296  0.50504652  1
  Cu  Cu105  1  -0.00300752  -0.00337349  0.49976793  1
  Cu  Cu106  1  0.00158738  0.66749138  0.49827250  1
  Cu  Cu107  1  0.66815812  0.31788735  0.00070514  1
  Cu  Cu108  1  0.66731011  0.00314515  0.50291013  1
  Cu  Cu109  1  0.00386605  0.32735583  0.50069664  1
  Cu  Cu110  1  0.49688381  0.83682159  0.25072925  1
  Cu  Cu111  1  -0.00153415  -0.00300611  0.00085662  1
  Cu  Cu112  1  0.15800209  0.15889085  0.25299004  1
  Cu  Cu113  1  0.16508316  0.82643362  0.25288753  1
  Cu  Cu114  1  0.17048982  0.51094507  0.25003103  1
  Se  Se115  1  0.08004078  0.07946781  0.06083649  1
  Se  Se116  1  0.08313789  0.07765801  0.55364231  1
  Se  Se117  1  0.08495503  0.42373772  0.04085812  1
  Se  Se118  1  0.08662548  0.41322507  0.55230975  1
  Se  Se119  1  0.09553326  0.77040344  0.06045760  1
  Se  Se120  1  0.08441489  0.74939531  0.55348847  1
  Se  Se121  1  0.41724845  0.08781198  0.04433042  1
  Se  Se122  1  0.41805613  0.08491830  0.55555030  1
  Se  Se123  1  0.40671005  0.41005605  0.06253726  1
  Se  Se124  1  0.41784882  0.42125191  0.55557852  1
  Se  Se125  1  0.41432380  0.74526386  0.05594572  1
  Se  Se126  1  0.41330356  0.74708610  0.56299691  1
  Se  Se127  1  0.76795937  0.08338331  0.05727619  1
  Se  Se128  1  0.75238808  0.08623184  0.55566259  1
  Se  Se129  1  0.74174693  0.40279290  0.06201376  1
  Se  Se130  1  0.75186171  0.42232712  0.55235644  1
  Se  Se131  1  0.74024554  0.73958478  0.05124765  1
  Se  Se132  1  0.75138803  0.75735348  0.55036690  1
  Se  Se133  1  0.25272359  0.26082296  0.06135040  1
  Se  Se134  1  0.25189955  0.24822051  0.55489093  1
  Se  Se135  1  0.24720072  0.58538905  0.05487713  1
  Se  Se136  1  0.24608297  0.57732501  0.55523466  1
  Se  Se137  1  0.25053488  0.92015326  0.04713588  1
  Se  Se138  1  0.24719016  0.91112235  0.55600491  1
  Se  Se139  1  0.57987136  0.23957791  0.05315500  1
  Se  Se140  1  0.58125852  0.25060141  0.55623721  1
  Se  Se141  1  0.58951544  0.59047570  0.05046998  1
  Se  Se142  1  0.58110418  0.59333929  0.55465685  1
  Se  Se143  1  0.59251113  0.92345533  0.05351885  1
  Se  Se144  1  0.58498743  0.92480137  0.56422500  1
  Se  Se145  1  0.93935100  0.26625900  0.05068607  1
  Se  Se146  1  0.91540111  0.24658030  0.55127504  1
  Se  Se147  1  0.92066598  0.58847728  0.06219730  1
  Se  Se148  1  0.91630552  0.58208207  0.54893621  1
  Se  Se149  1  0.92001935  0.92184058  0.06619048  1
  Se  Se150  1  0.91123673  0.91391285  0.55185487  1
  Se  Se151  1  0.08512604  0.24189506  0.44738453  1
  Se  Se152  1  0.07969008  0.25696776  0.93470217  1
  Se  Se153  1  0.08526966  0.58076811  0.44718814  1
  Se  Se154  1  0.07731529  0.59040694  0.95513255  1
  Se  Se155  1  0.08456710  0.91259950  0.44992388  1
  Se  Se156  1  0.08507497  0.92059220  0.94522653  1
  Se  Se157  1  0.41976969  0.24821893  0.45228719  1
  Se  Se158  1  0.41224557  0.25028393  0.94479559  1
  Se  Se159  1  0.41963396  0.58396010  0.45220288  1
  Se  Se160  1  0.41045722  0.59053750  0.93714067  1
  Se  Se161  1  0.40783383  0.92509296  0.43987839  1
  Se  Se162  1  0.40993002  0.92138688  0.93035990  1
  Se  Se163  1  0.74431295  0.25470462  0.44853632  1
  Se  Se164  1  0.75968063  0.24145857  0.95054264  1
  Se  Se165  1  0.75141009  0.58586091  0.44851159  1
  Se  Se166  1  0.74686149  0.58391132  0.93949331  1
  Se  Se167  1  0.74907258  0.91845402  0.44975492  1
  Se  Se168  1  0.74481734  0.92033569  0.93858143  1
  Se  Se169  1  0.24906566  0.08312715  0.45307521  1
  Se  Se170  1  0.25479162  0.08050378  0.93233467  1
  Se  Se171  1  0.24925621  0.41379083  0.45061078  1
  Se  Se172  1  0.25035951  0.42505066  0.94140808  1
  Se  Se173  1  0.24881988  0.74760536  0.45129599  1
  Se  Se174  1  0.24773381  0.75568147  0.94707467  1
  Se  Se175  1  0.57765249  0.08530571  0.45299681  1
  Se  Se176  1  0.57834114  0.08129373  0.95048491  1
  Se  Se177  1  0.57918872  0.42297346  0.45364475  1
  Se  Se178  1  0.59213205  0.40222352  0.94000036  1
  Se  Se179  1  0.59035301  0.75006097  0.43536445  1
  Se  Se180  1  0.58958617  0.74046568  0.93509615  1
  Se  Se181  1  0.91377053  0.08363035  0.44870948  1
  Se  Se182  1  0.91747326  0.07932950  0.94508121  1
  Se  Se183  1  0.92134270  0.41363277  0.44707513  1
  Se  Se184  1  0.92142821  0.40841215  0.93401595  1
  Se  Se185  1  0.91575405  0.75174129  0.44780985  1
  Se  Se186  1  0.93131028  0.73965496  0.94689251  1
  Se  Se187  1  0.24093748  0.23848825  0.30997222  1
  Se  Se188  1  0.25018989  0.25360488  0.79474703  1
  Se  Se189  1  0.25272102  0.58901767  0.30782467  1
  Se  Se190  1  0.24742648  0.58908032  0.80523099  1
  Se  Se191  1  0.24362074  0.90996318  0.31413567  1
  Se  Se192  1  0.24752837  0.91741999  0.80155844  1
  Se  Se193  1  0.58020042  0.24469611  0.31060316  1
  Se  Se194  1  0.58424716  0.23978948  0.81381158  1
  Se  Se195  1  0.58368092  0.58285111  0.31215056  1
  Se  Se196  1  0.58507761  0.58228842  0.79433366  1
  Se  Se197  1  0.58007718  0.92352097  0.29830098  1
  Se  Se198  1  0.58562063  0.91913526  0.80067066  1
  Se  Se199  1  0.90148799  0.23638120  0.30772970  1
  Se  Se200  1  0.91164618  0.24343167  0.80784224  1
  Se  Se201  1  0.92476598  0.58728644  0.30369413  1
  Se  Se202  1  0.91096621  0.57589411  0.80865611  1
  Se  Se203  1  0.91778522  0.91963615  0.31109880  1
  Se  Se204  1  0.92096613  0.91499511  0.80044720  1
  Se  Se205  1  0.07813336  0.07705320  0.30805279  1
  Se  Se206  1  0.08645398  0.09003755  0.79533431  1
  Se  Se207  1  0.09377828  0.42340403  0.30836875  1
  Se  Se208  1  0.08667574  0.42200264  0.80549812  1
  Se  Se209  1  0.08021227  0.74698416  0.30833386  1
  Se  Se210  1  0.09046263  0.75531396  0.81331050  1
  Se  Se211  1  0.41636646  0.08900030  0.30869953  1
  Se  Se212  1  0.41699031  0.08375222  0.80207784  1
  Se  Se213  1  0.42020460  0.42401748  0.32081889  1
  Se  Se214  1  0.43223952  0.42741766  0.79963034  1
  Se  Se215  1  0.41518327  0.75102183  0.30075455  1
  Se  Se216  1  0.41511715  0.75078263  0.79837141  1
  Se  Se217  1  0.73901091  0.07463506  0.30772471  1
  Se  Se218  1  0.74941889  0.08044958  0.80512295  1
  Se  Se219  1  0.75761651  0.42307500  0.30940011  1
  Se  Se220  1  0.75201771  0.42215026  0.80211607  1
  Se  Se221  1  0.75505415  0.75439019  0.31287328  1
  Se  Se222  1  0.75446783  0.74729424  0.79970817  1
  Se  Se223  1  0.24068520  0.08732595  0.18874800  1
  Se  Se224  1  0.26425281  0.06766409  0.69419855  1
  Se  Se225  1  0.24183604  0.42088494  0.19059447  1
  Se  Se226  1  0.25485961  0.41458900  0.69661977  1
  Se  Se227  1  0.25123602  0.74750354  0.19796415  1
  Se  Se228  1  0.24737760  0.74910789  0.69802513  1
  Se  Se229  1  0.58283679  0.08003780  0.19302570  1
  Se  Se230  1  0.59039960  0.08205322  0.69937425  1
  Se  Se231  1  0.56656549  0.42649259  0.19728930  1
  Se  Se232  1  0.57596420  0.42607270  0.68522146  1
  Se  Se233  1  0.57512656  0.75994198  0.18420652  1
  Se  Se234  1  0.58478851  0.75240741  0.69872386  1
  Se  Se235  1  0.93260153  0.07363836  0.20345674  1
  Se  Se236  1  0.92049600  0.07625620  0.69487433  1
  Se  Se237  1  0.91316819  0.42060258  0.19091547  1
  Se  Se238  1  0.91047976  0.42509385  0.68902409  1
  Se  Se239  1  0.91767512  0.74852742  0.20243124  1
  Se  Se240  1  0.91452983  0.75663677  0.68462982  1
  Se  Se241  1  0.08396560  0.24132600  0.19044935  1
  Se  Se242  1  0.09181280  0.23826640  0.68396143  1
  Se  Se243  1  0.08226874  0.58533987  0.19439803  1
  Se  Se244  1  0.08703384  0.57730686  0.69089371  1
  Se  Se245  1  0.08423036  0.91690204  0.20431736  1
  Se  Se246  1  0.08036033  0.92054446  0.69587177  1
  Se  Se247  1  0.41847073  0.24484034  0.19505528  1
  Se  Se248  1  0.41671515  0.24691485  0.69677818  1
  Se  Se249  1  0.41101970  0.59097740  0.20327987  1
  Se  Se250  1  0.39825776  0.59859614  0.69715520  1
  Se  Se251  1  0.42016252  0.91063656  0.18191264  1
  Se  Se252  1  0.41261768  0.92129544  0.69952292  1
  Se  Se253  1  0.75541509  0.23635302  0.19228118  1
  Se  Se254  1  0.76028742  0.24315052  0.69123057  1
  Se  Se255  1  0.75677266  0.57423513  0.18860791  1
  Se  Se256  1  0.74738580  0.59308552  0.69108434  1
  Se  Se257  1  0.74910863  0.91379433  0.20186312  1
  Se  Se258  1  0.74914379  0.91797014  0.69490271  1
