# generated using pymatgen
data_In86Cu29Se144
_symmetry_space_group_name_H-M   'P 1'
_cell_length_a   17.59361996
_cell_length_b   17.58632165
_cell_length_c   23.45456373
_cell_angle_alpha   90.00556838
_cell_angle_beta   90.00838524
_cell_angle_gamma   90.00665217
_symmetry_Int_Tables_number   1
_chemical_formula_structural   In86Cu29Se144
_chemical_formula_sum   'In86 Cu29 Se144'
_cell_volume   7257.00743826
_cell_formula_units_Z   1
loop_
 _symmetry_equiv_pos_site_id
 _symmetry_equiv_pos_as_xyz
  1  'x, y, z'
loop_
 _atom_site_type_symbol
 _atom_site_label
 _atom_site_symmetry_multiplicity
 _atom_site_fract_x
 _atom_site_fract_y
 _atom_site_fract_z
 _atom_site_occupancy
  In  In0  1  0.01018425  0.14974671  0.12664388  1
  In  In1  1  -0.01083486  0.14558708  0.60563278  1
  In  In2  1  0.00659698  0.48847629  0.12464973  1
  In  In3  1  -0.01230632  0.51015340  0.62500135  1
  In  In4  1  0.00010168  0.83454322  0.11858555  1
  In  In5  1  -0.00287258  0.84648294  0.61757483  1
  In  In6  1  0.34036096  0.16300970  0.12181398  1
  In  In7  1  0.33417567  0.16396407  0.62277492  1
  In  In8  1  0.33537048  0.49711702  0.12472744  1
  In  In9  1  0.31988062  0.49598826  0.62843510  1
  In  In10  1  0.31297953  0.84913039  0.14254285  1
  In  In11  1  0.34828449  0.84208817  0.61927892  1
  In  In12  1  0.65517553  0.17405554  0.13543857  1
  In  In13  1  0.66585087  0.16934934  0.62175479  1
  In  In14  1  0.65260669  0.49653307  0.12316002  1
  In  In15  1  0.67154089  0.48909457  0.62828224  1
  In  In16  1  0.68069296  0.83759766  0.12361194  1
  In  In17  1  0.66470376  0.83217944  0.62338035  1
  In  In18  1  0.19103196  -0.00150381  0.37573265  1
  In  In19  1  0.16676909  0.00211012  0.86972267  1
  In  In20  1  0.17246137  0.32317536  0.37272993  1
  In  In21  1  0.18842848  0.31347820  0.88710768  1
  In  In22  1  0.17056188  0.66762529  0.36668264  1
  In  In23  1  0.16482449  0.66624122  0.88527349  1
  In  In24  1  0.49680806  -0.00463419  0.37745437  1
  In  In25  1  0.49382658  0.02068376  0.88183028  1
  In  In26  1  0.48598341  0.31918416  0.36733838  1
  In  In27  1  0.49886823  0.33371827  0.87313314  1
  In  In28  1  0.49702816  0.68217010  0.37404985  1
  In  In29  1  0.49800207  0.65778395  0.87606995  1
  In  In30  1  0.82954604  0.00727882  0.38569378  1
  In  In31  1  0.83934147  -0.01894734  0.86992283  1
  In  In32  1  0.82814853  0.33211206  0.38061836  1
  In  In33  1  0.82752635  0.34257318  0.86877544  1
  In  In34  1  0.82313798  0.67331312  0.39183104  1
  In  In35  1  0.83343322  0.68618717  0.86911245  1
  In  In36  1  0.01259331  0.15133993  0.39589224  1
  In  In37  1  0.01877729  0.16351091  0.87230054  1
  In  In38  1  -0.00420364  0.49679043  0.37981242  1
  In  In39  1  0.00190160  0.51002550  0.87676511  1
  In  In40  1  -0.00702884  0.82818242  0.38180906  1
  In  In41  1  -0.00536100  0.84178149  0.87798326  1
  In  In42  1  0.33295468  0.16069884  0.37684059  1
  In  In43  1  0.32961314  0.16687924  0.87063448  1
  In  In44  1  0.33253680  0.49711782  0.36370330  1
  In  In45  1  0.34862635  0.49237173  0.88588816  1
  In  In46  1  0.34614072  0.85514578  0.35237697  1
  In  In47  1  0.31966079  0.84049975  0.87783822  1
  In  In48  1  0.66129456  0.16122598  0.37828166  1
  In  In49  1  0.65243106  0.16921323  0.87417846  1
  In  In50  1  0.67597038  0.49871714  0.37554201  1
  In  In51  1  0.65447754  0.49515969  0.86605049  1
  In  In52  1  0.66372179  0.84046042  0.37923739  1
  In  In53  1  0.68370738  0.83649139  0.87343499  1
  In  In54  1  0.17936348  0.00201824  0.11528618  1
  In  In55  1  0.15961216  0.00900503  0.62544346  1
  In  In56  1  0.18186618  0.33886094  0.11803553  1
  In  In57  1  0.18086370  0.32587957  0.63345874  1
  In  In58  1  0.18260575  0.68193647  0.11630913  1
  In  In59  1  0.15843141  0.66703334  0.62821784  1
  In  In60  1  0.48747190  0.01472503  0.13144136  1
  In  In61  1  0.49055344  -0.00198189  0.61665412  1
  In  In62  1  0.49901580  0.32860018  0.12549241  1
  In  In63  1  0.50562994  0.32125970  0.62955313  1
  In  In64  1  0.49905850  0.65070796  0.11982204  1
  In  In65  1  0.50036548  0.68676200  0.62466887  1
  In  In66  1  0.83289981  -0.01538968  0.13038447  1
  In  In67  1  0.83542441  0.00035861  0.61684915  1
  In  In68  1  0.82875965  0.32004142  0.13186009  1
  In  In69  1  0.82025055  0.31963305  0.61950765  1
  In  In70  1  0.82335293  0.67930063  0.12625435  1
  In  In71  1  0.82967678  0.65725920  0.61346904  1
  In  In72  1  -0.00330785  0.67180652  0.74730963  1
  In  In73  1  0.15710613  0.49856720  0.50174790  1
  In  In74  1  0.00169129  -0.00145736  0.25763872  1
  In  In75  1  0.66728442  0.00196626  0.74982009  1
  In  In76  1  0.00068876  0.66951614  0.25306685  1
  In  In77  1  0.66188677  0.66713301  0.25548323  1
  In  In78  1  0.49316332  0.83696831  0.00283255  1
  In  In79  1  0.00234681  0.32997138  0.75218779  1
  In  In80  1  -0.00020649  0.32709120  0.25992372  1
  In  In81  1  0.33862767  0.66904664  0.75311642  1
  In  In82  1  0.83423130  0.50672231  -0.00298372  1
  In  In83  1  0.16742499  0.84037034  0.49937481  1
  In  In84  1  0.50245944  0.49670211  0.49909319  1
  In  In85  1  0.83726408  0.16122111  0.00386530  1
  Cu  Cu86  1  0.50395599  0.84439788  0.74801271  1
  Cu  Cu87  1  0.16675181  0.16229904  0.74837604  1
  Cu  Cu88  1  0.50160464  0.50043323  0.75138934  1
  Cu  Cu89  1  0.66708946  0.00137294  -0.00153675  1
  Cu  Cu90  1  0.33510376  0.32564381  0.50022117  1
  Cu  Cu91  1  0.00382422  0.66720056  0.00069498  1
  Cu  Cu92  1  0.50153409  0.83094945  0.24912772  1
  Cu  Cu93  1  0.17318211  0.50374882  0.24316428  1
  Cu  Cu94  1  0.49283815  0.17244822  0.75164188  1
  Cu  Cu95  1  0.16892176  0.83974182  0.74769770  1
  Cu  Cu96  1  0.49780622  0.49159540  0.24477253  1
  Cu  Cu97  1  0.66401507  0.66944175  0.49979559  1
  Cu  Cu98  1  0.49963594  0.16047444  0.25301833  1
  Cu  Cu99  1  0.17266714  0.48958875  0.76050549  1
  Cu  Cu100  1  -0.00659244  0.33809321  0.50272185  1
  Cu  Cu101  1  0.34176039  0.32990975  0.00124245  1
  Cu  Cu102  1  0.82518851  0.16483589  0.25961070  1
  Cu  Cu103  1  0.01221124  0.33122444  0.00106110  1
  Cu  Cu104  1  0.17865575  0.17088162  0.24725636  1
  Cu  Cu105  1  0.82049787  0.49935215  0.74381214  1
  Cu  Cu106  1  0.66652945  0.32842211  0.49976673  1
  Cu  Cu107  1  0.66960002  0.67143306  0.00013563  1
  Cu  Cu108  1  0.33356038  0.66538403  0.00345652  1
  Cu  Cu109  1  0.83281659  0.16172782  0.74127465  1
  Cu  Cu110  1  0.66208809  0.33422839  -0.00039996  1
  Cu  Cu111  1  0.66262075  -0.00230462  0.50121969  1
  Cu  Cu112  1  0.33234283  0.67548778  0.49480721  1
  Cu  Cu113  1  0.00798963  -0.00436195  -0.00133480  1
  Cu  Cu114  1  0.82608638  0.49796783  0.25760836  1
  Se  Se115  1  0.08900007  0.08339068  0.04940623  1
  Se  Se116  1  0.09810763  0.09032550  0.54525811  1
  Se  Se117  1  0.09135726  0.41901148  0.05219301  1
  Se  Se118  1  0.07614949  0.40815204  0.56883105  1
  Se  Se119  1  0.08588199  0.75354439  0.05191747  1
  Se  Se120  1  0.07763445  0.74339696  0.55583528  1
  Se  Se121  1  0.42330363  0.08553463  0.05008884  1
  Se  Se122  1  0.42759117  0.09791193  0.55231070  1
  Se  Se123  1  0.42128352  0.41582637  0.05607158  1
  Se  Se124  1  0.40835213  0.41223601  0.56049862  1
  Se  Se125  1  0.40882890  0.74760498  0.06613587  1
  Se  Se126  1  0.41932870  0.75428777  0.54765603  1
  Se  Se127  1  0.74448163  0.07892461  0.06556777  1
  Se  Se128  1  0.74502064  0.08331193  0.55423979  1
  Se  Se129  1  0.75052805  0.40905052  0.05820086  1
  Se  Se130  1  0.74884463  0.41461501  0.55206551  1
  Se  Se131  1  0.75467862  0.75642459  0.04795737  1
  Se  Se132  1  0.74809367  0.75215168  0.55294349  1
  Se  Se133  1  0.25533943  0.24661880  0.05251221  1
  Se  Se134  1  0.24735723  0.24901469  0.55462221  1
  Se  Se135  1  0.25038234  0.57883170  0.05510023  1
  Se  Se136  1  0.25453877  0.59485019  0.55574692  1
  Se  Se137  1  0.25382594  0.90605432  0.05278272  1
  Se  Se138  1  0.25816930  0.92880967  0.55803075  1
  Se  Se139  1  0.58564322  0.24823827  0.05540464  1
  Se  Se140  1  0.57965078  0.24800559  0.55162407  1
  Se  Se141  1  0.58789135  0.58177796  0.04734690  1
  Se  Se142  1  0.58527767  0.58931871  0.56201439  1
  Se  Se143  1  0.58711440  0.92379892  0.06169282  1
  Se  Se144  1  0.58047274  0.91343315  0.55523215  1
  Se  Se145  1  0.93029070  0.25473741  0.06277491  1
  Se  Se146  1  0.91159301  0.24863111  0.55102084  1
  Se  Se147  1  0.92225894  0.59129445  0.06423790  1
  Se  Se148  1  0.92262323  0.58448999  0.54640035  1
  Se  Se149  1  0.91693500  0.92088200  0.05255519  1
  Se  Se150  1  0.91932054  0.92372261  0.54540331  1
  Se  Se151  1  0.08157410  0.26347966  0.44663371  1
  Se  Se152  1  0.08880721  0.24171947  0.94958540  1
  Se  Se153  1  0.07840359  0.59550099  0.43994990  1
  Se  Se154  1  0.08469099  0.57794298  0.95186267  1
  Se  Se155  1  0.08109299  0.92844217  0.43544441  1
  Se  Se156  1  0.08981769  0.91457659  0.94191432  1
  Se  Se157  1  0.41813546  0.24364211  0.44686241  1
  Se  Se158  1  0.41722198  0.24797602  0.93976396  1
  Se  Se159  1  0.40908941  0.58606448  0.43949359  1
  Se  Se160  1  0.42262958  0.58477421  0.95322593  1
  Se  Se161  1  0.40697773  0.91225737  0.44079348  1
  Se  Se162  1  0.40552073  0.92918192  0.94437602  1
  Se  Se163  1  0.74875421  0.24346279  0.44643955  1
  Se  Se164  1  0.74900525  0.25571687  0.94275572  1
  Se  Se165  1  0.74497028  0.57733107  0.45263880  1
  Se  Se166  1  0.74438358  0.59092686  0.93412948  1
  Se  Se167  1  0.74944166  0.91493203  0.45036328  1
  Se  Se168  1  0.75387078  0.92004098  0.94840566  1
  Se  Se169  1  0.23294083  0.10106010  0.44651936  1
  Se  Se170  1  0.23674527  0.09514263  0.93748212  1
  Se  Se171  1  0.25736760  0.41426756  0.44360899  1
  Se  Se172  1  0.25502970  0.41572361  0.95001887  1
  Se  Se173  1  0.25462126  0.75381501  0.43411992  1
  Se  Se174  1  0.25266860  0.74914171  0.94870886  1
  Se  Se175  1  0.57825182  0.07931228  0.44719529  1
  Se  Se176  1  0.58450189  0.09054384  0.95228646  1
  Se  Se177  1  0.58589355  0.40520169  0.43685440  1
  Se  Se178  1  0.58308465  0.41726356  0.94316435  1
  Se  Se179  1  0.58129997  0.75248489  0.44638259  1
  Se  Se180  1  0.58747214  0.75118342  0.93980165  1
  Se  Se181  1  0.91603196  0.07998016  0.45697809  1
  Se  Se182  1  0.92471004  0.07595540  0.93827713  1
  Se  Se183  1  0.91091453  0.41902819  0.44751872  1
  Se  Se184  1  0.92520581  0.40680122  0.94287012  1
  Se  Se185  1  0.91681499  0.74909568  0.45305096  1
  Se  Se186  1  0.92024378  0.74801325  0.94515801  1
  Se  Se187  1  0.26040210  0.25182810  0.30321080  1
  Se  Se188  1  0.24861915  0.25090614  0.79869645  1
  Se  Se189  1  0.25394156  0.58693287  0.29853236  1
  Se  Se190  1  0.24988462  0.57939602  0.81473608  1
  Se  Se191  1  0.24148487  0.91891975  0.29256255  1
  Se  Se192  1  0.25381554  0.92106710  0.80001354  1
  Se  Se193  1  0.58339815  0.24500469  0.30545183  1
  Se  Se194  1  0.58268509  0.25351933  0.80105603  1
  Se  Se195  1  0.57069030  0.57245580  0.31176895  1
  Se  Se196  1  0.58193333  0.59075352  0.80004824  1
  Se  Se197  1  0.58092938  0.91380588  0.30593839  1
  Se  Se198  1  0.57691298  0.91962357  0.81738215  1
  Se  Se199  1  0.91634927  0.23279601  0.31958937  1
  Se  Se200  1  0.90874384  0.23844444  0.81029028  1
  Se  Se201  1  0.90568874  0.58189691  0.31310862  1
  Se  Se202  1  0.90496104  0.57488938  0.80504865  1
  Se  Se203  1  0.90661265  0.91193566  0.31325986  1
  Se  Se204  1  0.91975697  0.90763780  0.79783238  1
  Se  Se205  1  0.09375013  0.09563191  0.30895487  1
  Se  Se206  1  0.07964113  0.07719912  0.79632314  1
  Se  Se207  1  0.09363060  0.42838153  0.30840008  1
  Se  Se208  1  0.08958519  0.41342226  0.81982625  1
  Se  Se209  1  0.08918715  0.76705270  0.30610944  1
  Se  Se210  1  0.09380741  0.75359154  0.80777358  1
  Se  Se211  1  0.41483718  0.07900231  0.30680063  1
  Se  Se212  1  0.41389104  0.08260897  0.80175367  1
  Se  Se213  1  0.41299800  0.41001360  0.29874195  1
  Se  Se214  1  0.41581215  0.41944731  0.80438273  1
  Se  Se215  1  0.41454687  0.74539660  0.29660413  1
  Se  Se216  1  0.42512686  0.76416664  0.81233526  1
  Se  Se217  1  0.74559754  0.07634189  0.31008513  1
  Se  Se218  1  0.75761713  0.09032932  0.81343098  1
  Se  Se219  1  0.74650916  0.40818106  0.30576418  1
  Se  Se220  1  0.74133015  0.41390479  0.79841283  1
  Se  Se221  1  0.75610045  0.75442063  0.31088934  1
  Se  Se222  1  0.74643251  0.75258688  0.79747576  1
  Se  Se223  1  0.25208978  0.08312708  0.19079754  1
  Se  Se224  1  0.25161061  0.08205737  0.69348651  1
  Se  Se225  1  0.25439212  0.41311627  0.19611833  1
  Se  Se226  1  0.25597223  0.41134327  0.70468813  1
  Se  Se227  1  0.24847577  0.74334409  0.20185588  1
  Se  Se228  1  0.24874911  0.75633813  0.68890244  1
  Se  Se229  1  0.58553874  0.07739404  0.20077944  1
  Se  Se230  1  0.57341187  0.08889541  0.69203303  1
  Se  Se231  1  0.58606398  0.40996903  0.19598471  1
  Se  Se232  1  0.58035828  0.41505584  0.69503899  1
  Se  Se233  1  0.57888487  0.75171330  0.18559382  1
  Se  Se234  1  0.58407897  0.75556140  0.69908641  1
  Se  Se235  1  0.90767410  0.09028915  0.19633208  1
  Se  Se236  1  0.91702271  0.08092307  0.68939292  1
  Se  Se237  1  0.90964553  0.42064358  0.19748981  1
  Se  Se238  1  0.90816903  0.41685128  0.69118161  1
  Se  Se239  1  0.90984721  0.76114921  0.19448690  1
  Se  Se240  1  0.91050384  0.75345392  0.68199341  1
  Se  Se241  1  0.08933595  0.24739787  0.19083819  1
  Se  Se242  1  0.08099271  0.23772322  0.68740261  1
  Se  Se243  1  0.08755869  0.58200052  0.18774050  1
  Se  Se244  1  0.09113851  0.56762240  0.69949577  1
  Se  Se245  1  0.08551634  0.91968494  0.18629742  1
  Se  Se246  1  0.08366330  0.91552964  0.69095542  1
  Se  Se247  1  0.41966978  0.24396339  0.19506034  1
  Se  Se248  1  0.40898181  0.25241195  0.69537298  1
  Se  Se249  1  0.41767672  0.58085719  0.19524812  1
  Se  Se250  1  0.42332015  0.57889906  0.68694873  1
  Se  Se251  1  0.41884372  0.91863503  0.19897743  1
  Se  Se252  1  0.41677547  0.92302644  0.69622842  1
  Se  Se253  1  0.74597231  0.25002653  0.20467905  1
  Se  Se254  1  0.74446921  0.24744141  0.69753169  1
  Se  Se255  1  0.75230545  0.57600487  0.19133113  1
  Se  Se256  1  0.74585101  0.58836825  0.68989482  1
  Se  Se257  1  0.74685294  0.91514369  0.20163603  1
  Se  Se258  1  0.75652609  0.91384227  0.69097344  1
