# generated using pymatgen
data_In86Cu29Se144
_symmetry_space_group_name_H-M   'P 1'
_cell_length_a   17.58112650
_cell_length_b   17.58641502
_cell_length_c   23.44832729
_cell_angle_alpha   89.97493081
_cell_angle_beta   89.99924369
_cell_angle_gamma   89.99866756
_symmetry_Int_Tables_number   1
_chemical_formula_structural   In86Cu29Se144
_chemical_formula_sum   'In86 Cu29 Se144'
_cell_volume   7249.96386907
_cell_formula_units_Z   1
loop_
 _symmetry_equiv_pos_site_id
 _symmetry_equiv_pos_as_xyz
  1  'x, y, z'
loop_
 _atom_site_type_symbol
 _atom_site_label
 _atom_site_symmetry_multiplicity
 _atom_site_fract_x
 _atom_site_fract_y
 _atom_site_fract_z
 _atom_site_occupancy
  In  In0  1  -0.00683982  0.15807053  0.12299986  1
  In  In1  1  -0.00745850  0.15083344  0.62983161  1
  In  In2  1  0.01109475  0.51216221  0.12031108  1
  In  In3  1  0.00377256  0.50396649  0.61297116  1
  In  In4  1  0.00855881  0.83543883  0.13361257  1
  In  In5  1  0.00647453  0.84786342  0.61249316  1
  In  In6  1  0.32759014  0.17217970  0.11608240  1
  In  In7  1  0.33291465  0.16576451  0.63461726  1
  In  In8  1  0.34219347  0.50639876  0.12075978  1
  In  In9  1  0.32774061  0.49563321  0.62253576  1
  In  In10  1  0.31810476  0.81695106  0.11697297  1
  In  In11  1  0.32892082  0.84700524  0.62860295  1
  In  In12  1  0.70826547  0.16258532  0.12996991  1
  In  In13  1  0.68549256  0.18359865  0.63106812  1
  In  In14  1  0.66735787  0.50060492  0.12734639  1
  In  In15  1  0.66334413  0.49493000  0.61715538  1
  In  In16  1  0.66196929  0.82923357  0.11698533  1
  In  In17  1  0.66642774  0.82741282  0.62109812  1
  In  In18  1  0.12372435  -0.02790072  0.34699418  1
  In  In19  1  0.16348675  0.00116610  0.87718967  1
  In  In20  1  0.17551529  0.33515324  0.37611036  1
  In  In21  1  0.17090752  0.32391550  0.88087089  1
  In  In22  1  0.16259060  0.67141479  0.37173972  1
  In  In23  1  0.16559572  0.66921305  0.88611956  1
  In  In24  1  0.50274957  0.00411158  0.37392604  1
  In  In25  1  0.48788792  0.00399226  0.87897314  1
  In  In26  1  0.51621415  0.33901903  0.37067237  1
  In  In27  1  0.50770445  0.34063085  0.87167142  1
  In  In28  1  0.48967897  0.65559094  0.36733927  1
  In  In29  1  0.50002087  0.66232326  0.88541351  1
  In  In30  1  0.83510053  -0.01950619  0.38025395  1
  In  In31  1  0.83723498  -0.00266812  0.88217482  1
  In  In32  1  0.83728267  0.35073428  0.37276770  1
  In  In33  1  0.82856863  0.33568075  0.88108126  1
  In  In34  1  0.83605194  0.66610599  0.36788322  1
  In  In35  1  0.83095311  0.66799149  0.88728201  1
  In  In36  1  -0.00547652  0.14730054  0.36440926  1
  In  In37  1  0.00770955  0.15933918  0.88243902  1
  In  In38  1  -0.00773314  0.51040961  0.37785829  1
  In  In39  1  -0.00266357  0.50134006  0.88641334  1
  In  In40  1  0.00089071  0.82578639  0.37111378  1
  In  In41  1  -0.01195383  0.84703059  0.88519410  1
  In  In42  1  0.32669039  0.16160166  0.37220547  1
  In  In43  1  0.32438840  0.15642610  0.86888949  1
  In  In44  1  0.32076760  0.51374836  0.38407578  1
  In  In45  1  0.34191169  0.49073319  0.87968943  1
  In  In46  1  0.33534522  0.81610063  0.37270191  1
  In  In47  1  0.31866696  0.84454641  0.88525686  1
  In  In48  1  0.66061235  0.16757606  0.37012311  1
  In  In49  1  0.66439059  0.17873279  0.87666361  1
  In  In50  1  0.66657742  0.50249643  0.37108589  1
  In  In51  1  0.67236922  0.48928041  0.88538308  1
  In  In52  1  0.68650265  0.83207204  0.37318000  1
  In  In53  1  0.66967422  0.83790821  0.89288117  1
  In  In54  1  0.15473526  -0.00697464  0.12437805  1
  In  In55  1  0.16661084  -0.00261276  0.62849876  1
  In  In56  1  0.16083995  0.33331068  0.11352028  1
  In  In57  1  0.16965932  0.34355686  0.62552752  1
  In  In58  1  0.17159600  0.67106576  0.13416248  1
  In  In59  1  0.16068303  0.66819692  0.61681684  1
  In  In60  1  0.52237345  -0.00848767  0.11763403  1
  In  In61  1  0.49140556  -0.00794613  0.63096492  1
  In  In62  1  0.50441222  0.34810662  0.12094726  1
  In  In63  1  0.49645242  0.33828404  0.63196771  1
  In  In64  1  0.50116732  0.66597476  0.12679244  1
  In  In65  1  0.51340314  0.66170754  0.61998550  1
  In  In66  1  0.84800443  0.01033306  0.11413791  1
  In  In67  1  0.84736303  0.00463184  0.62351130  1
  In  In68  1  0.82536995  0.32420859  0.12259048  1
  In  In69  1  0.82262567  0.32866336  0.62769297  1
  In  In70  1  0.83552635  0.66686498  0.12571596  1
  In  In71  1  0.83926738  0.67256237  0.61300125  1
  In  In72  1  0.33220442  0.66746480  0.74664760  1
  In  In73  1  -0.00026299  0.32865546  0.75021185  1
  In  In74  1  0.67684662  -0.00422503  0.24751690  1
  In  In75  1  0.83446665  0.16496480  0.50104534  1
  In  In76  1  0.33049135  -0.00857271  0.23392748  1
  In  In77  1  0.49840136  0.82766503  0.50201518  1
  In  In78  1  0.49983321  0.16965527  0.49439283  1
  In  In79  1  0.66284362  0.00643910  0.75220822  1
  In  In80  1  0.66958184  0.66649656  0.74768655  1
  In  In81  1  -0.00568661  0.33190725  0.24670976  1
  In  In82  1  0.16497268  0.16567891  0.49604430  1
  In  In83  1  0.00042927  0.67096975  0.74735339  1
  In  In84  1  0.33430815  0.34055925  0.25099695  1
  In  In85  1  0.50451270  0.17049068  -0.00430501  1
  Cu  Cu86  1  0.83174209  0.49799809  0.75268016  1
  Cu  Cu87  1  0.00332032  0.33610436  0.49695129  1
  Cu  Cu88  1  0.49891699  0.17125533  0.75519132  1
  Cu  Cu89  1  0.16727002  0.50407806  0.25059901  1
  Cu  Cu90  1  0.82995720  0.50189641  0.24742500  1
  Cu  Cu91  1  0.33134807  -0.00140995  -0.00160313  1
  Cu  Cu92  1  0.83505382  0.84027268  0.75498180  1
  Cu  Cu93  1  0.33375223  0.66595903  0.00526944  1
  Cu  Cu94  1  0.83993380  0.82869787  0.24759399  1
  Cu  Cu95  1  0.66939707  0.34232250  0.49915070  1
  Cu  Cu96  1  0.33933821  0.34240758  0.50177251  1
  Cu  Cu97  1  0.66505898  0.65963486  0.00749204  1
  Cu  Cu98  1  0.48854847  0.83822599  0.75830642  1
  Cu  Cu99  1  0.00332541  0.67017902  0.00941529  1
  Cu  Cu100  1  0.50755452  0.49322787  0.75079709  1
  Cu  Cu101  1  0.50262085  0.50535154  0.24670290  1
  Cu  Cu102  1  0.32286792  -0.00231538  0.50035904  1
  Cu  Cu103  1  0.66477946  0.33396821  0.00363382  1
  Cu  Cu104  1  -0.00720469  0.33537045  0.00235544  1
  Cu  Cu105  1  0.67084466  0.66413712  0.49126103  1
  Cu  Cu106  1  0.16704813  0.16217745  0.75606820  1
  Cu  Cu107  1  0.15664621  0.84393086  0.75412206  1
  Cu  Cu108  1  0.50356646  0.17043364  0.24628124  1
  Cu  Cu109  1  0.50622932  0.82348056  0.24527118  1
  Cu  Cu110  1  0.17439047  0.49316349  0.75260530  1
  Cu  Cu111  1  -0.00091774  0.66787448  0.49077993  1
  Cu  Cu112  1  0.32748006  0.33659271  -0.00350149  1
  Cu  Cu113  1  0.32926911  0.66212181  0.49717467  1
  Cu  Cu114  1  0.00679243  -0.00276832  0.00187349  1
  Se  Se115  1  0.08595618  0.08615607  0.05431605  1
  Se  Se116  1  0.07525109  0.07493770  0.55542843  1
  Se  Se117  1  0.08103944  0.42146518  0.04885114  1
  Se  Se118  1  0.08946874  0.41588831  0.55061974  1
  Se  Se119  1  0.08863552  0.75158873  0.06224660  1
  Se  Se120  1  0.07931055  0.75055036  0.54934877  1
  Se  Se121  1  0.41616615  0.07628278  0.05786522  1
  Se  Se122  1  0.40790641  0.07832759  0.55629211  1
  Se  Se123  1  0.41367928  0.41554167  0.05043514  1
  Se  Se124  1  0.42302423  0.42063744  0.55752200  1
  Se  Se125  1  0.42069253  0.74983889  0.05527611  1
  Se  Se126  1  0.40473258  0.74094357  0.56435678  1
  Se  Se127  1  0.73474942  0.06327874  0.05457449  1
  Se  Se128  1  0.74010887  0.07994849  0.56178427  1
  Se  Se129  1  0.74896749  0.41695213  0.05696192  1
  Se  Se130  1  0.75871892  0.41796438  0.55367715  1
  Se  Se131  1  0.75210606  0.74580161  0.05384521  1
  Se  Se132  1  0.74584617  0.74999352  0.54914506  1
  Se  Se133  1  0.24531387  0.24978317  0.04614264  1
  Se  Se134  1  0.25986739  0.25406044  0.55715368  1
  Se  Se135  1  0.24773549  0.58589846  0.05997638  1
  Se  Se136  1  0.24725505  0.58124315  0.55514000  1
  Se  Se137  1  0.24906653  0.91998363  0.05678481  1
  Se  Se138  1  0.24279412  0.91353314  0.55485976  1
  Se  Se139  1  0.59176341  0.24800445  0.06588010  1
  Se  Se140  1  0.59072395  0.25698810  0.55780224  1
  Se  Se141  1  0.57818933  0.57688190  0.05753632  1
  Se  Se142  1  0.58737158  0.58233070  0.54681228  1
  Se  Se143  1  0.58872648  0.91131617  0.04236073  1
  Se  Se144  1  0.58452728  0.92597471  0.55867168  1
  Se  Se145  1  0.91396544  0.24713976  0.05500617  1
  Se  Se146  1  0.92743361  0.25624053  0.56102822  1
  Se  Se147  1  0.91513286  0.58290720  0.05406223  1
  Se  Se148  1  0.91721513  0.58390397  0.54687587  1
  Se  Se149  1  0.92733625  0.91206030  0.05756662  1
  Se  Se150  1  0.89612847  0.90429563  0.55356538  1
  Se  Se151  1  0.07163762  0.25212050  0.43351214  1
  Se  Se152  1  0.07959003  0.25293062  0.94967437  1
  Se  Se153  1  0.08730724  0.58278580  0.44339184  1
  Se  Se154  1  0.08215632  0.58494865  0.95160900  1
  Se  Se155  1  0.08282925  0.91099123  0.44011804  1
  Se  Se156  1  0.09001881  0.91292819  0.94852470  1
  Se  Se157  1  0.40852997  0.26068833  0.43524208  1
  Se  Se158  1  0.40904771  0.25511724  0.93570759  1
  Se  Se159  1  0.42059569  0.58241271  0.44893473  1
  Se  Se160  1  0.41393242  0.57991684  0.95028081  1
  Se  Se161  1  0.41014475  0.92283251  0.44073322  1
  Se  Se162  1  0.41825992  0.91412732  0.94947248  1
  Se  Se163  1  0.74499633  0.25731378  0.43943045  1
  Se  Se164  1  0.74812856  0.24982446  0.95082809  1
  Se  Se165  1  0.75488511  0.58145053  0.43862719  1
  Se  Se166  1  0.74994479  0.57932971  0.95128080  1
  Se  Se167  1  0.74107141  0.91876943  0.45031890  1
  Se  Se168  1  0.77191599  0.90336128  0.95192655  1
  Se  Se169  1  0.24544241  0.07027493  0.43437854  1
  Se  Se170  1  0.24848495  0.08436163  0.94648931  1
  Se  Se171  1  0.24785154  0.41773694  0.44928433  1
  Se  Se172  1  0.24361623  0.42182530  0.94487944  1
  Se  Se173  1  0.24861989  0.74846934  0.44544853  1
  Se  Se174  1  0.24919079  0.75100515  0.95328105  1
  Se  Se175  1  0.59538592  0.07386816  0.44561899  1
  Se  Se176  1  0.59306150  0.07442151  0.94036993  1
  Se  Se177  1  0.58391427  0.42234188  0.44525873  1
  Se  Se178  1  0.57779858  0.41576765  0.95156077  1
  Se  Se179  1  0.58518773  0.74507839  0.43459029  1
  Se  Se180  1  0.58522183  0.74453903  0.95095682  1
  Se  Se181  1  0.92512537  0.07128765  0.44597926  1
  Se  Se182  1  0.92020102  0.08150243  0.95102432  1
  Se  Se183  1  0.91701413  0.42106046  0.44823500  1
  Se  Se184  1  0.90922263  0.41963414  0.95016722  1
  Se  Se185  1  0.91145909  0.74984433  0.44092114  1
  Se  Se186  1  0.92000058  0.74878301  0.95072845  1
  Se  Se187  1  0.24185829  0.24264360  0.30137613  1
  Se  Se188  1  0.24924997  0.25168814  0.80369743  1
  Se  Se189  1  0.25111586  0.58650607  0.30457485  1
  Se  Se190  1  0.24555036  0.58138073  0.81190679  1
  Se  Se191  1  0.25312209  0.91118436  0.30828922  1
  Se  Se192  1  0.24809634  0.91959457  0.80620040  1
  Se  Se193  1  0.58709947  0.25293149  0.29847592  1
  Se  Se194  1  0.58621260  0.25475127  0.80226301  1
  Se  Se195  1  0.58690417  0.58759570  0.30100370  1
  Se  Se196  1  0.58198635  0.57799967  0.81088726  1
  Se  Se197  1  0.57858204  0.90888134  0.30753794  1
  Se  Se198  1  0.58030758  0.90961073  0.81447037  1
  Se  Se199  1  0.90480666  0.24430884  0.30910627  1
  Se  Se200  1  0.91505435  0.24509582  0.81595417  1
  Se  Se201  1  0.91874598  0.58166019  0.29875339  1
  Se  Se202  1  0.91067605  0.58131904  0.81008962  1
  Se  Se203  1  0.91733064  0.91499666  0.30315347  1
  Se  Se204  1  0.91865647  0.92327406  0.80582142  1
  Se  Se205  1  0.09544459  0.09759098  0.29582869  1
  Se  Se206  1  0.07988654  0.08044299  0.80542327  1
  Se  Se207  1  0.08747335  0.42059118  0.30905399  1
  Se  Se208  1  0.08498642  0.42227587  0.81182233  1
  Se  Se209  1  0.07373412  0.73873191  0.29974914  1
  Se  Se210  1  0.08451417  0.75715911  0.81396482  1
  Se  Se211  1  0.42164667  0.08688522  0.30070851  1
  Se  Se212  1  0.41685327  0.08135741  0.80185082  1
  Se  Se213  1  0.42141883  0.42982222  0.31222647  1
  Se  Se214  1  0.41686305  0.41582969  0.80251995  1
  Se  Se215  1  0.41697271  0.74615156  0.29771485  1
  Se  Se216  1  0.41486623  0.75154035  0.81616707  1
  Se  Se217  1  0.75968723  0.08376774  0.31377432  1
  Se  Se218  1  0.75427193  0.08897184  0.81379604  1
  Se  Se219  1  0.74815349  0.41774352  0.30092276  1
  Se  Se220  1  0.74967679  0.41728123  0.80754259  1
  Se  Se221  1  0.75108686  0.74774336  0.29760232  1
  Se  Se222  1  0.75451381  0.75706318  0.81153583  1
  Se  Se223  1  0.24308533  0.09336016  0.18678254  1
  Se  Se224  1  0.24850811  0.07977881  0.69789480  1
  Se  Se225  1  0.24113582  0.42223425  0.18776433  1
  Se  Se226  1  0.25728606  0.41218349  0.69850655  1
  Se  Se227  1  0.25487092  0.75426230  0.20225571  1
  Se  Se228  1  0.23364896  0.75886411  0.69370657  1
  Se  Se229  1  0.58593617  0.09004378  0.18877340  1
  Se  Se230  1  0.57568169  0.09612676  0.68681115  1
  Se  Se231  1  0.58394027  0.41672231  0.19796066  1
  Se  Se232  1  0.59303396  0.41560261  0.69456806  1
  Se  Se233  1  0.59335101  0.74502335  0.19275541  1
  Se  Se234  1  0.56976514  0.76107193  0.69644087  1
  Se  Se235  1  0.90386499  0.09096190  0.19491659  1
  Se  Se236  1  0.89954321  0.09319443  0.70112524  1
  Se  Se237  1  0.91247009  0.42582505  0.18470484  1
  Se  Se238  1  0.91738316  0.42700531  0.68960453  1
  Se  Se239  1  0.92271628  0.74443454  0.19541418  1
  Se  Se240  1  0.90953898  0.76062688  0.68956767  1
  Se  Se241  1  0.08794052  0.24722018  0.18730303  1
  Se  Se242  1  0.09246878  0.23955106  0.68821497  1
  Se  Se243  1  0.08190777  0.58680921  0.19928372  1
  Se  Se244  1  0.09243248  0.57345409  0.69321565  1
  Se  Se245  1  0.08205085  0.92432452  0.20434671  1
  Se  Se246  1  0.07384268  0.92041210  0.69503424  1
  Se  Se247  1  0.42083437  0.24842600  0.18743752  1
  Se  Se248  1  0.41517765  0.25261064  0.69889808  1
  Se  Se249  1  0.41407892  0.58595012  0.19666972  1
  Se  Se250  1  0.42958584  0.57759778  0.69169723  1
  Se  Se251  1  0.43316750  0.90690861  0.18339137  1
  Se  Se252  1  0.40724441  0.92125785  0.70451281  1
  Se  Se253  1  0.74746420  0.26050042  0.20395820  1
  Se  Se254  1  0.75795724  0.25520348  0.70857997  1
  Se  Se255  1  0.74792249  0.58718003  0.19490989  1
  Se  Se256  1  0.76118680  0.58032647  0.68709304  1
  Se  Se257  1  0.76142139  0.90749690  0.18441871  1
  Se  Se258  1  0.74889191  0.91145705  0.69241316  1
