# generated using pymatgen
data_In86Cu29Se144
_symmetry_space_group_name_H-M   'P 1'
_cell_length_a   17.58411909
_cell_length_b   17.57762090
_cell_length_c   23.43894355
_cell_angle_alpha   89.97852987
_cell_angle_beta   89.98471420
_cell_angle_gamma   89.99295124
_symmetry_Int_Tables_number   1
_chemical_formula_structural   In86Cu29Se144
_chemical_formula_sum   'In86 Cu29 Se144'
_cell_volume   7244.67143818
_cell_formula_units_Z   1
loop_
 _symmetry_equiv_pos_site_id
 _symmetry_equiv_pos_as_xyz
  1  'x, y, z'
loop_
 _atom_site_type_symbol
 _atom_site_label
 _atom_site_symmetry_multiplicity
 _atom_site_fract_x
 _atom_site_fract_y
 _atom_site_fract_z
 _atom_site_occupancy
  In  In0  1  0.00269199  0.17188041  0.13355347  1
  In  In1  1  0.01759574  0.17467092  0.62409252  1
  In  In2  1  -0.00057075  0.50399883  0.13033804  1
  In  In3  1  0.00083934  0.50153927  0.61767299  1
  In  In4  1  -0.01448103  0.80620548  0.12224080  1
  In  In5  1  -0.00058072  0.84563938  0.60612098  1
  In  In6  1  0.34786379  0.15288492  0.12439344  1
  In  In7  1  0.31716608  0.16767724  0.62691140  1
  In  In8  1  0.33704245  0.51985961  0.12732933  1
  In  In9  1  0.33945022  0.51399408  0.61106742  1
  In  In10  1  0.32874276  0.82294525  0.12047182  1
  In  In11  1  0.33603877  0.83558952  0.62645752  1
  In  In12  1  0.64980121  0.16059539  0.12479049  1
  In  In13  1  0.67936113  0.17420175  0.62730635  1
  In  In14  1  0.67697205  0.49784472  0.12452853  1
  In  In15  1  0.66198816  0.50457941  0.62253628  1
  In  In16  1  0.66672659  0.83215824  0.13140918  1
  In  In17  1  0.66277893  0.82730327  0.61450297  1
  In  In18  1  0.17205816  -0.01669822  0.39046900  1
  In  In19  1  0.16651010  -0.01881760  0.87314055  1
  In  In20  1  0.15669320  0.34695269  0.38495045  1
  In  In21  1  0.16299265  0.35462711  0.87299258  1
  In  In22  1  0.16715023  0.66842603  0.37712377  1
  In  In23  1  0.17095043  0.65986353  0.87642148  1
  In  In24  1  0.49509115  -0.01152829  0.36990591  1
  In  In25  1  0.49626776  0.00273899  0.87804481  1
  In  In26  1  0.51325508  0.34499486  0.37475526  1
  In  In27  1  0.49648999  0.31967055  0.87437499  1
  In  In28  1  0.50213035  0.66486678  0.36934162  1
  In  In29  1  0.49713959  0.68521486  0.87909957  1
  In  In30  1  0.82274357  -0.00375655  0.36588480  1
  In  In31  1  0.82372397  -0.01008199  0.88082286  1
  In  In32  1  0.84515282  0.33297275  0.37008483  1
  In  In33  1  0.84241789  0.34786235  0.86758352  1
  In  In34  1  0.82971921  0.66601166  0.36991215  1
  In  In35  1  0.81667691  0.67525522  0.89354671  1
  In  In36  1  0.00034995  0.17571469  0.37263710  1
  In  In37  1  -0.00958666  0.17848309  0.87435660  1
  In  In38  1  -0.00246185  0.49993955  0.37459233  1
  In  In39  1  -0.00008431  0.50724501  0.87600509  1
  In  In40  1  0.00852242  0.82630119  0.37879459  1
  In  In41  1  0.00017453  0.82933467  0.88377138  1
  In  In42  1  0.32738372  0.15419754  0.37912397  1
  In  In43  1  0.34986166  0.16167455  0.87544616  1
  In  In44  1  0.33042695  0.51507216  0.38405484  1
  In  In45  1  0.31743482  0.49859609  0.87411989  1
  In  In46  1  0.34929896  0.80793298  0.39820556  1
  In  In47  1  0.33242682  0.83005580  0.87122628  1
  In  In48  1  0.67736850  0.16833825  0.36534363  1
  In  In49  1  0.65362460  0.16580647  0.87668273  1
  In  In50  1  0.64983520  0.52366897  0.38319861  1
  In  In51  1  0.68092988  0.50936984  0.87774601  1
  In  In52  1  0.66731984  0.82653975  0.36452363  1
  In  In53  1  0.65117397  0.84826747  0.90557828  1
  In  In54  1  0.18294480  -0.01156155  0.12708952  1
  In  In55  1  0.16845386  0.00981013  0.62187015  1
  In  In56  1  0.15141590  0.33533745  0.12783767  1
  In  In57  1  0.16285399  0.33196963  0.62002234  1
  In  In58  1  0.16746120  0.66268898  0.12806628  1
  In  In59  1  0.19100410  0.68604863  0.60126628  1
  In  In60  1  0.51496458  -0.00393056  0.11298900  1
  In  In61  1  0.50192484  -0.01995460  0.62241448  1
  In  In62  1  0.51071975  0.32953911  0.12168856  1
  In  In63  1  0.50124568  0.35110510  0.62821470  1
  In  In64  1  0.48553733  0.67038457  0.13355820  1
  In  In65  1  0.48580868  0.66259805  0.61100519  1
  In  In66  1  0.81567940  -0.03429782  0.12061923  1
  In  In67  1  0.84066063  -0.00497012  0.62053565  1
  In  In68  1  0.83558938  0.34968903  0.12321528  1
  In  In69  1  0.83017817  0.34743529  0.63285770  1
  In  In70  1  0.83792282  0.67168242  0.13626250  1
  In  In71  1  0.83984180  0.67202859  0.61382350  1
  In  In72  1  0.00010480  0.66079188  0.74218218  1
  In  In73  1  0.50332700  0.50207470  0.00410430  1
  In  In74  1  0.00491541  0.00609219  0.74197475  1
  In  In75  1  0.83642481  0.16325212  0.49491143  1
  In  In76  1  0.33424670  -0.00483604  0.25737872  1
  In  In77  1  0.66552147  0.67113740  0.75851465  1
  In  In78  1  0.33567831  0.34119357  0.25231377  1
  In  In79  1  0.83095681  0.16082970  0.00076555  1
  In  In80  1  0.00071157  -0.00693615  0.25159568  1
  In  In81  1  0.17214484  0.16538554  0.00339726  1
  In  In82  1  0.49775179  0.16846521  0.49678626  1
  In  In83  1  0.33038591  0.33315359  0.74909414  1
  In  In84  1  0.67129551  0.33738571  0.24498773  1
  In  In85  1  0.66408928  0.00212092  0.75795305  1
  Cu  Cu86  1  -0.00047897  0.33382454  0.49833973  1
  Cu  Cu87  1  0.50018509  0.50322937  0.74315772  1
  Cu  Cu88  1  0.66296400  -0.00881445  0.49154576  1
  Cu  Cu89  1  0.34003492  -0.01039193  -0.00044895  1
  Cu  Cu90  1  0.83538616  0.50510035  0.75041547  1
  Cu  Cu91  1  0.83472781  0.18304224  0.75070157  1
  Cu  Cu92  1  -0.00486669  0.65736293  0.49099726  1
  Cu  Cu93  1  0.32926438  0.66996307  0.00029260  1
  Cu  Cu94  1  0.16516145  0.50527565  0.74587758  1
  Cu  Cu95  1  0.00192599  0.66175704  0.00644510  1
  Cu  Cu96  1  0.83382162  0.15888145  0.24556393  1
  Cu  Cu97  1  0.66830475  0.33046595  0.00055791  1
  Cu  Cu98  1  0.50115259  0.16197181  0.75208782  1
  Cu  Cu99  1  0.16855938  0.16781629  0.74947200  1
  Cu  Cu100  1  0.17501668  0.82515990  0.74656112  1
  Cu  Cu101  1  0.16274731  0.17170809  0.25705515  1
  Cu  Cu102  1  0.00813601  -0.00668036  0.00381924  1
  Cu  Cu103  1  0.83237241  0.83476066  0.75144832  1
  Cu  Cu104  1  0.49680605  0.83232760  0.25068218  1
  Cu  Cu105  1  0.16908083  0.82283320  0.25219700  1
  Cu  Cu106  1  0.16203590  0.50139088  0.25805180  1
  Cu  Cu107  1  0.67090965  0.67079161  0.49227873  1
  Cu  Cu108  1  0.66921689  0.34579678  0.50300184  1
  Cu  Cu109  1  -0.00110391  0.34752294  -0.00048416  1
  Cu  Cu110  1  0.33076409  0.33200074  -0.00421337  1
  Cu  Cu111  1  0.33303009  0.33506885  0.50450846  1
  Cu  Cu112  1  0.83597918  0.49923931  0.25143992  1
  Cu  Cu113  1  0.49198707  0.82762446  0.74845264  1
  Cu  Cu114  1  0.32747750  -0.00072349  0.50316433  1
  Se  Se115  1  0.08185418  0.07618736  0.06497785  1
  Se  Se116  1  0.06227056  0.06794288  0.55888999  1
  Se  Se117  1  0.08318869  0.42390163  0.05663422  1
  Se  Se118  1  0.08491129  0.41703512  0.55068413  1
  Se  Se119  1  0.08851920  0.74704115  0.05618936  1
  Se  Se120  1  0.07137431  0.74074696  0.55079379  1
  Se  Se121  1  0.42231024  0.07813632  0.04846893  1
  Se  Se122  1  0.41211539  0.08019899  0.56204226  1
  Se  Se123  1  0.40817683  0.41108060  0.06147848  1
  Se  Se124  1  0.42189589  0.41822803  0.55149688  1
  Se  Se125  1  0.41898758  0.74723629  0.05201566  1
  Se  Se126  1  0.41928442  0.76487910  0.55144535  1
  Se  Se127  1  0.74151450  0.07348709  0.05990018  1
  Se  Se128  1  0.73836637  0.07461040  0.55372830  1
  Se  Se129  1  0.75118504  0.41752113  0.04878075  1
  Se  Se130  1  0.75374863  0.42450049  0.55783292  1
  Se  Se131  1  0.76979416  0.76592905  0.06788060  1
  Se  Se132  1  0.75380687  0.75395088  0.54760169  1
  Se  Se133  1  0.25871656  0.25528852  0.06634424  1
  Se  Se134  1  0.24743925  0.24851598  0.55167908  1
  Se  Se135  1  0.24900929  0.58331768  0.05321757  1
  Se  Se136  1  0.24684055  0.57768193  0.54088651  1
  Se  Se137  1  0.25089131  0.91041073  0.04956331  1
  Se  Se138  1  0.24683426  0.91706285  0.55914296  1
  Se  Se139  1  0.58257404  0.24571665  0.04827128  1
  Se  Se140  1  0.58986611  0.25737357  0.55858042  1
  Se  Se141  1  0.58606053  0.59113556  0.06673316  1
  Se  Se142  1  0.58886017  0.59091091  0.55187618  1
  Se  Se143  1  0.57698181  0.89181975  0.05325976  1
  Se  Se144  1  0.57957373  0.90953620  0.54562013  1
  Se  Se145  1  0.92566662  0.25531179  0.05618703  1
  Se  Se146  1  0.91728954  0.25620565  0.56060521  1
  Se  Se147  1  0.91489384  0.58537582  0.06236768  1
  Se  Se148  1  0.91246764  0.57765411  0.54895807  1
  Se  Se149  1  0.92493456  0.91241402  0.05853476  1
  Se  Se150  1  0.89871419  0.91149706  0.54364165  1
  Se  Se151  1  0.08244327  0.24721901  0.44749676  1
  Se  Se152  1  0.08004543  0.25881483  0.94461261  1
  Se  Se153  1  0.08571268  0.57722530  0.44306971  1
  Se  Se154  1  0.08455367  0.58368506  0.94652505  1
  Se  Se155  1  0.07354792  0.91561572  0.45239241  1
  Se  Se156  1  0.08923302  0.90965252  0.94965939  1
  Se  Se157  1  0.41005805  0.26069168  0.43677291  1
  Se  Se158  1  0.41799600  0.24620672  0.95066152  1
  Se  Se159  1  0.41982142  0.59586351  0.44650887  1
  Se  Se160  1  0.40884105  0.58522480  0.94015661  1
  Se  Se161  1  0.41524930  0.92333351  0.44813543  1
  Se  Se162  1  0.41977107  0.90783378  0.94118073  1
  Se  Se163  1  0.74254204  0.26039690  0.44176607  1
  Se  Se164  1  0.75070149  0.25608646  0.93635575  1
  Se  Se165  1  0.75603269  0.58141403  0.44608409  1
  Se  Se166  1  0.74760740  0.57926265  0.95841788  1
  Se  Se167  1  0.74686480  0.91201693  0.43657408  1
  Se  Se168  1  0.76394710  0.90846866  0.95818388  1
  Se  Se169  1  0.24385031  0.08487977  0.45271865  1
  Se  Se170  1  0.25720488  0.07322340  0.94057926  1
  Se  Se171  1  0.25322135  0.41901951  0.44790511  1
  Se  Se172  1  0.24559365  0.41904970  0.95062910  1
  Se  Se173  1  0.22678606  0.76649027  0.44794721  1
  Se  Se174  1  0.24807361  0.75085652  0.94221562  1
  Se  Se175  1  0.59015118  0.08202533  0.43521562  1
  Se  Se176  1  0.59934037  0.06404513  0.94208304  1
  Se  Se177  1  0.58163427  0.42546488  0.45089159  1
  Se  Se178  1  0.58659620  0.40977617  0.93847497  1
  Se  Se179  1  0.58455569  0.75130355  0.43894478  1
  Se  Se180  1  0.60310368  0.72290264  0.94768136  1
  Se  Se181  1  0.92088550  0.07424277  0.43255968  1
  Se  Se182  1  0.92903194  0.07250167  0.94195734  1
  Se  Se183  1  0.91475346  0.41506376  0.44506735  1
  Se  Se184  1  0.91395657  0.42569020  0.94461411  1
  Se  Se185  1  0.91398650  0.74556460  0.44084084  1
  Se  Se186  1  0.91942762  0.74717551  0.95183089  1
  Se  Se187  1  0.24633598  0.25029635  0.31453701  1
  Se  Se188  1  0.24443787  0.24538670  0.81628345  1
  Se  Se189  1  0.24898619  0.58428235  0.30687789  1
  Se  Se190  1  0.25036207  0.58525960  0.80008190  1
  Se  Se191  1  0.24781543  0.90132164  0.31474920  1
  Se  Se192  1  0.25234268  0.91490994  0.79935965  1
  Se  Se193  1  0.57739200  0.24682957  0.30401067  1
  Se  Se194  1  0.58339315  0.24925813  0.80119292  1
  Se  Se195  1  0.58992318  0.59021872  0.29771981  1
  Se  Se196  1  0.57263812  0.57729622  0.81366449  1
  Se  Se197  1  0.58239138  0.91739993  0.29994882  1
  Se  Se198  1  0.57884975  0.90095737  0.81063642  1
  Se  Se199  1  0.91497160  0.24431505  0.29804470  1
  Se  Se200  1  0.92509578  0.26273799  0.79927113  1
  Se  Se201  1  0.91936696  0.58352400  0.30367122  1
  Se  Se202  1  0.90311379  0.59362934  0.81279655  1
  Se  Se203  1  0.91086662  0.90137785  0.30757109  1
  Se  Se204  1  0.91719701  0.91552439  0.80776379  1
  Se  Se205  1  0.09358375  0.07917381  0.31428787  1
  Se  Se206  1  0.08855793  0.09106677  0.81383008  1
  Se  Se207  1  0.07881258  0.41253293  0.30513066  1
  Se  Se208  1  0.07918828  0.42746972  0.80093364  1
  Se  Se209  1  0.08064654  0.74371651  0.30395308  1
  Se  Se210  1  0.08491018  0.75416969  0.80600119  1
  Se  Se211  1  0.42551196  0.09579769  0.30668158  1
  Se  Se212  1  0.41735039  0.07623645  0.80095439  1
  Se  Se213  1  0.42289837  0.43051226  0.31248965  1
  Se  Se214  1  0.42233235  0.42353928  0.80863863  1
  Se  Se215  1  0.41161278  0.75340619  0.30688902  1
  Se  Se216  1  0.41077783  0.74201064  0.80072665  1
  Se  Se217  1  0.74478984  0.07895139  0.29396933  1
  Se  Se218  1  0.76341279  0.09415642  0.81046982  1
  Se  Se219  1  0.75144740  0.42409553  0.31331456  1
  Se  Se220  1  0.74829103  0.42405377  0.80267425  1
  Se  Se221  1  0.72931825  0.72302666  0.30006108  1
  Se  Se222  1  0.75056131  0.76693576  0.81674641  1
  Se  Se223  1  0.24393038  0.09287811  0.19667282  1
  Se  Se224  1  0.24911205  0.08014729  0.69986570  1
  Se  Se225  1  0.24103957  0.42556304  0.19156567  1
  Se  Se226  1  0.24870831  0.42542192  0.68620246  1
  Se  Se227  1  0.25508205  0.74413058  0.19644539  1
  Se  Se228  1  0.25522722  0.74275194  0.69125796  1
  Se  Se229  1  0.57444809  0.07693882  0.19395454  1
  Se  Se230  1  0.57997469  0.08662765  0.68631194  1
  Se  Se231  1  0.57359202  0.42734671  0.19183802  1
  Se  Se232  1  0.59098330  0.42084707  0.69863580  1
  Se  Se233  1  0.57860741  0.74833015  0.19762436  1
  Se  Se234  1  0.57687671  0.75066633  0.68912685  1
  Se  Se235  1  0.91020882  0.07615443  0.18433758  1
  Se  Se236  1  0.90721164  0.09801699  0.68849485  1
  Se  Se237  1  0.91939887  0.41400595  0.19925202  1
  Se  Se238  1  0.92276904  0.42749564  0.69585757  1
  Se  Se239  1  0.92674320  0.74268464  0.20912159  1
  Se  Se240  1  0.91412037  0.76338481  0.68788336  1
  Se  Se241  1  0.07991611  0.25430906  0.20412842  1
  Se  Se242  1  0.08866835  0.25640155  0.69924319  1
  Se  Se243  1  0.08316653  0.58501475  0.19961992  1
  Se  Se244  1  0.09801382  0.58796192  0.67867222  1
  Se  Se245  1  0.09248118  0.90530677  0.19084409  1
  Se  Se246  1  0.08884316  0.90433166  0.68925005  1
  Se  Se247  1  0.42376242  0.24656273  0.19264320  1
  Se  Se248  1  0.42372701  0.24367531  0.68871136  1
  Se  Se249  1  0.41290022  0.58406448  0.20581477  1
  Se  Se250  1  0.41631088  0.58420578  0.69016999  1
  Se  Se251  1  0.41658163  0.91200920  0.18815732  1
  Se  Se252  1  0.41549670  0.92012064  0.69885034  1
  Se  Se253  1  0.75762015  0.24296249  0.18272286  1
  Se  Se254  1  0.74606338  0.26165503  0.69963418  1
  Se  Se255  1  0.75108310  0.57941651  0.19764938  1
  Se  Se256  1  0.75793040  0.59055294  0.69151125  1
  Se  Se257  1  0.74261849  0.91532939  0.20611791  1
  Se  Se258  1  0.74964530  0.91318942  0.69100848  1
