# generated using pymatgen
data_In86Cu29Se144
_symmetry_space_group_name_H-M   'P 1'
_cell_length_a   17.58369091
_cell_length_b   17.58008968
_cell_length_c   23.44579740
_cell_angle_alpha   90.01627433
_cell_angle_beta   89.97715984
_cell_angle_gamma   90.00224328
_symmetry_Int_Tables_number   1
_chemical_formula_structural   In86Cu29Se144
_chemical_formula_sum   'In86 Cu29 Se144'
_cell_volume   7247.63114709
_cell_formula_units_Z   1
loop_
 _symmetry_equiv_pos_site_id
 _symmetry_equiv_pos_as_xyz
  1  'x, y, z'
loop_
 _atom_site_type_symbol
 _atom_site_label
 _atom_site_symmetry_multiplicity
 _atom_site_fract_x
 _atom_site_fract_y
 _atom_site_fract_z
 _atom_site_occupancy
  In  In0  1  -0.00102388  0.17050207  0.13181266  1
  In  In1  1  0.00950101  0.15861101  0.62853956  1
  In  In2  1  0.00434642  0.50568064  0.12309304  1
  In  In3  1  -0.00017373  0.50201850  0.62926501  1
  In  In4  1  -0.00413109  0.84103965  0.13557979  1
  In  In5  1  0.00000851  0.83151481  0.62575006  1
  In  In6  1  0.32130164  0.16981026  0.12923103  1
  In  In7  1  0.33012943  0.16897441  0.61868465  1
  In  In8  1  0.33000656  0.50810291  0.10784933  1
  In  In9  1  0.32236101  0.50962412  0.63291770  1
  In  In10  1  0.34341287  0.82782389  0.12448170  1
  In  In11  1  0.32634623  0.83350487  0.62596570  1
  In  In12  1  0.68440596  0.15080630  0.12540098  1
  In  In13  1  0.65625234  0.17873524  0.62284251  1
  In  In14  1  0.67384831  0.50683927  0.11509822  1
  In  In15  1  0.68136851  0.50965358  0.62332681  1
  In  In16  1  0.66601342  0.84545383  0.10770762  1
  In  In17  1  0.67643728  0.80462809  0.63078846  1
  In  In18  1  0.16609397  -0.00173890  0.37222126  1
  In  In19  1  0.15922565  0.00754108  0.87277343  1
  In  In20  1  0.15291380  0.34386951  0.38587593  1
  In  In21  1  0.16777957  0.33829402  0.86861502  1
  In  In22  1  0.14471285  0.68446269  0.39287554  1
  In  In23  1  0.15517766  0.65504970  0.86669357  1
  In  In24  1  0.49434384  0.01348863  0.37482067  1
  In  In25  1  0.50161757  -0.01272931  0.88449352  1
  In  In26  1  0.48727189  0.32799456  0.37541544  1
  In  In27  1  0.50123717  0.34978955  0.87188206  1
  In  In28  1  0.50681586  0.67583732  0.37698610  1
  In  In29  1  0.49932075  0.66362348  0.86472550  1
  In  In30  1  0.83078564  -0.01386395  0.37587814  1
  In  In31  1  0.84370952  -0.01414158  0.88665055  1
  In  In32  1  0.85118560  0.33087928  0.37448399  1
  In  In33  1  0.84682570  0.33140914  0.88589102  1
  In  In34  1  0.84816490  0.64789133  0.39188526  1
  In  In35  1  0.83322754  0.66519087  0.87556226  1
  In  In36  1  0.00794461  0.17761301  0.37057222  1
  In  In37  1  -0.00238782  0.16583171  0.87144386  1
  In  In38  1  0.00074863  0.50102639  0.37818982  1
  In  In39  1  -0.00330727  0.49917676  0.87762813  1
  In  In40  1  0.00364585  0.83032203  0.36956860  1
  In  In41  1  -0.00865857  0.82095526  0.86741304  1
  In  In42  1  0.33644350  0.15313799  0.37886133  1
  In  In43  1  0.32055037  0.16891858  0.87098901  1
  In  In44  1  0.32499109  0.48911694  0.37666057  1
  In  In45  1  0.33373627  0.50331770  0.86768684  1
  In  In46  1  0.31017094  0.83170440  0.37166963  1
  In  In47  1  0.34884515  0.82085104  0.87507332  1
  In  In48  1  0.66033356  0.15474452  0.37855300  1
  In  In49  1  0.67350195  0.18254212  0.87450232  1
  In  In50  1  0.67981879  0.51379573  0.37804629  1
  In  In51  1  0.65760581  0.50768762  0.88105522  1
  In  In52  1  0.67470970  0.83847674  0.38117303  1
  In  In53  1  0.67582500  0.82841514  0.87881589  1
  In  In54  1  0.16279561  -0.00131607  0.14570523  1
  In  In55  1  0.15580080  -0.01268684  0.61484755  1
  In  In56  1  0.15422255  0.34135124  0.12462596  1
  In  In57  1  0.16319955  0.33435609  0.62528943  1
  In  In58  1  0.16815442  0.65595637  0.12348220  1
  In  In59  1  0.16563098  0.66501042  0.62607151  1
  In  In60  1  0.50897227  -0.01064952  0.12752412  1
  In  In61  1  0.48727812  0.00048318  0.62231079  1
  In  In62  1  0.48983384  0.33830344  0.11998146  1
  In  In63  1  0.49501157  0.31847795  0.62499751  1
  In  In64  1  0.49944385  0.67566565  0.10850493  1
  In  In65  1  0.50441216  0.66797326  0.64276146  1
  In  In66  1  0.84094817  0.00665301  0.11487430  1
  In  In67  1  0.85124653  -0.00166117  0.62458916  1
  In  In68  1  0.86409601  0.35057845  0.10601839  1
  In  In69  1  0.83208793  0.35200017  0.62645806  1
  In  In70  1  0.83727440  0.67844307  0.11723252  1
  In  In71  1  0.83714540  0.67019665  0.62744623  1
  In  In72  1  0.67270218  -0.00295861  0.76063724  1
  In  In73  1  0.66962821  -0.00351843  0.24908664  1
  In  In74  1  0.66778101  0.34144663  0.75011906  1
  In  In75  1  0.67210384  0.32465354  0.25072366  1
  In  In76  1  0.49778156  0.49812406  0.50989160  1
  In  In77  1  0.67129914  0.67253807  0.24391401  1
  In  In78  1  0.32568076  0.32944793  0.24493219  1
  In  In79  1  0.50545908  0.16977313  0.00299449  1
  In  In80  1  0.50148270  0.83550724  0.50405847  1
  In  In81  1  0.15955764  0.17253527  0.00218970  1
  In  In82  1  0.83206632  0.16795711  0.49714868  1
  In  In83  1  0.17137591  0.82417372  0.00040058  1
  In  In84  1  0.32642804  -0.00621464  0.74741148  1
  In  In85  1  0.32113734  0.66317334  0.24502731  1
  Cu  Cu86  1  0.49288455  0.83526305  0.24643000  1
  Cu  Cu87  1  0.84361122  0.16733880  0.24407325  1
  Cu  Cu88  1  0.48946015  0.15975911  0.74624710  1
  Cu  Cu89  1  0.84369060  0.17053378  0.75215164  1
  Cu  Cu90  1  -0.00437718  0.66728154  -0.00525598  1
  Cu  Cu91  1  0.00050073  -0.00615327  0.00259259  1
  Cu  Cu92  1  0.32844334  0.00150313  0.49884204  1
  Cu  Cu93  1  0.50266131  0.50283903  0.24082551  1
  Cu  Cu94  1  -0.00369489  0.33938312  0.50361629  1
  Cu  Cu95  1  0.16099630  0.17052879  0.74785626  1
  Cu  Cu96  1  0.83812100  0.83278719  0.75285862  1
  Cu  Cu97  1  0.67647105  0.33277779  -0.00015850  1
  Cu  Cu98  1  0.15765192  0.50200055  0.25352338  1
  Cu  Cu99  1  0.84881996  0.49783616  0.24981146  1
  Cu  Cu100  1  0.33486372  -0.00596119  0.00610846  1
  Cu  Cu101  1  0.00006957  0.66615186  0.50616130  1
  Cu  Cu102  1  0.65850273  0.33768441  0.50165122  1
  Cu  Cu103  1  0.83713184  0.50542849  0.75290308  1
  Cu  Cu104  1  0.33509661  0.34524159  -0.00862718  1
  Cu  Cu105  1  0.16295539  0.49883282  0.74888340  1
  Cu  Cu106  1  0.00489782  -0.00490406  0.49698241  1
  Cu  Cu107  1  0.33102461  0.66001494  0.50269226  1
  Cu  Cu108  1  0.49744931  0.49721198  0.75176371  1
  Cu  Cu109  1  0.32304906  0.32559890  0.49876644  1
  Cu  Cu110  1  0.66688624  -0.00288073  0.50249627  1
  Cu  Cu111  1  0.16436548  0.83128076  0.74458474  1
  Cu  Cu112  1  0.83896883  0.82946247  0.25045257  1
  Cu  Cu113  1  0.16631524  0.16778911  0.25699733  1
  Cu  Cu114  1  0.66269640  0.66456904  -0.00714700  1
  Se  Se115  1  0.08267625  0.07155169  0.06291857  1
  Se  Se116  1  0.08255857  0.08386105  0.55020117  1
  Se  Se117  1  0.08823434  0.42625015  0.05261839  1
  Se  Se118  1  0.08126571  0.42021097  0.55765229  1
  Se  Se119  1  0.07252471  0.74555922  0.06060607  1
  Se  Se120  1  0.08551113  0.75072421  0.55693480  1
  Se  Se121  1  0.40968706  0.08328241  0.06239982  1
  Se  Se122  1  0.41416270  0.08403049  0.55089834  1
  Se  Se123  1  0.42113880  0.42293755  0.04699468  1
  Se  Se124  1  0.40214138  0.40630247  0.56166208  1
  Se  Se125  1  0.40430202  0.74804702  0.04571417  1
  Se  Se126  1  0.41489961  0.73810604  0.56171645  1
  Se  Se127  1  0.73966252  0.06549092  0.04819644  1
  Se  Se128  1  0.74423686  0.08087463  0.56360937  1
  Se  Se129  1  0.75751772  0.42116724  0.04993894  1
  Se  Se130  1  0.74672913  0.41813724  0.55096890  1
  Se  Se131  1  0.74427785  0.74860460  0.04896486  1
  Se  Se132  1  0.76766143  0.75907299  0.55437945  1
  Se  Se133  1  0.25851290  0.26534461  0.05532305  1
  Se  Se134  1  0.23832212  0.24549394  0.55370569  1
  Se  Se135  1  0.24850361  0.59430377  0.04487196  1
  Se  Se136  1  0.24525239  0.57911776  0.55453293  1
  Se  Se137  1  0.24592540  0.92409934  0.06487694  1
  Se  Se138  1  0.25148619  0.91192866  0.55136862  1
  Se  Se139  1  0.59729954  0.25671579  0.06504191  1
  Se  Se140  1  0.57520076  0.24866210  0.54709097  1
  Se  Se141  1  0.58189044  0.58176666  0.04944799  1
  Se  Se142  1  0.58599722  0.59559700  0.56172637  1
  Se  Se143  1  0.57137038  0.91904054  0.04506571  1
  Se  Se144  1  0.59323850  0.91807271  0.56872827  1
  Se  Se145  1  0.91525097  0.23217265  0.05446448  1
  Se  Se146  1  0.91679568  0.25508105  0.56283139  1
  Se  Se147  1  0.91594254  0.58564466  0.05447771  1
  Se  Se148  1  0.91635175  0.58190796  0.55872315  1
  Se  Se149  1  0.91882138  0.90795541  0.05509141  1
  Se  Se150  1  0.92088491  0.91404922  0.55153987  1
  Se  Se151  1  0.07663215  0.25081571  0.45165187  1
  Se  Se152  1  0.07497818  0.26119747  0.94091015  1
  Se  Se153  1  0.08182663  0.57839166  0.45263616  1
  Se  Se154  1  0.08197289  0.58348438  0.94619080  1
  Se  Se155  1  0.08596165  0.91210671  0.44123750  1
  Se  Se156  1  0.07993367  0.91597375  0.94000016  1
  Se  Se157  1  0.41187221  0.24665273  0.44669138  1
  Se  Se158  1  0.41167326  0.25357929  0.93812942  1
  Se  Se159  1  0.41357744  0.58723851  0.43917524  1
  Se  Se160  1  0.43656278  0.56431160  0.93230025  1
  Se  Se161  1  0.41032372  0.91811156  0.43923981  1
  Se  Se162  1  0.41251365  0.91006063  0.95046862  1
  Se  Se163  1  0.73998476  0.25994255  0.43743221  1
  Se  Se164  1  0.75835896  0.24607622  0.95001380  1
  Se  Se165  1  0.74664432  0.58647039  0.45667029  1
  Se  Se166  1  0.75242788  0.58155827  0.94591240  1
  Se  Se167  1  0.75472030  0.91508182  0.45436555  1
  Se  Se168  1  0.73939052  0.92495301  0.94754441  1
  Se  Se169  1  0.24275384  0.08304279  0.44592420  1
  Se  Se170  1  0.25547285  0.07570414  0.94712491  1
  Se  Se171  1  0.24491538  0.41972700  0.45266470  1
  Se  Se172  1  0.24789718  0.42173889  0.93784576  1
  Se  Se173  1  0.25167194  0.75008736  0.45226963  1
  Se  Se174  1  0.25194526  0.73671488  0.93404287  1
  Se  Se175  1  0.58067772  0.07864086  0.45158171  1
  Se  Se176  1  0.59130087  0.08458876  0.93778248  1
  Se  Se177  1  0.58334048  0.41690152  0.43593518  1
  Se  Se178  1  0.58695022  0.41126301  0.94828483  1
  Se  Se179  1  0.59733402  0.74263195  0.44957110  1
  Se  Se180  1  0.58044175  0.74607190  0.93757321  1
  Se  Se181  1  0.92246069  0.07756830  0.43822896  1
  Se  Se182  1  0.92539061  0.08165287  0.94586824  1
  Se  Se183  1  0.91311471  0.42006499  0.44808777  1
  Se  Se184  1  0.90997724  0.42942579  0.95138715  1
  Se  Se185  1  0.92447488  0.75114792  0.44563019  1
  Se  Se186  1  0.91177829  0.75408039  0.94585550  1
  Se  Se187  1  0.24269992  0.25190774  0.31743699  1
  Se  Se188  1  0.24823166  0.25142788  0.79909123  1
  Se  Se189  1  0.23878491  0.57990736  0.31501619  1
  Se  Se190  1  0.24869131  0.58396759  0.79842400  1
  Se  Se191  1  0.25548310  0.92617883  0.30103765  1
  Se  Se192  1  0.24073668  0.90635231  0.81323590  1
  Se  Se193  1  0.57550683  0.24016841  0.30881318  1
  Se  Se194  1  0.57214539  0.24413601  0.80343457  1
  Se  Se195  1  0.57913609  0.57928373  0.30503232  1
  Se  Se196  1  0.58913539  0.57796882  0.79891577  1
  Se  Se197  1  0.57654054  0.90716670  0.31069829  1
  Se  Se198  1  0.57536603  0.90606637  0.80894652  1
  Se  Se199  1  0.92273905  0.25380313  0.29828486  1
  Se  Se200  1  0.92000380  0.25871094  0.80578615  1
  Se  Se201  1  0.92059174  0.58620426  0.30772059  1
  Se  Se202  1  0.92121409  0.58800526  0.80651585  1
  Se  Se203  1  0.91693850  0.91754374  0.30366953  1
  Se  Se204  1  0.91901887  0.92112091  0.80444626  1
  Se  Se205  1  0.07940216  0.08277413  0.30497686  1
  Se  Se206  1  0.08013244  0.08403285  0.80055461  1
  Se  Se207  1  0.07879775  0.41460899  0.30644358  1
  Se  Se208  1  0.07832408  0.41909741  0.80429235  1
  Se  Se209  1  0.08780457  0.74420379  0.30421024  1
  Se  Se210  1  0.08146551  0.74812454  0.79936400  1
  Se  Se211  1  0.41683768  0.08701555  0.30123306  1
  Se  Se212  1  0.41916284  0.08011587  0.81293891  1
  Se  Se213  1  0.42180896  0.42530519  0.30118334  1
  Se  Se214  1  0.41141672  0.41059077  0.79803820  1
  Se  Se215  1  0.41766648  0.75154332  0.30659389  1
  Se  Se216  1  0.41541014  0.74608831  0.79624968  1
  Se  Se217  1  0.76164077  0.09216527  0.30726351  1
  Se  Se218  1  0.76369979  0.09277832  0.81325229  1
  Se  Se219  1  0.75911117  0.42388195  0.30733130  1
  Se  Se220  1  0.75717362  0.42316850  0.81412634  1
  Se  Se221  1  0.75812604  0.75237279  0.31257955  1
  Se  Se222  1  0.75252895  0.75002441  0.80454871  1
  Se  Se223  1  0.25247753  0.08763068  0.20402251  1
  Se  Se224  1  0.23877407  0.08456336  0.68753899  1
  Se  Se225  1  0.24622593  0.43332081  0.18998691  1
  Se  Se226  1  0.24716620  0.41430094  0.69624266  1
  Se  Se227  1  0.23784703  0.76079211  0.18884510  1
  Se  Se228  1  0.25100416  0.74790499  0.69555588  1
  Se  Se229  1  0.57944858  0.09175799  0.19401461  1
  Se  Se230  1  0.57969873  0.08426827  0.69277217  1
  Se  Se231  1  0.58616408  0.42015992  0.18770231  1
  Se  Se232  1  0.57649654  0.42363428  0.68379986  1
  Se  Se233  1  0.57762525  0.76134559  0.18567002  1
  Se  Se234  1  0.58647446  0.75359796  0.70683609  1
  Se  Se235  1  0.91987160  0.07452197  0.19390125  1
  Se  Se236  1  0.92060012  0.08285234  0.69813651  1
  Se  Se237  1  0.92712831  0.41466522  0.19319518  1
  Se  Se238  1  0.91725442  0.41815347  0.70056706  1
  Se  Se239  1  0.91731958  0.74271433  0.19673713  1
  Se  Se240  1  0.92134074  0.74974577  0.69828015  1
  Se  Se241  1  0.08967952  0.25023516  0.19676022  1
  Se  Se242  1  0.07719348  0.25477714  0.69585627  1
  Se  Se243  1  0.08141843  0.58805568  0.19730333  1
  Se  Se244  1  0.08174902  0.58656726  0.69739249  1
  Se  Se245  1  0.08114073  0.91178209  0.20766732  1
  Se  Se246  1  0.08155572  0.91886170  0.69527574  1
  Se  Se247  1  0.42666984  0.24289539  0.19269700  1
  Se  Se248  1  0.40775705  0.24542538  0.69555607  1
  Se  Se249  1  0.42210873  0.58331453  0.18388555  1
  Se  Se250  1  0.41326395  0.58270282  0.70108553  1
  Se  Se251  1  0.41264003  0.92084254  0.19430090  1
  Se  Se252  1  0.42575788  0.90535258  0.69510399  1
  Se  Se253  1  0.76575002  0.24966329  0.18426877  1
  Se  Se254  1  0.75761753  0.24469548  0.69188977  1
  Se  Se255  1  0.76292339  0.57557047  0.19187002  1
  Se  Se256  1  0.75315359  0.58776170  0.69906053  1
  Se  Se257  1  0.75691761  0.90666004  0.18799792  1
  Se  Se258  1  0.75860322  0.91409313  0.69172148  1
