# generated using pymatgen
data_In86Cu29Se144
_symmetry_space_group_name_H-M   'P 1'
_cell_length_a   17.75067851
_cell_length_b   17.77059340
_cell_length_c   23.59821566
_cell_angle_alpha   89.94991548
_cell_angle_beta   90.02708547
_cell_angle_gamma   89.93949695
_symmetry_Int_Tables_number   1
_chemical_formula_structural   In86Cu29Se144
_chemical_formula_sum   'In86 Cu29 Se144'
_cell_volume   7443.81545065
_cell_formula_units_Z   1
loop_
 _symmetry_equiv_pos_site_id
 _symmetry_equiv_pos_as_xyz
  1  'x, y, z'
loop_
 _atom_site_type_symbol
 _atom_site_label
 _atom_site_symmetry_multiplicity
 _atom_site_fract_x
 _atom_site_fract_y
 _atom_site_fract_z
 _atom_site_occupancy
  In  In0  1  0.00829139  0.15664357  0.13161584  1
  In  In1  1  0.01122477  0.16798015  0.61672532  1
  In  In2  1  0.01410612  0.50005853  0.12969256  1
  In  In3  1  0.07047234  0.52477182  0.58517368  1
  In  In4  1  -0.00612434  0.83542094  0.13115058  1
  In  In5  1  -0.00745602  0.82502035  0.61495850  1
  In  In6  1  0.33266090  0.15855842  0.11977108  1
  In  In7  1  0.33197219  0.16333966  0.61869526  1
  In  In8  1  0.33447529  0.49176135  0.12524020  1
  In  In9  1  0.32833014  0.51434252  0.64273850  1
  In  In10  1  0.34592136  0.83563878  0.12068848  1
  In  In11  1  0.32337459  0.84687042  0.63111777  1
  In  In12  1  0.65326925  0.16563488  0.13881445  1
  In  In13  1  0.66159130  0.18462621  0.62162840  1
  In  In14  1  0.66311996  0.49670021  0.13454753  1
  In  In15  1  0.64986894  0.49541801  0.62042010  1
  In  In16  1  0.66789747  0.82935139  0.13133157  1
  In  In17  1  0.67064753  0.83180712  0.61617448  1
  In  In18  1  0.16250404  -0.00408870  0.36820965  1
  In  In19  1  0.18045835  0.00245193  0.87595446  1
  In  In20  1  0.22969824  0.28275122  0.42727790  1
  In  In21  1  0.17422799  0.31920747  0.87383197  1
  In  In22  1  0.14901065  0.67483728  0.40038856  1
  In  In23  1  0.16471577  0.66693893  0.85987038  1
  In  In24  1  0.50662457  0.00083157  0.35850877  1
  In  In25  1  0.49562710  0.00578260  0.88601593  1
  In  In26  1  0.48924003  0.33020175  0.37610011  1
  In  In27  1  0.48141706  0.32443302  0.86137843  1
  In  In28  1  0.49031709  0.65157503  0.37741658  1
  In  In29  1  0.50076464  0.67669269  0.87405464  1
  In  In30  1  0.81614545  -0.00706221  0.35926681  1
  In  In31  1  0.81921151  0.00156517  0.88503649  1
  In  In32  1  0.82767112  0.33547140  0.37449457  1
  In  In33  1  0.83667612  0.33346456  0.87230946  1
  In  In34  1  0.84490867  0.67301354  0.37331754  1
  In  In35  1  0.83985770  0.67155715  0.87468052  1
  In  In36  1  0.01260577  0.16751476  0.37569986  1
  In  In37  1  0.00183358  0.17877213  0.87664616  1
  In  In38  1  0.00973025  0.50839608  0.38453051  1
  In  In39  1  -0.00554409  0.50549845  0.86876444  1
  In  In40  1  -0.00846502  0.82893309  0.37656515  1
  In  In41  1  -0.00379667  0.82571293  0.87646330  1
  In  In42  1  0.34174237  0.15377109  0.36242803  1
  In  In43  1  0.33845598  0.16254737  0.87543562  1
  In  In44  1  0.32894651  0.49243372  0.39329118  1
  In  In45  1  0.32857112  0.50012704  0.85758678  1
  In  In46  1  0.31986243  0.82809478  0.37260940  1
  In  In47  1  0.33915246  0.84561311  0.86662045  1
  In  In48  1  0.64278398  0.15267945  0.35242374  1
  In  In49  1  0.65036661  0.16771306  0.87957278  1
  In  In50  1  0.65176459  0.48648309  0.37086812  1
  In  In51  1  0.67409149  0.49233523  0.87409443  1
  In  In52  1  0.67361765  0.83757697  0.36500704  1
  In  In53  1  0.66189536  0.83615709  0.88887894  1
  In  In54  1  0.15800577  0.00580366  0.13493898  1
  In  In55  1  0.17208578  0.00792499  0.61565698  1
  In  In56  1  0.22220415  0.31301566  0.14654951  1
  In  In57  1  0.25766683  0.36868270  0.56980665  1
  In  In58  1  0.16286295  0.65447524  0.13212056  1
  In  In59  1  0.16562447  0.67904706  0.63169034  1
  In  In60  1  0.49570915  -0.00520169  0.13132838  1
  In  In61  1  0.48626783  -0.00017175  0.62172227  1
  In  In62  1  0.50405501  0.31795820  0.13494863  1
  In  In63  1  0.49404088  0.33162060  0.62389333  1
  In  In64  1  0.50074013  0.68175986  0.12442341  1
  In  In65  1  0.49498843  0.65205184  0.62251392  1
  In  In66  1  0.84748819  -0.00779294  0.13535789  1
  In  In67  1  0.83992542  0.00284455  0.61630584  1
  In  In68  1  0.82762538  0.31925080  0.13380931  1
  In  In69  1  0.82956482  0.33758681  0.62827026  1
  In  In70  1  0.82340922  0.67181236  0.13227442  1
  In  In71  1  0.83313003  0.67410311  0.62349915  1
  In  In72  1  0.32866095  0.66755007  0.25595240  1
  In  In73  1  0.01051235  0.34438276  0.26030554  1
  In  In74  1  0.66263495  0.66648539  0.75044658  1
  In  In75  1  0.66427436  0.00635462  0.75727155  1
  In  In76  1  0.50113581  0.49753171  -0.01176674  1
  In  In77  1  0.83189015  0.50265429  0.49523331  1
  In  In78  1  0.83313805  0.16146793  0.01615637  1
  In  In79  1  0.83356415  0.50158838  -0.00229940  1
  In  In80  1  0.82819409  0.16300698  0.48734451  1
  In  In81  1  0.00089852  0.00055688  0.74904179  1
  In  In82  1  0.16423233  0.49640370  -0.00935391  1
  In  In83  1  0.16389545  0.83511698  -0.00443621  1
  In  In84  1  0.50089626  0.83471832  0.49199150  1
  In  In85  1  0.02135593  0.34789809  0.72771695  1
  Cu  Cu86  1  0.66257347  -0.00839933  0.01113185  1
  Cu  Cu87  1  0.00844547  0.33263233  0.50779067  1
  Cu  Cu88  1  0.82972706  0.83816129  0.74680359  1
  Cu  Cu89  1  0.01544174  0.33313467  0.00238391  1
  Cu  Cu90  1  0.66396234  0.67222951  0.00833048  1
  Cu  Cu91  1  0.16219913  0.82826657  0.25638949  1
  Cu  Cu92  1  -0.00849861  0.67275983  0.00173299  1
  Cu  Cu93  1  0.83748243  0.50004750  0.25677674  1
  Cu  Cu94  1  0.66739775  0.32394964  0.00769821  1
  Cu  Cu95  1  0.83624443  0.17759771  0.74795016  1
  Cu  Cu96  1  0.18094769  0.16178077  0.74835925  1
  Cu  Cu97  1  0.32705756  0.66888669  -0.00329143  1
  Cu  Cu98  1  0.67108059  0.66701202  0.49830515  1
  Cu  Cu99  1  0.33569733  0.67192726  0.50489950  1
  Cu  Cu100  1  0.48977672  0.49873197  0.25620968  1
  Cu  Cu101  1  0.49536045  0.16557525  0.74918366  1
  Cu  Cu102  1  0.66498337  0.00465172  0.48352843  1
  Cu  Cu103  1  -0.00357408  -0.01035449  0.49321060  1
  Cu  Cu104  1  0.83713092  0.82607158  0.24980975  1
  Cu  Cu105  1  0.83244142  0.49949681  0.74938640  1
  Cu  Cu106  1  0.33422240  -0.00184095  -0.00003887  1
  Cu  Cu107  1  0.49699711  0.83213163  0.74928803  1
  Cu  Cu108  1  0.16230300  0.51192346  0.26340514  1
  Cu  Cu109  1  0.16328171  0.83661795  0.74868175  1
  Cu  Cu110  1  0.00160066  0.00379788  0.00963490  1
  Cu  Cu111  1  0.34085582  0.32292851  -0.00129020  1
  Cu  Cu112  1  0.16964705  0.16793370  0.25643975  1
  Cu  Cu113  1  0.33510847  0.00376954  0.49573207  1
  Cu  Cu114  1  0.65220935  0.33151076  0.49541332  1
  Se  Se115  1  0.08849902  0.08528245  0.05675201  1
  Se  Se116  1  0.07528643  0.07445111  0.54816107  1
  Se  Se117  1  0.09216950  0.41080051  0.06317958  1
  Se  Se118  1  0.09157616  0.38293959  0.57662465  1
  Se  Se119  1  0.08222333  0.74222157  0.05987297  1
  Se  Se120  1  0.09769343  0.76402883  0.55688044  1
  Se  Se121  1  0.41874737  0.07557081  0.05581981  1
  Se  Se122  1  0.41878810  0.08396840  0.54882393  1
  Se  Se123  1  0.41909299  0.40989523  0.05535422  1
  Se  Se124  1  0.40132288  0.42265258  0.56818564  1
  Se  Se125  1  0.41318920  0.74599201  0.04984869  1
  Se  Se126  1  0.41603864  0.75533462  0.56251531  1
  Se  Se127  1  0.74022588  0.07350775  0.07141329  1
  Se  Se128  1  0.73782747  0.07977943  0.55446430  1
  Se  Se129  1  0.74735236  0.40988809  0.06065895  1
  Se  Se130  1  0.74040798  0.40784579  0.55193086  1
  Se  Se131  1  0.75162919  0.75158938  0.05766461  1
  Se  Se132  1  0.75259968  0.75038378  0.54980718  1
  Se  Se133  1  0.25134337  0.24712113  0.05119560  1
  Se  Se134  1  0.23938247  0.22616697  0.54489871  1
  Se  Se135  1  0.25399532  0.58562594  0.05603196  1
  Se  Se136  1  0.25695164  0.59712468  0.56670304  1
  Se  Se137  1  0.24932182  0.92144039  0.05951149  1
  Se  Se138  1  0.25513020  0.92101291  0.55098039  1
  Se  Se139  1  0.58271733  0.24427288  0.05981641  1
  Se  Se140  1  0.57197605  0.24854477  0.55011657  1
  Se  Se141  1  0.58557937  0.58142560  0.05823332  1
  Se  Se142  1  0.58464965  0.58735306  0.54994530  1
  Se  Se143  1  0.58035840  0.91079423  0.06485345  1
  Se  Se144  1  0.58994116  0.92764641  0.55211241  1
  Se  Se145  1  0.92913250  0.25925832  0.06257038  1
  Se  Se146  1  0.91244037  0.25207666  0.55574421  1
  Se  Se147  1  0.92283985  0.58450909  0.06189734  1
  Se  Se148  1  0.91592918  0.57861136  0.56463090  1
  Se  Se149  1  0.91993446  0.91676402  0.05726001  1
  Se  Se150  1  0.91114584  0.91408546  0.54957491  1
  Se  Se151  1  0.08344774  0.25087571  0.44762019  1
  Se  Se152  1  0.09026741  0.24701078  0.94701150  1
  Se  Se153  1  0.08470421  0.57407402  0.46602623  1
  Se  Se154  1  0.07244173  0.59581051  0.93986743  1
  Se  Se155  1  0.08248673  0.91403215  0.43836738  1
  Se  Se156  1  0.07299928  0.92910111  0.93859623  1
  Se  Se157  1  0.38794599  0.25702707  0.43761331  1
  Se  Se158  1  0.42453955  0.24501737  0.94313565  1
  Se  Se159  1  0.41332865  0.58289811  0.45453541  1
  Se  Se160  1  0.40337783  0.58787476  0.93525581  1
  Se  Se161  1  0.41156072  0.92319973  0.43244543  1
  Se  Se162  1  0.41452286  0.91250541  0.94677675  1
  Se  Se163  1  0.73352647  0.25366579  0.43593478  1
  Se  Se164  1  0.75241364  0.25048994  0.94547802  1
  Se  Se165  1  0.74076603  0.58508353  0.43325809  1
  Se  Se166  1  0.74010642  0.59488993  0.94260569  1
  Se  Se167  1  0.74945679  0.91725046  0.43946277  1
  Se  Se168  1  0.74866941  0.91574594  0.95504044  1
  Se  Se169  1  0.25489899  0.07526530  0.43195161  1
  Se  Se170  1  0.25413021  0.08404492  0.94702006  1
  Se  Se171  1  0.23142376  0.42526738  0.45970279  1
  Se  Se172  1  0.26480984  0.40870796  0.93932848  1
  Se  Se173  1  0.25241527  0.75387914  0.45205381  1
  Se  Se174  1  0.25045535  0.74588705  0.93373478  1
  Se  Se175  1  0.57629627  0.08306767  0.43509881  1
  Se  Se176  1  0.58920182  0.07762244  0.95208685  1
  Se  Se177  1  0.56934441  0.41685714  0.44556301  1
  Se  Se178  1  0.59545956  0.40150908  0.94071414  1
  Se  Se179  1  0.58954513  0.74224950  0.43537685  1
  Se  Se180  1  0.57868945  0.74777486  0.95051269  1
  Se  Se181  1  0.91916017  0.07225590  0.43252617  1
  Se  Se182  1  0.92238079  0.08202470  0.94466604  1
  Se  Se183  1  0.92614237  0.40472688  0.44477053  1
  Se  Se184  1  0.93029366  0.40828161  0.94387374  1
  Se  Se185  1  0.92458363  0.73974115  0.44859731  1
  Se  Se186  1  0.90995199  0.75527795  0.94864085  1
  Se  Se187  1  0.24316641  0.24899565  0.31704569  1
  Se  Se188  1  0.25917025  0.24585114  0.80385509  1
  Se  Se189  1  0.24326251  0.58846628  0.32517169  1
  Se  Se190  1  0.23214654  0.57190338  0.79698550  1
  Se  Se191  1  0.24915030  0.91386497  0.30097609  1
  Se  Se192  1  0.24641443  0.92005816  0.80110665  1
  Se  Se193  1  0.58185406  0.26780856  0.30459681  1
  Se  Se194  1  0.58068295  0.24550680  0.80380462  1
  Se  Se195  1  0.57605993  0.57995195  0.30607961  1
  Se  Se196  1  0.57952772  0.57569849  0.81261363  1
  Se  Se197  1  0.58715725  0.91131214  0.29798122  1
  Se  Se198  1  0.57712192  0.90980929  0.81158597  1
  Se  Se199  1  0.91735636  0.24994546  0.31110556  1
  Se  Se200  1  0.92483249  0.25649164  0.80004571  1
  Se  Se201  1  0.92165801  0.57603504  0.31199422  1
  Se  Se202  1  0.91033438  0.58644205  0.80242606  1
  Se  Se203  1  0.91521218  0.91205632  0.30404471  1
  Se  Se204  1  0.90324474  0.91905435  0.81091226  1
  Se  Se205  1  0.08125853  0.08385286  0.30115297  1
  Se  Se206  1  0.09012336  0.09308178  0.80828852  1
  Se  Se207  1  0.09985214  0.42158238  0.32447012  1
  Se  Se208  1  0.08999959  0.41808154  0.81383935  1
  Se  Se209  1  0.08693742  0.74610284  0.31506778  1
  Se  Se210  1  0.07719233  0.75720352  0.80184886  1
  Se  Se211  1  0.43601625  0.09526569  0.29039754  1
  Se  Se212  1  0.42251051  0.07909200  0.80782375  1
  Se  Se213  1  0.40604027  0.42418993  0.31402542  1
  Se  Se214  1  0.41873220  0.42121038  0.79692836  1
  Se  Se215  1  0.42371208  0.75452087  0.31119254  1
  Se  Se216  1  0.41557075  0.75095865  0.80405638  1
  Se  Se217  1  0.75776545  0.09936227  0.29947863  1
  Se  Se218  1  0.75955838  0.09975130  0.81142359  1
  Se  Se219  1  0.75045149  0.41885060  0.30563364  1
  Se  Se220  1  0.75535623  0.41427465  0.80376647  1
  Se  Se221  1  0.75540265  0.74441811  0.30455789  1
  Se  Se222  1  0.74945640  0.76256794  0.80986894  1
  Se  Se223  1  0.24841281  0.08807135  0.19555110  1
  Se  Se224  1  0.25520647  0.07702859  0.69044977  1
  Se  Se225  1  0.24457398  0.43766692  0.20157189  1
  Se  Se226  1  0.22346818  0.41790648  0.67090848  1
  Se  Se227  1  0.24214648  0.75503869  0.18964410  1
  Se  Se228  1  0.25361371  0.75695460  0.70063208  1
  Se  Se229  1  0.55036809  0.09894291  0.19982897  1
  Se  Se230  1  0.57910420  0.08822816  0.68869998  1
  Se  Se231  1  0.57100008  0.41941456  0.19711703  1
  Se  Se232  1  0.58861398  0.40404274  0.68913430  1
  Se  Se233  1  0.59712730  0.73131513  0.19461587  1
  Se  Se234  1  0.57900487  0.75906151  0.68696534  1
  Se  Se235  1  0.90718124  0.09908741  0.19438002  1
  Se  Se236  1  0.91115845  0.09466327  0.68911684  1
  Se  Se237  1  0.91325866  0.42067607  0.19170304  1
  Se  Se238  1  0.91454617  0.43119166  0.68415028  1
  Se  Se239  1  0.92030915  0.74268409  0.19638717  1
  Se  Se240  1  0.91196512  0.75740139  0.69342360  1
  Se  Se241  1  0.09488434  0.25334264  0.19335059  1
  Se  Se242  1  0.10063223  0.23729049  0.68659477  1
  Se  Se243  1  0.07809881  0.58609102  0.20529332  1
  Se  Se244  1  0.07119847  0.58863950  0.68228861  1
  Se  Se245  1  0.08336883  0.91108360  0.19751779  1
  Se  Se246  1  0.08586577  0.91562928  0.68585483  1
  Se  Se247  1  0.37798578  0.27684535  0.18168265  1
  Se  Se248  1  0.41406800  0.24227655  0.68972248  1
  Se  Se249  1  0.41865963  0.58117188  0.19045963  1
  Se  Se250  1  0.42590909  0.58865564  0.70408418  1
  Se  Se251  1  0.41183781  0.91060190  0.19741859  1
  Se  Se252  1  0.41822462  0.91966256  0.69726343  1
  Se  Se253  1  0.73709913  0.25356508  0.20061229  1
  Se  Se254  1  0.74839485  0.25259804  0.69450577  1
  Se  Se255  1  0.75424694  0.57540122  0.19711397  1
  Se  Se256  1  0.74965401  0.57765733  0.68828063  1
  Se  Se257  1  0.75650259  0.91112086  0.19651864  1
  Se  Se258  1  0.75172480  0.92040009  0.68907050  1
