# generated using pymatgen
data_In86Cu29Se144
_symmetry_space_group_name_H-M   'P 1'
_cell_length_a   17.57276423
_cell_length_b   17.57297392
_cell_length_c   23.43088767
_cell_angle_alpha   90.00533707
_cell_angle_beta   89.98126313
_cell_angle_gamma   89.99605076
_symmetry_Int_Tables_number   1
_chemical_formula_structural   In86Cu29Se144
_chemical_formula_sum   'In86 Cu29 Se144'
_cell_volume   7235.59187627
_cell_formula_units_Z   1
loop_
 _symmetry_equiv_pos_site_id
 _symmetry_equiv_pos_as_xyz
  1  'x, y, z'
loop_
 _atom_site_type_symbol
 _atom_site_label
 _atom_site_symmetry_multiplicity
 _atom_site_fract_x
 _atom_site_fract_y
 _atom_site_fract_z
 _atom_site_occupancy
  In  In0  1  0.00296546  0.16478812  0.12840679  1
  In  In1  1  0.00378197  0.17260888  0.61100128  1
  In  In2  1  -0.00094095  0.49387026  0.12707428  1
  In  In3  1  -0.00269088  0.50125326  0.62241425  1
  In  In4  1  -0.00876306  0.85276820  0.13039664  1
  In  In5  1  -0.01271484  0.82278397  0.62834653  1
  In  In6  1  0.32700339  0.17808050  0.12187665  1
  In  In7  1  0.32827425  0.17116413  0.63179116  1
  In  In8  1  0.34444672  0.50644107  0.11376375  1
  In  In9  1  0.33091889  0.49534850  0.62660685  1
  In  In10  1  0.33844528  0.81760181  0.11891697  1
  In  In11  1  0.34565571  0.82853936  0.64310540  1
  In  In12  1  0.67865472  0.15755513  0.13905081  1
  In  In13  1  0.67130260  0.15653095  0.61581112  1
  In  In14  1  0.66708092  0.50152781  0.12443660  1
  In  In15  1  0.66942419  0.51117811  0.61877023  1
  In  In16  1  0.66907263  0.83200954  0.11613437  1
  In  In17  1  0.65717942  0.82647624  0.63928132  1
  In  In18  1  0.16613328  0.02385791  0.38021894  1
  In  In19  1  0.18120007  -0.00529057  0.87780692  1
  In  In20  1  0.15210100  0.34317898  0.37889831  1
  In  In21  1  0.16972493  0.32916642  0.87884063  1
  In  In22  1  0.15684674  0.65298636  0.37727673  1
  In  In23  1  0.15557883  0.65449783  0.86777536  1
  In  In24  1  0.50543426  -0.00855549  0.37748502  1
  In  In25  1  0.49641548  -0.01644311  0.86342664  1
  In  In26  1  0.51287817  0.33945223  0.37418277  1
  In  In27  1  0.49681964  0.34913567  0.87587618  1
  In  In28  1  0.50697743  0.65702953  0.37874228  1
  In  In29  1  0.50534305  0.66978109  0.87241024  1
  In  In30  1  0.84051556  0.00232266  0.36678714  1
  In  In31  1  0.80824960  -0.00949466  0.86756330  1
  In  In32  1  0.83347304  0.33470964  0.37454905  1
  In  In33  1  0.84126767  0.34693253  0.87739626  1
  In  In34  1  0.81687914  0.66981789  0.37243188  1
  In  In35  1  0.83456474  0.66152780  0.88106706  1
  In  In36  1  -0.00158248  0.16993524  0.37305713  1
  In  In37  1  0.00081405  0.17877226  0.87707552  1
  In  In38  1  0.01050850  0.48503626  0.37827922  1
  In  In39  1  -0.00946947  0.51786872  0.88967438  1
  In  In40  1  -0.01860571  0.84020481  0.36691274  1
  In  In41  1  0.00197331  0.81536326  0.87566322  1
  In  In42  1  0.31225470  0.16199525  0.38634766  1
  In  In43  1  0.32783908  0.15420687  0.86921739  1
  In  In44  1  0.33262693  0.49589048  0.38343733  1
  In  In45  1  0.33146567  0.49969543  0.86939822  1
  In  In46  1  0.34389343  0.83504332  0.38257988  1
  In  In47  1  0.35057883  0.83499638  0.85974472  1
  In  In48  1  0.67420833  0.17293806  0.37301649  1
  In  In49  1  0.67198127  0.15044680  0.87070626  1
  In  In50  1  0.66924755  0.50411274  0.37616784  1
  In  In51  1  0.66357874  0.51377238  0.88947934  1
  In  In52  1  0.67992303  0.83777323  0.35631848  1
  In  In53  1  0.66569925  0.82647239  0.88118539  1
  In  In54  1  0.15116183  0.00148485  0.12408928  1
  In  In55  1  0.17277243  0.01046015  0.62103147  1
  In  In56  1  0.16667052  0.33478880  0.12249068  1
  In  In57  1  0.16951739  0.33863918  0.62043874  1
  In  In58  1  0.17238916  0.66002039  0.12145630  1
  In  In59  1  0.17697957  0.65539715  0.63498623  1
  In  In60  1  0.51660569  -0.00120296  0.12508989  1
  In  In61  1  0.50604834  -0.00473901  0.63507154  1
  In  In62  1  0.50569654  0.35006613  0.12294212  1
  In  In63  1  0.48361919  0.33288157  0.62755635  1
  In  In64  1  0.53091356  0.68546247  0.09176927  1
  In  In65  1  0.51094286  0.65994543  0.63957290  1
  In  In66  1  0.83358415  -0.00573065  0.12875324  1
  In  In67  1  0.82168906  -0.00393435  0.61844744  1
  In  In68  1  0.82590762  0.34559238  0.13623185  1
  In  In69  1  0.83552703  0.33974740  0.61453531  1
  In  In70  1  0.81714616  0.65923006  0.11363074  1
  In  In71  1  0.83108485  0.65478953  0.63819391  1
  In  In72  1  0.66484528  0.33916816  0.75918644  1
  In  In73  1  0.49873611  0.17098630  0.00646999  1
  In  In74  1  0.33784580  0.66099096  0.24967714  1
  In  In75  1  0.33860838  0.33579976  0.24909966  1
  In  In76  1  0.00218271  -0.00296469  0.74346241  1
  In  In77  1  0.16844416  0.83035077  0.50514473  1
  In  In78  1  0.50410675  0.83199623  0.51181540  1
  In  In79  1  0.16991101  0.82715730  -0.00453413  1
  In  In80  1  -0.00982974  0.66630028  0.24022108  1
  In  In81  1  0.49916092  0.17017988  0.50139153  1
  In  In82  1  0.00065628  0.34216274  0.74270142  1
  In  In83  1  0.82889262  0.83135544  0.49552773  1
  In  In84  1  0.84012408  0.16759328  0.00058359  1
  In  In85  1  0.33485791  0.00048151  0.25997230  1
  Cu  Cu86  1  0.15974628  0.16849100  0.24950098  1
  Cu  Cu87  1  0.00647298  0.34037334  0.00171884  1
  Cu  Cu88  1  0.66260696  0.66870910  0.50140138  1
  Cu  Cu89  1  0.67367682  0.33384300  0.00377685  1
  Cu  Cu90  1  0.49955148  0.16568443  0.74556118  1
  Cu  Cu91  1  -0.00205637  0.66833576  0.00434038  1
  Cu  Cu92  1  0.50654351  0.16643114  0.25509286  1
  Cu  Cu93  1  0.51394686  0.51132336  0.24513731  1
  Cu  Cu94  1  0.66620801  0.34404872  0.49502321  1
  Cu  Cu95  1  0.83411069  0.50108815  0.25182799  1
  Cu  Cu96  1  0.83007088  0.16954596  0.74123454  1
  Cu  Cu97  1  0.16491763  0.49333445  0.74953476  1
  Cu  Cu98  1  -0.00513521  0.32824681  0.49525554  1
  Cu  Cu99  1  -0.00567132  0.00571411  0.00237978  1
  Cu  Cu100  1  0.15958984  0.83873241  0.25236274  1
  Cu  Cu101  1  -0.00225397  0.65407268  0.50304445  1
  Cu  Cu102  1  0.16909228  0.83008900  0.75380673  1
  Cu  Cu103  1  0.49678037  0.49985987  0.75338114  1
  Cu  Cu104  1  0.32614841  0.33476720  -0.00346770  1
  Cu  Cu105  1  0.33008924  0.65504094  0.50672903  1
  Cu  Cu106  1  0.32892219  0.33315706  0.50543269  1
  Cu  Cu107  1  0.33753983  0.66325482  -0.01197754  1
  Cu  Cu108  1  0.83167263  0.82411274  0.75367785  1
  Cu  Cu109  1  0.66219798  -0.01088430  -0.00296540  1
  Cu  Cu110  1  0.50624420  0.83006037  0.24112223  1
  Cu  Cu111  1  0.83803992  0.17009085  0.25272199  1
  Cu  Cu112  1  0.00367755  0.00422487  0.49205408  1
  Cu  Cu113  1  0.33342394  -0.00150083  -0.00688048  1
  Cu  Cu114  1  0.17232126  0.16294514  0.75230817  1
  Se  Se115  1  0.08138701  0.08795021  0.05152420  1
  Se  Se116  1  0.08744571  0.08254367  0.54877890  1
  Se  Se117  1  0.08962075  0.42451572  0.05483681  1
  Se  Se118  1  0.07367099  0.41008803  0.55575351  1
  Se  Se119  1  0.07594806  0.75230693  0.06507714  1
  Se  Se120  1  0.07634976  0.73776166  0.56166435  1
  Se  Se121  1  0.40766691  0.07409629  0.06261524  1
  Se  Se122  1  0.41731990  0.08088478  0.56658042  1
  Se  Se123  1  0.41738957  0.41148945  0.04769144  1
  Se  Se124  1  0.41552792  0.41788959  0.55327403  1
  Se  Se125  1  0.41645331  0.75194828  0.04071508  1
  Se  Se126  1  0.41034609  0.73778524  0.56421807  1
  Se  Se127  1  0.74097397  0.07894517  0.05317851  1
  Se  Se128  1  0.76133983  0.08805999  0.54664934  1
  Se  Se129  1  0.75520967  0.41874680  0.05633264  1
  Se  Se130  1  0.74947020  0.42529835  0.55097589  1
  Se  Se131  1  0.73458736  0.73831599  0.04408438  1
  Se  Se132  1  0.74305510  0.74729072  0.56345144  1
  Se  Se133  1  0.24439185  0.25032948  0.04972789  1
  Se  Se134  1  0.24814979  0.24543682  0.55613376  1
  Se  Se135  1  0.25506127  0.58782120  0.04831629  1
  Se  Se136  1  0.24237245  0.57412946  0.55647630  1
  Se  Se137  1  0.25435723  0.92128212  0.05985249  1
  Se  Se138  1  0.26262928  0.91099858  0.56665804  1
  Se  Se139  1  0.59924931  0.25105852  0.06542627  1
  Se  Se140  1  0.58935205  0.26407275  0.56007714  1
  Se  Se141  1  0.56324649  0.55341367  0.05465928  1
  Se  Se142  1  0.57497574  0.58894195  0.55429546  1
  Se  Se143  1  0.57384247  0.91074452  0.04901983  1
  Se  Se144  1  0.59999704  0.92499348  0.56162279  1
  Se  Se145  1  0.92133208  0.26219451  0.06230154  1
  Se  Se146  1  0.90874889  0.24678662  0.54771163  1
  Se  Se147  1  0.92042233  0.58140054  0.05893777  1
  Se  Se148  1  0.90620085  0.58333654  0.55829798  1
  Se  Se149  1  0.91157730  0.91955909  0.05173828  1
  Se  Se150  1  0.92765529  0.92057702  0.55347974  1
  Se  Se151  1  0.08409730  0.24602272  0.44547858  1
  Se  Se152  1  0.08365392  0.25011585  0.94982922  1
  Se  Se153  1  0.08485235  0.57285708  0.45143425  1
  Se  Se154  1  0.08933252  0.58887260  0.95390494  1
  Se  Se155  1  0.07926827  0.91378213  0.43655495  1
  Se  Se156  1  0.07497664  0.92277513  0.94103019  1
  Se  Se157  1  0.40860101  0.25990836  0.43811557  1
  Se  Se158  1  0.41048538  0.25246515  0.93903734  1
  Se  Se159  1  0.41704207  0.58350363  0.44696514  1
  Se  Se160  1  0.42025669  0.57907549  0.93616195  1
  Se  Se161  1  0.41212946  0.92747477  0.45353757  1
  Se  Se162  1  0.41516042  0.91434143  0.94073664  1
  Se  Se163  1  0.74835507  0.25551011  0.44617298  1
  Se  Se164  1  0.74528052  0.25342448  0.93748653  1
  Se  Se165  1  0.74930369  0.58748675  0.44866614  1
  Se  Se166  1  0.75487384  0.58613921  0.95640468  1
  Se  Se167  1  0.74270117  0.92342209  0.43664449  1
  Se  Se168  1  0.75462168  0.91012080  0.94981820  1
  Se  Se169  1  0.25667657  0.06843952  0.45895552  1
  Se  Se170  1  0.24765369  0.08678330  0.94880648  1
  Se  Se171  1  0.24571608  0.41384881  0.44809120  1
  Se  Se172  1  0.24757146  0.42222316  0.94282835  1
  Se  Se173  1  0.25725039  0.73710583  0.44160271  1
  Se  Se174  1  0.25675378  0.74548423  0.92796316  1
  Se  Se175  1  0.58995231  0.08077461  0.44235229  1
  Se  Se176  1  0.58174624  0.07795175  0.94302607  1
  Se  Se177  1  0.57900654  0.42783747  0.44686737  1
  Se  Se178  1  0.58749722  0.41179308  0.94826863  1
  Se  Se179  1  0.59223744  0.75568817  0.43896457  1
  Se  Se180  1  0.58449704  0.74212461  0.94926039  1
  Se  Se181  1  0.91549585  0.08341136  0.44061110  1
  Se  Se182  1  0.91632479  0.07419911  0.93142066  1
  Se  Se183  1  0.91422291  0.41811034  0.44567509  1
  Se  Se184  1  0.91586441  0.42127685  0.95361698  1
  Se  Se185  1  0.92498950  0.73842384  0.44058369  1
  Se  Se186  1  0.91636335  0.75143914  0.95028478  1
  Se  Se187  1  0.24451398  0.24664976  0.30788071  1
  Se  Se188  1  0.25008721  0.24992807  0.80658333  1
  Se  Se189  1  0.24575914  0.57191997  0.30770589  1
  Se  Se190  1  0.24775006  0.58189019  0.79988810  1
  Se  Se191  1  0.24169003  0.90882318  0.31809657  1
  Se  Se192  1  0.25271138  0.91747547  0.80178874  1
  Se  Se193  1  0.58791282  0.25458940  0.30463589  1
  Se  Se194  1  0.57417273  0.24111269  0.81403849  1
  Se  Se195  1  0.59294854  0.59222674  0.30388827  1
  Se  Se196  1  0.58526530  0.57602585  0.80752860  1
  Se  Se197  1  0.57922623  0.91765721  0.29998268  1
  Se  Se198  1  0.61668891  0.93528791  0.81361934  1
  Se  Se199  1  0.92002762  0.25620121  0.30424646  1
  Se  Se200  1  0.90712246  0.24734051  0.80343077  1
  Se  Se201  1  0.91503758  0.57960414  0.31353637  1
  Se  Se202  1  0.92363950  0.58860351  0.80959289  1
  Se  Se203  1  0.90082161  0.90876365  0.29343131  1
  Se  Se204  1  0.91487772  0.91014026  0.80891769  1
  Se  Se205  1  0.08001594  0.08236735  0.30329625  1
  Se  Se206  1  0.08647507  0.08607099  0.81088365  1
  Se  Se207  1  0.08668326  0.41742801  0.29886432  1
  Se  Se208  1  0.08157007  0.42244488  0.81482065  1
  Se  Se209  1  0.08361804  0.75147335  0.30953003  1
  Se  Se210  1  0.08044353  0.74542269  0.79904571  1
  Se  Se211  1  0.42165428  0.09702363  0.31839329  1
  Se  Se212  1  0.41923787  0.08053870  0.80225388  1
  Se  Se213  1  0.42889847  0.43297264  0.30505104  1
  Se  Se214  1  0.41133965  0.41198565  0.79957499  1
  Se  Se215  1  0.42717519  0.75754303  0.30802220  1
  Se  Se216  1  0.43334880  0.74972220  0.79417023  1
  Se  Se217  1  0.75113623  0.08664222  0.30328160  1
  Se  Se218  1  0.74950881  0.08191927  0.79183997  1
  Se  Se219  1  0.74922160  0.41913248  0.30683732  1
  Se  Se220  1  0.75597788  0.43256942  0.81229840  1
  Se  Se221  1  0.75184098  0.74435251  0.29252154  1
  Se  Se222  1  0.75023614  0.74464056  0.81124064  1
  Se  Se223  1  0.24662560  0.08808208  0.19335808  1
  Se  Se224  1  0.25270832  0.07737431  0.69912504  1
  Se  Se225  1  0.25622106  0.42697980  0.18647233  1
  Se  Se226  1  0.24885401  0.41005310  0.69667178  1
  Se  Se227  1  0.24159955  0.75809695  0.19504197  1
  Se  Se228  1  0.25303179  0.74434698  0.70251049  1
  Se  Se229  1  0.58490682  0.07879458  0.20219798  1
  Se  Se230  1  0.58978511  0.09030960  0.69345041  1
  Se  Se231  1  0.59031239  0.41508388  0.19827079  1
  Se  Se232  1  0.57700079  0.42015200  0.69067493  1
  Se  Se233  1  0.58334278  0.74604462  0.18445105  1
  Se  Se234  1  0.55798156  0.76728449  0.70807682  1
  Se  Se235  1  0.91405187  0.08502510  0.19328574  1
  Se  Se236  1  0.91519451  0.09116307  0.68414563  1
  Se  Se237  1  0.92142941  0.41727504  0.20252859  1
  Se  Se238  1  0.89904717  0.42847752  0.69351109  1
  Se  Se239  1  0.90049518  0.75556138  0.18277174  1
  Se  Se240  1  0.91731983  0.74115175  0.70244423  1
  Se  Se241  1  0.08420780  0.25462137  0.19312046  1
  Se  Se242  1  0.08886316  0.23996750  0.69200429  1
  Se  Se243  1  0.09451267  0.57792758  0.19459912  1
  Se  Se244  1  0.08058164  0.57632457  0.69563052  1
  Se  Se245  1  0.07909648  0.92526026  0.20168023  1
  Se  Se246  1  0.09340773  0.90526348  0.68541253  1
  Se  Se247  1  0.42964903  0.24269708  0.19014127  1
  Se  Se248  1  0.41142704  0.25200933  0.70211200  1
  Se  Se249  1  0.43177874  0.58741096  0.18371230  1
  Se  Se250  1  0.41238175  0.57888256  0.69638963  1
  Se  Se251  1  0.41610780  0.91077649  0.18955898  1
  Se  Se252  1  0.42315582  0.92022068  0.70554890  1
  Se  Se253  1  0.75054830  0.25366246  0.20263856  1
  Se  Se254  1  0.74910729  0.25500002  0.68716862  1
  Se  Se255  1  0.75182242  0.58148387  0.19488892  1
  Se  Se256  1  0.72204188  0.59798243  0.69821010  1
  Se  Se257  1  0.72767120  0.93066917  0.18629599  1
  Se  Se258  1  0.75792100  0.90891020  0.69356585  1
