# generated using pymatgen
data_In86Cu29Se144
_symmetry_space_group_name_H-M   'P 1'
_cell_length_a   17.58207995
_cell_length_b   17.57973869
_cell_length_c   23.44136394
_cell_angle_alpha   89.98617224
_cell_angle_beta   89.99600675
_cell_angle_gamma   89.96355938
_symmetry_Int_Tables_number   1
_chemical_formula_structural   In86Cu29Se144
_chemical_formula_sum   'In86 Cu29 Se144'
_cell_volume   7245.45130554
_cell_formula_units_Z   1
loop_
 _symmetry_equiv_pos_site_id
 _symmetry_equiv_pos_as_xyz
  1  'x, y, z'
loop_
 _atom_site_type_symbol
 _atom_site_label
 _atom_site_symmetry_multiplicity
 _atom_site_fract_x
 _atom_site_fract_y
 _atom_site_fract_z
 _atom_site_occupancy
  In  In0  1  -0.00577040  0.16963510  0.13177703  1
  In  In1  1  -0.00395950  0.15498701  0.62660295  1
  In  In2  1  -0.00253581  0.49108952  0.12226776  1
  In  In3  1  0.00001685  0.50626790  0.61657842  1
  In  In4  1  0.01931985  0.83672218  0.11489951  1
  In  In5  1  0.01036347  0.83696278  0.62870138  1
  In  In6  1  0.33968788  0.15649313  0.12854360  1
  In  In7  1  0.33419308  0.16623334  0.62361766  1
  In  In8  1  0.33631579  0.49993008  0.12507889  1
  In  In9  1  0.34235423  0.49099253  0.63338735  1
  In  In10  1  0.34013479  0.83526643  0.12713545  1
  In  In11  1  0.33656162  0.82647419  0.63338175  1
  In  In12  1  0.66275542  0.17142018  0.11765125  1
  In  In13  1  0.66807161  0.17971785  0.62584843  1
  In  In14  1  0.66940715  0.51548468  0.13394144  1
  In  In15  1  0.65192952  0.48863322  0.61782861  1
  In  In16  1  0.64530965  0.83124740  0.12783457  1
  In  In17  1  0.65832391  0.84615925  0.62570162  1
  In  In18  1  0.17783556  0.01212609  0.36768340  1
  In  In19  1  0.16325575  -0.00868139  0.87265789  1
  In  In20  1  0.16026890  0.32391863  0.36862562  1
  In  In21  1  0.18524367  0.33169109  0.87618403  1
  In  In22  1  0.18018670  0.65589065  0.37221520  1
  In  In23  1  0.17669082  0.65502644  0.89160063  1
  In  In24  1  0.49216282  0.00552210  0.38001409  1
  In  In25  1  0.48993738  0.00911569  0.87962121  1
  In  In26  1  0.49203539  0.33897522  0.37814964  1
  In  In27  1  0.49935992  0.33548389  0.87606995  1
  In  In28  1  0.49402085  0.66636974  0.37562478  1
  In  In29  1  0.48805445  0.67778475  0.88567058  1
  In  In30  1  0.83737135  -0.00009127  0.36475678  1
  In  In31  1  0.86239573  0.00155441  0.87901921  1
  In  In32  1  0.85424767  0.33563285  0.37162383  1
  In  In33  1  0.81568959  0.33389556  0.87339013  1
  In  In34  1  0.81289430  0.66004937  0.36545465  1
  In  In35  1  0.82945085  0.67070283  0.87467612  1
  In  In36  1  0.01752351  0.18686901  0.35878819  1
  In  In37  1  0.00420949  0.14066250  0.88307186  1
  In  In38  1  -0.00279451  0.47512650  0.37222280  1
  In  In39  1  0.00434269  0.51319543  0.88223311  1
  In  In40  1  -0.00562583  0.84083789  0.36787290  1
  In  In41  1  0.00583052  0.85101767  0.88374607  1
  In  In42  1  0.33052526  0.16772323  0.37513834  1
  In  In43  1  0.34585832  0.17379875  0.86769779  1
  In  In44  1  0.34376635  0.50824408  0.36697209  1
  In  In45  1  0.33742627  0.50223182  0.87949122  1
  In  In46  1  0.34766698  0.84597303  0.36068212  1
  In  In47  1  0.33218015  0.83314177  0.87681322  1
  In  In48  1  0.66004023  0.15782353  0.37675815  1
  In  In49  1  0.65727747  0.17378437  0.88178232  1
  In  In50  1  0.65463901  0.50265549  0.38115454  1
  In  In51  1  0.66636242  0.48562412  0.87428014  1
  In  In52  1  0.65853336  0.81927365  0.36832654  1
  In  In53  1  0.66536122  0.82496156  0.87825967  1
  In  In54  1  0.17448880  -0.00409986  0.12632863  1
  In  In55  1  0.16043186  0.00905312  0.63116853  1
  In  In56  1  0.16120558  0.34109305  0.12823768  1
  In  In57  1  0.18512594  0.33842578  0.62515795  1
  In  In58  1  0.17628766  0.68030292  0.11317094  1
  In  In59  1  0.16837199  0.67472090  0.62773314  1
  In  In60  1  0.48529264  -0.01242011  0.11501683  1
  In  In61  1  0.48776496  -0.01016476  0.61761429  1
  In  In62  1  0.48719098  0.32395621  0.12080265  1
  In  In63  1  0.49733504  0.33303328  0.62345556  1
  In  In64  1  0.50119295  0.66706487  0.12922480  1
  In  In65  1  0.49113677  0.65691117  0.61986452  1
  In  In66  1  0.83686985  0.01794107  0.12181762  1
  In  In67  1  0.83987469  0.00931853  0.62979221  1
  In  In68  1  0.84792990  0.33559985  0.13329953  1
  In  In69  1  0.81802245  0.32759002  0.62506425  1
  In  In70  1  0.82747076  0.65178969  0.13279652  1
  In  In71  1  0.84232211  0.66060033  0.62111157  1
  In  In72  1  0.66478259  0.66528171  0.75617389  1
  In  In73  1  0.00356063  0.32858140  0.75214713  1
  In  In74  1  0.16974247  0.16715950  0.00032645  1
  In  In75  1  0.00846010  0.66913024  0.24470704  1
  In  In76  1  0.83200639  0.16953083  0.49698045  1
  In  In77  1  0.83258088  0.83343049  -0.00141676  1
  In  In78  1  0.66133660  -0.00247242  0.24919705  1
  In  In79  1  0.82369849  0.83357171  0.49773156  1
  In  In80  1  0.66844479  0.00544955  0.75030934  1
  In  In81  1  0.67019632  0.33710232  0.25087660  1
  In  In82  1  0.00476161  0.67480542  0.75554323  1
  In  In83  1  0.83185901  0.49469563  0.00834682  1
  In  In84  1  0.16935309  0.49341175  0.49806930  1
  In  In85  1  0.16894562  0.83168594  0.50275526  1
  Cu  Cu86  1  0.33744987  0.33041483  0.49946418  1
  Cu  Cu87  1  0.49911389  0.50105991  0.25232312  1
  Cu  Cu88  1  0.49531835  0.83350781  0.75280255  1
  Cu  Cu89  1  0.33865187  0.66610259  0.50085417  1
  Cu  Cu90  1  0.17458426  0.16458708  0.75285130  1
  Cu  Cu91  1  0.17333171  0.83574065  0.75453579  1
  Cu  Cu92  1  -0.00037536  0.33011783  0.00398143  1
  Cu  Cu93  1  0.82837114  0.49453354  0.74534931  1
  Cu  Cu94  1  0.16793571  0.16654941  0.24493063  1
  Cu  Cu95  1  0.66219235  0.33522905  0.50010568  1
  Cu  Cu96  1  0.33111875  0.00341825  0.49686301  1
  Cu  Cu97  1  0.66380714  0.00260484  0.00169897  1
  Cu  Cu98  1  0.65649407  -0.00152821  0.49804279  1
  Cu  Cu99  1  0.33331920  -0.00300844  0.00020199  1
  Cu  Cu100  1  0.34013467  0.66709176  0.00508896  1
  Cu  Cu101  1  0.83720749  0.16399996  0.75339742  1
  Cu  Cu102  1  0.50014510  0.17147778  0.74941234  1
  Cu  Cu103  1  0.83654920  0.83831257  0.24414492  1
  Cu  Cu104  1  0.17630719  0.50421198  0.75669864  1
  Cu  Cu105  1  0.65960153  0.66511107  0.00459956  1
  Cu  Cu106  1  0.49377088  0.16204357  0.24871203  1
  Cu  Cu107  1  0.49497937  0.49914894  0.74947022  1
  Cu  Cu108  1  0.00466149  0.00467290  0.49910070  1
  Cu  Cu109  1  0.33570228  0.33916614  -0.00097795  1
  Cu  Cu110  1  0.65888083  0.33331231  0.00099056  1
  Cu  Cu111  1  0.17311950  0.83441561  0.24186624  1
  Cu  Cu112  1  0.17305779  0.49656312  0.24667614  1
  Cu  Cu113  1  0.66045441  0.66470939  0.49590340  1
  Cu  Cu114  1  -0.01261762  0.65792915  0.49204102  1
  Se  Se115  1  0.08081388  0.08249006  0.06244960  1
  Se  Se116  1  0.08529562  0.08647379  0.55444140  1
  Se  Se117  1  0.08412252  0.41640864  0.05125812  1
  Se  Se118  1  0.07925620  0.40473608  0.55911531  1
  Se  Se119  1  0.08298843  0.74705470  0.04376400  1
  Se  Se120  1  0.06834165  0.73657708  0.55343123  1
  Se  Se121  1  0.41598640  0.08616216  0.04941795  1
  Se  Se122  1  0.41618234  0.08472022  0.55195956  1
  Se  Se123  1  0.42018579  0.42046469  0.05309351  1
  Se  Se124  1  0.41502319  0.41843907  0.55416044  1
  Se  Se125  1  0.42307412  0.75157088  0.05774421  1
  Se  Se126  1  0.41514328  0.75334186  0.55671462  1
  Se  Se127  1  0.74745177  0.08768657  0.05104989  1
  Se  Se128  1  0.74172391  0.07477960  0.55797852  1
  Se  Se129  1  0.73903859  0.40725620  0.06714425  1
  Se  Se130  1  0.74890860  0.41552651  0.55333918  1
  Se  Se131  1  0.74551262  0.74280713  0.06252878  1
  Se  Se132  1  0.73780245  0.74242662  0.56124657  1
  Se  Se133  1  0.25790557  0.25699635  0.06112268  1
  Se  Se134  1  0.25174826  0.24995102  0.55274265  1
  Se  Se135  1  0.25415131  0.58160561  0.05395100  1
  Se  Se136  1  0.25409115  0.58749151  0.56092925  1
  Se  Se137  1  0.25330965  0.91364853  0.05544009  1
  Se  Se138  1  0.25475876  0.92402088  0.56250470  1
  Se  Se139  1  0.57374268  0.24747937  0.05040551  1
  Se  Se140  1  0.58191760  0.24955266  0.55374188  1
  Se  Se141  1  0.58209867  0.57929797  0.05905534  1
  Se  Se142  1  0.57835847  0.58101352  0.55132232  1
  Se  Se143  1  0.58143312  0.91422132  0.04965967  1
  Se  Se144  1  0.57623410  0.91095341  0.54915006  1
  Se  Se145  1  0.91542785  0.25119074  0.05767908  1
  Se  Se146  1  0.92059981  0.25402638  0.56198376  1
  Se  Se147  1  0.92262264  0.59373601  0.05714065  1
  Se  Se148  1  0.90774921  0.57439989  0.54628170  1
  Se  Se149  1  0.92095443  0.92434140  0.05703682  1
  Se  Se150  1  0.92276497  0.92136478  0.55627959  1
  Se  Se151  1  0.08052487  0.25208390  0.44377210  1
  Se  Se152  1  0.07836531  0.25617635  0.93731396  1
  Se  Se153  1  0.07823518  0.58470553  0.43673974  1
  Se  Se154  1  0.08186261  0.58307731  0.95697913  1
  Se  Se155  1  0.08141419  0.92097756  0.43929025  1
  Se  Se156  1  0.08766482  0.92786387  0.95361379  1
  Se  Se157  1  0.41848256  0.24579300  0.44478212  1
  Se  Se158  1  0.41593442  0.25202543  0.94553257  1
  Se  Se159  1  0.41728572  0.57858216  0.44733733  1
  Se  Se160  1  0.42121850  0.58027301  0.95168857  1
  Se  Se161  1  0.41201409  0.91465014  0.44602796  1
  Se  Se162  1  0.41851899  0.91451635  0.94580981  1
  Se  Se163  1  0.74179880  0.25916388  0.43607903  1
  Se  Se164  1  0.74717659  0.25277517  0.94951076  1
  Se  Se165  1  0.74799997  0.58321624  0.44580850  1
  Se  Se166  1  0.74274927  0.58680399  0.94364433  1
  Se  Se167  1  0.73894364  0.92514746  0.43425736  1
  Se  Se168  1  0.74508449  0.92729413  0.93726717  1
  Se  Se169  1  0.24589693  0.08766035  0.44726736  1
  Se  Se170  1  0.25954599  0.08155855  0.93706503  1
  Se  Se171  1  0.25983983  0.41002234  0.43472521  1
  Se  Se172  1  0.24882032  0.42173758  0.94864745  1
  Se  Se173  1  0.25891097  0.74587527  0.44071195  1
  Se  Se174  1  0.25639096  0.75112534  0.95082239  1
  Se  Se175  1  0.57559607  0.08776792  0.44968264  1
  Se  Se176  1  0.57847518  0.08512068  0.94784860  1
  Se  Se177  1  0.57490992  0.41759433  0.44919497  1
  Se  Se178  1  0.57970169  0.41990849  0.94792846  1
  Se  Se179  1  0.57836862  0.75059146  0.44501409  1
  Se  Se180  1  0.58248732  0.75334888  0.95103150  1
  Se  Se181  1  0.92035165  0.07795587  0.43801591  1
  Se  Se182  1  0.90773499  0.09383280  0.95712998  1
  Se  Se183  1  0.92100264  0.41056366  0.45190068  1
  Se  Se184  1  0.91922485  0.40913616  0.93952610  1
  Se  Se185  1  0.91432649  0.74635898  0.43446100  1
  Se  Se186  1  0.92484152  0.74228769  0.94068068  1
  Se  Se187  1  0.25088736  0.24820544  0.30177805  1
  Se  Se188  1  0.25671417  0.25334072  0.80030374  1
  Se  Se189  1  0.25585752  0.58345344  0.29584079  1
  Se  Se190  1  0.25438171  0.58937701  0.81124158  1
  Se  Se191  1  0.25005267  0.92001179  0.29972400  1
  Se  Se192  1  0.25751724  0.92100681  0.80514053  1
  Se  Se193  1  0.57605006  0.24328426  0.30682446  1
  Se  Se194  1  0.58291816  0.25186484  0.80567897  1
  Se  Se195  1  0.58101408  0.58392084  0.30687134  1
  Se  Se196  1  0.57226256  0.57780731  0.81471267  1
  Se  Se197  1  0.56970856  0.91063638  0.30800841  1
  Se  Se198  1  0.57975557  0.91265290  0.81002822  1
  Se  Se199  1  0.90978576  0.24385763  0.29789139  1
  Se  Se200  1  0.91539961  0.24368508  0.81665032  1
  Se  Se201  1  0.92436378  0.58474829  0.31247643  1
  Se  Se202  1  0.90712144  0.57475086  0.80539987  1
  Se  Se203  1  0.92094088  0.92186639  0.29410563  1
  Se  Se204  1  0.91879668  0.90856913  0.80679477  1
  Se  Se205  1  0.08417431  0.08153354  0.29905930  1
  Se  Se206  1  0.08749535  0.08242676  0.80345653  1
  Se  Se207  1  0.08673739  0.41417786  0.29776666  1
  Se  Se208  1  0.08897016  0.42519553  0.81234768  1
  Se  Se209  1  0.09759325  0.75806552  0.30983153  1
  Se  Se210  1  0.09580117  0.75649683  0.81850738  1
  Se  Se211  1  0.41233091  0.08129349  0.30592325  1
  Se  Se212  1  0.41926310  0.08189007  0.79911675  1
  Se  Se213  1  0.41586355  0.41224777  0.30070065  1
  Se  Se214  1  0.41412648  0.41702740  0.80745352  1
  Se  Se215  1  0.40098998  0.73268448  0.30513620  1
  Se  Se216  1  0.41437364  0.74841100  0.80614296  1
  Se  Se217  1  0.75323321  0.09422375  0.30263372  1
  Se  Se218  1  0.75625463  0.08768481  0.81683319  1
  Se  Se219  1  0.75379663  0.42347853  0.31593013  1
  Se  Se220  1  0.74307332  0.41284841  0.79695259  1
  Se  Se221  1  0.75129119  0.75623835  0.29586478  1
  Se  Se222  1  0.76118386  0.76361047  0.80264847  1
  Se  Se223  1  0.25282078  0.07945966  0.19717483  1
  Se  Se224  1  0.25553886  0.08196030  0.69579418  1
  Se  Se225  1  0.25662761  0.41218908  0.19427716  1
  Se  Se226  1  0.25371243  0.41615826  0.70312456  1
  Se  Se227  1  0.25422650  0.74704859  0.19234855  1
  Se  Se228  1  0.24990722  0.74606602  0.70144319  1
  Se  Se229  1  0.57456716  0.08690682  0.18626973  1
  Se  Se230  1  0.57617357  0.08810720  0.68683118  1
  Se  Se231  1  0.57407473  0.41837904  0.18917448  1
  Se  Se232  1  0.57869704  0.41558633  0.69617080  1
  Se  Se233  1  0.59110380  0.73831079  0.20052396  1
  Se  Se234  1  0.57667695  0.75429096  0.69251587  1
  Se  Se235  1  0.91624860  0.08175361  0.19958728  1
  Se  Se236  1  0.92259301  0.07950323  0.70455647  1
  Se  Se237  1  0.90969560  0.43493476  0.19882416  1
  Se  Se238  1  0.91610759  0.41970465  0.68858400  1
  Se  Se239  1  0.91614823  0.75767419  0.18342627  1
  Se  Se240  1  0.91076896  0.75659031  0.69062972  1
  Se  Se241  1  0.08304819  0.25278722  0.19543980  1
  Se  Se242  1  0.09394255  0.24300122  0.68962690  1
  Se  Se243  1  0.09568264  0.57872365  0.18382440  1
  Se  Se244  1  0.08957246  0.57569508  0.69446588  1
  Se  Se245  1  0.08426646  0.91636002  0.19395034  1
  Se  Se246  1  0.08677314  0.91646244  0.70024885  1
  Se  Se247  1  0.41146380  0.24929560  0.19782270  1
  Se  Se248  1  0.41509842  0.25139084  0.69335192  1
  Se  Se249  1  0.41623003  0.58251143  0.19619303  1
  Se  Se250  1  0.41395002  0.58788185  0.69897912  1
  Se  Se251  1  0.41925485  0.91960840  0.19697381  1
  Se  Se252  1  0.41527037  0.91892903  0.69813766  1
  Se  Se253  1  0.75390175  0.24266938  0.19100429  1
  Se  Se254  1  0.75096409  0.24684929  0.70274011  1
  Se  Se255  1  0.75660450  0.57637474  0.20912904  1
  Se  Se256  1  0.74953064  0.57847289  0.68753234  1
  Se  Se257  1  0.75266391  0.91409578  0.18320382  1
  Se  Se258  1  0.75957963  0.91137185  0.69233046  1
