# generated using pymatgen
data_In86Cu29Se144
_symmetry_space_group_name_H-M   'P 1'
_cell_length_a   17.60493050
_cell_length_b   17.60363485
_cell_length_c   23.46515694
_cell_angle_alpha   89.99988574
_cell_angle_beta   90.00674809
_cell_angle_gamma   89.99102179
_symmetry_Int_Tables_number   1
_chemical_formula_structural   In86Cu29Se144
_chemical_formula_sum   'In86 Cu29 Se144'
_cell_volume   7272.10466915
_cell_formula_units_Z   1
loop_
 _symmetry_equiv_pos_site_id
 _symmetry_equiv_pos_as_xyz
  1  'x, y, z'
loop_
 _atom_site_type_symbol
 _atom_site_label
 _atom_site_symmetry_multiplicity
 _atom_site_fract_x
 _atom_site_fract_y
 _atom_site_fract_z
 _atom_site_occupancy
  In  In0  1  -0.01972760  0.15401735  0.10653105  1
  In  In1  1  -0.00287572  0.15780465  0.63336998  1
  In  In2  1  -0.00364590  0.50794092  0.11637761  1
  In  In3  1  -0.00153111  0.48313133  0.62883856  1
  In  In4  1  0.00715142  0.83659001  0.12222352  1
  In  In5  1  0.01607655  0.84772337  0.61765445  1
  In  In6  1  0.32235716  0.15229369  0.11400230  1
  In  In7  1  0.31880170  0.15712050  0.62328134  1
  In  In8  1  0.33443958  0.48818997  0.12117553  1
  In  In9  1  0.33657893  0.49671636  0.62066474  1
  In  In10  1  0.34709306  0.84418770  0.11336622  1
  In  In11  1  0.32861439  0.84751299  0.62484915  1
  In  In12  1  0.66173300  0.16042352  0.11396279  1
  In  In13  1  0.69667875  0.15592606  0.65687775  1
  In  In14  1  0.66628909  0.49637246  0.11648053  1
  In  In15  1  0.67829820  0.50125714  0.63706771  1
  In  In16  1  0.66831538  0.85383006  0.11911418  1
  In  In17  1  0.66862155  0.82147307  0.62946549  1
  In  In18  1  0.16363032  0.00301512  0.37617216  1
  In  In19  1  0.16666663  0.00434244  0.87861231  1
  In  In20  1  0.16582930  0.32916157  0.38959665  1
  In  In21  1  0.14512499  0.31550780  0.86382495  1
  In  In22  1  0.16167385  0.67400419  0.38735347  1
  In  In23  1  0.18010571  0.66880053  0.87785584  1
  In  In24  1  0.49841605  -0.00334740  0.36706818  1
  In  In25  1  0.50050019  -0.00016713  0.87395953  1
  In  In26  1  0.51373154  0.33503322  0.38353095  1
  In  In27  1  0.51027257  0.32581906  0.87925187  1
  In  In28  1  0.49125579  0.66464806  0.37512204  1
  In  In29  1  0.50901941  0.65900251  0.88860725  1
  In  In30  1  0.83578653  0.00106378  0.37945204  1
  In  In31  1  0.85629384  0.02633963  0.85099031  1
  In  In32  1  0.82079738  0.32417697  0.37806528  1
  In  In33  1  0.83709794  0.32853263  0.87099108  1
  In  In34  1  0.84744551  0.67453277  0.37324254  1
  In  In35  1  0.81557164  0.66842780  0.86829988  1
  In  In36  1  0.01045464  0.15129954  0.38564432  1
  In  In37  1  -0.00098888  0.16927324  0.87406505  1
  In  In38  1  0.00070920  0.50917448  0.38171551  1
  In  In39  1  -0.00639527  0.47560757  0.86546503  1
  In  In40  1  -0.01624398  0.85503203  0.39298728  1
  In  In41  1  0.00259271  0.85183060  0.87489043  1
  In  In42  1  0.32953790  0.15320351  0.37163661  1
  In  In43  1  0.33716804  0.16130440  0.87648124  1
  In  In44  1  0.33765848  0.49690165  0.38505746  1
  In  In45  1  0.34200642  0.50341449  0.88039949  1
  In  In46  1  0.32362812  0.83867471  0.37731014  1
  In  In47  1  0.32217711  0.83883668  0.88990829  1
  In  In48  1  0.67928185  0.16194572  0.38218483  1
  In  In49  1  0.66821111  0.16700898  0.86638981  1
  In  In50  1  0.66582270  0.48271148  0.38303790  1
  In  In51  1  0.67389806  0.49243201  0.87100945  1
  In  In52  1  0.66815130  0.85032016  0.37627885  1
  In  In53  1  0.66398422  0.83575366  0.87001955  1
  In  In54  1  0.16485998  0.00197477  0.12535113  1
  In  In55  1  0.16613007  0.00458418  0.62859262  1
  In  In56  1  0.17243162  0.33103420  0.12265767  1
  In  In57  1  0.14937304  0.31622337  0.61595808  1
  In  In58  1  0.15534969  0.67271908  0.11955371  1
  In  In59  1  0.17552219  0.67243916  0.61834580  1
  In  In60  1  0.50466008  0.00260086  0.11742011  1
  In  In61  1  0.49514774  0.00325773  0.63065166  1
  In  In62  1  0.50379991  0.33432093  0.10760229  1
  In  In63  1  0.50551523  0.33984763  0.62703104  1
  In  In64  1  0.49547871  0.66527869  0.11288124  1
  In  In65  1  0.51900767  0.65943822  0.62599745  1
  In  In66  1  0.82147832  0.00377549  0.13137505  1
  In  In67  1  0.83379285  0.00053486  0.62424277  1
  In  In68  1  0.82438343  0.31740936  0.10565116  1
  In  In69  1  0.88159119  0.29863311  0.68820048  1
  In  In70  1  0.84603179  0.66556312  0.11644178  1
  In  In71  1  0.81912769  0.66548166  0.62879994  1
  In  In72  1  -0.00289476  0.32998985  0.24498387  1
  In  In73  1  0.33836224  0.67178088  0.76193099  1
  In  In74  1  0.83119718  0.49467302  0.50959701  1
  In  In75  1  0.50175606  0.82803406  0.49743816  1
  In  In76  1  0.32977948  0.67562043  0.24777703  1
  In  In77  1  0.00056172  0.68475803  0.24614743  1
  In  In78  1  0.66300985  0.67308273  0.25540116  1
  In  In79  1  0.82636034  0.83840594  -0.00811994  1
  In  In80  1  0.33675247  0.32083977  0.24298958  1
  In  In81  1  0.49808335  0.17636417  0.50938793  1
  In  In82  1  -0.00203353  0.66982323  0.74918378  1
  In  In83  1  0.32781807  0.32752076  0.75394368  1
  In  In84  1  0.66589536  0.32282043  0.25348287  1
  In  In85  1  0.16732081  0.49730752  -0.00865383  1
  Cu  Cu86  1  0.34201236  0.65995608  0.50162792  1
  Cu  Cu87  1  0.16740657  0.84565857  0.25117252  1
  Cu  Cu88  1  0.16369617  0.50522482  0.26107759  1
  Cu  Cu89  1  0.33238563  0.33667436  0.50677576  1
  Cu  Cu90  1  -0.00955028  0.32740148  0.51279851  1
  Cu  Cu91  1  0.66412381  0.66006545  -0.00568037  1
  Cu  Cu92  1  0.67017795  0.32833680  0.51409338  1
  Cu  Cu93  1  0.00149453  0.00388098  -0.00515669  1
  Cu  Cu94  1  -0.00162195  0.66239037  -0.00784730  1
  Cu  Cu95  1  -0.00074775  0.00860848  0.50408389  1
  Cu  Cu96  1  0.16454040  0.49282363  0.74297835  1
  Cu  Cu97  1  0.16147237  0.15911054  0.24922300  1
  Cu  Cu98  1  0.67355294  0.00586775  -0.01023340  1
  Cu  Cu99  1  0.33471416  0.33280405  -0.00577194  1
  Cu  Cu100  1  0.83721878  0.15847746  0.25274341  1
  Cu  Cu101  1  0.66938968  0.00635948  0.50595432  1
  Cu  Cu102  1  0.49763559  0.83590450  0.75333024  1
  Cu  Cu103  1  0.49398012  0.16250101  0.75072382  1
  Cu  Cu104  1  0.50551408  0.50888694  0.75543429  1
  Cu  Cu105  1  0.00397750  0.66836023  0.50310435  1
  Cu  Cu106  1  0.49750042  0.49456041  0.24909477  1
  Cu  Cu107  1  0.83306310  0.83696476  0.74486335  1
  Cu  Cu108  1  0.33353323  0.00514940  -0.00143727  1
  Cu  Cu109  1  0.16843414  0.84504592  0.75387297  1
  Cu  Cu110  1  0.67403079  0.66082005  0.50398947  1
  Cu  Cu111  1  0.50480919  0.84335113  0.24079494  1
  Cu  Cu112  1  0.83642113  0.50148480  0.23825112  1
  Cu  Cu113  1  0.50013583  0.15618784  0.24191901  1
  Cu  Cu114  1  0.66945782  0.33751529  -0.01123100  1
  Se  Se115  1  0.08671390  0.08356910  0.05135471  1
  Se  Se116  1  0.08324983  0.08911753  0.55895046  1
  Se  Se117  1  0.08018044  0.41218396  0.05632303  1
  Se  Se118  1  0.08115576  0.41776086  0.55199428  1
  Se  Se119  1  0.07492444  0.74935240  0.04748272  1
  Se  Se120  1  0.08978941  0.75328135  0.55206998  1
  Se  Se121  1  0.42271463  0.08783408  0.04905557  1
  Se  Se122  1  0.40775643  0.07446770  0.55366767  1
  Se  Se123  1  0.41621369  0.42023062  0.04540588  1
  Se  Se124  1  0.42334945  0.41626832  0.55421452  1
  Se  Se125  1  0.40821984  0.74305689  0.04860701  1
  Se  Se126  1  0.41666124  0.74143195  0.56511292  1
  Se  Se127  1  0.75599626  0.08233675  0.05097938  1
  Se  Se128  1  0.74562426  0.09189096  0.56310902  1
  Se  Se129  1  0.75015304  0.41830490  0.04772962  1
  Se  Se130  1  0.75471150  0.40315648  0.57325377  1
  Se  Se131  1  0.74219933  0.74395136  0.05624359  1
  Se  Se132  1  0.75199921  0.75119720  0.55331401  1
  Se  Se133  1  0.25261373  0.25306239  0.05140677  1
  Se  Se134  1  0.24914349  0.24685164  0.55235537  1
  Se  Se135  1  0.24838727  0.58319965  0.06114434  1
  Se  Se136  1  0.25432010  0.58143758  0.55431258  1
  Se  Se137  1  0.25022104  0.92263729  0.05449194  1
  Se  Se138  1  0.23858763  0.91439005  0.55702451  1
  Se  Se139  1  0.58983599  0.25110952  0.04463701  1
  Se  Se140  1  0.59837620  0.24167396  0.57506450  1
  Se  Se141  1  0.58115046  0.57843629  0.05059964  1
  Se  Se142  1  0.59685535  0.57452967  0.55783550  1
  Se  Se143  1  0.58801382  0.92338751  0.04414762  1
  Se  Se144  1  0.58649421  0.92134217  0.56036896  1
  Se  Se145  1  0.93051773  0.26264442  0.04380073  1
  Se  Se146  1  0.91100990  0.26015689  0.58052444  1
  Se  Se147  1  0.91288428  0.57930403  0.04249200  1
  Se  Se148  1  0.92312116  0.59007146  0.56419432  1
  Se  Se149  1  0.91808249  0.92268631  0.05509642  1
  Se  Se150  1  0.91786792  0.91966880  0.55413485  1
  Se  Se151  1  0.07419683  0.25094733  0.45272126  1
  Se  Se152  1  0.07848836  0.25054493  0.94661646  1
  Se  Se153  1  0.08592206  0.58102000  0.45261328  1
  Se  Se154  1  0.07429361  0.58308451  0.92931132  1
  Se  Se155  1  0.08586853  0.92322108  0.45234281  1
  Se  Se156  1  0.08787390  0.91630238  0.95008118  1
  Se  Se157  1  0.40787624  0.25798349  0.43966166  1
  Se  Se158  1  0.41885000  0.24768096  0.94358482  1
  Se  Se159  1  0.42771155  0.57772019  0.44968416  1
  Se  Se160  1  0.40313927  0.59624747  0.94946712  1
  Se  Se161  1  0.41223439  0.92466216  0.44412423  1
  Se  Se162  1  0.41867429  0.92097762  0.94766574  1
  Se  Se163  1  0.74977219  0.24790420  0.45530854  1
  Se  Se164  1  0.74930031  0.24725784  0.93918502  1
  Se  Se165  1  0.75235829  0.58555014  0.43660122  1
  Se  Se166  1  0.75122323  0.58059475  0.94235789  1
  Se  Se167  1  0.74959364  0.92068089  0.45087770  1
  Se  Se168  1  0.75517791  0.93408754  0.92570152  1
  Se  Se169  1  0.23702438  0.09697405  0.44265449  1
  Se  Se170  1  0.24855829  0.08884165  0.94760638  1
  Se  Se171  1  0.24902290  0.41938043  0.45124554  1
  Se  Se172  1  0.25081619  0.40267287  0.92990605  1
  Se  Se173  1  0.26054587  0.74637636  0.44893812  1
  Se  Se174  1  0.24715072  0.74528607  0.95451871  1
  Se  Se175  1  0.58201064  0.07868983  0.44487458  1
  Se  Se176  1  0.58553488  0.08690162  0.93869956  1
  Se  Se177  1  0.58765016  0.41200709  0.45979717  1
  Se  Se178  1  0.58151485  0.42326657  0.94314668  1
  Se  Se179  1  0.59628643  0.73811029  0.43827000  1
  Se  Se180  1  0.58977627  0.75702684  0.94687310  1
  Se  Se181  1  0.90962750  0.08875226  0.45168824  1
  Se  Se182  1  0.91315098  0.08454532  0.94324448  1
  Se  Se183  1  0.91978734  0.40606238  0.44176055  1
  Se  Se184  1  0.91537484  0.41113624  0.94306117  1
  Se  Se185  1  0.91561379  0.74912490  0.45236599  1
  Se  Se186  1  0.91972564  0.74667286  0.93271578  1
  Se  Se187  1  0.23654702  0.24790476  0.30665858  1
  Se  Se188  1  0.23868238  0.22944675  0.80273385  1
  Se  Se189  1  0.24894644  0.58362333  0.31547230  1
  Se  Se190  1  0.24319292  0.56853575  0.80567143  1
  Se  Se191  1  0.25247535  0.92416217  0.30588867  1
  Se  Se192  1  0.25355951  0.91843567  0.81216642  1
  Se  Se193  1  0.57253567  0.23289662  0.31133183  1
  Se  Se194  1  0.57731266  0.24950601  0.79990083  1
  Se  Se195  1  0.57861646  0.56834937  0.31166191  1
  Se  Se196  1  0.58730417  0.58706835  0.81223783  1
  Se  Se197  1  0.58752277  0.92016406  0.29977702  1
  Se  Se198  1  0.58341539  0.92100193  0.80186283  1
  Se  Se199  1  0.91274613  0.24283097  0.31226598  1
  Se  Se200  1  0.91864304  0.24842775  0.79889761  1
  Se  Se201  1  0.91555909  0.57725122  0.30046987  1
  Se  Se202  1  0.91098546  0.58023390  0.80870765  1
  Se  Se203  1  0.91777299  0.91837264  0.30990033  1
  Se  Se204  1  0.92187249  0.91496898  0.79640385  1
  Se  Se205  1  0.07699800  0.07941084  0.30380233  1
  Se  Se206  1  0.06481813  0.06472716  0.81278921  1
  Se  Se207  1  0.08404861  0.41855691  0.31312443  1
  Se  Se208  1  0.08035614  0.40782620  0.79190500  1
  Se  Se209  1  0.09181790  0.76275396  0.31235612  1
  Se  Se210  1  0.09239427  0.75587889  0.81036821  1
  Se  Se211  1  0.41496821  0.08128098  0.30015510  1
  Se  Se212  1  0.41288393  0.07908673  0.80412837  1
  Se  Se213  1  0.42206465  0.41238682  0.30968761  1
  Se  Se214  1  0.42215301  0.42148727  0.80777966  1
  Se  Se215  1  0.42669555  0.76446213  0.30505491  1
  Se  Se216  1  0.42588386  0.76032385  0.82104993  1
  Se  Se217  1  0.74968968  0.08119714  0.30772779  1
  Se  Se218  1  0.74301418  0.08155864  0.79489703  1
  Se  Se219  1  0.75954484  0.42453783  0.30335415  1
  Se  Se220  1  0.73909829  0.39535664  0.80186172  1
  Se  Se221  1  0.75878224  0.76074267  0.30942082  1
  Se  Se222  1  0.74693158  0.75662919  0.79754109  1
  Se  Se223  1  0.25095824  0.08304146  0.19536230  1
  Se  Se224  1  0.25773995  0.07405249  0.69924655  1
  Se  Se225  1  0.24171307  0.42496507  0.19882265  1
  Se  Se226  1  0.24475925  0.41257460  0.68486019  1
  Se  Se227  1  0.23951340  0.76186973  0.18656786  1
  Se  Se228  1  0.24688409  0.75638915  0.69845245  1
  Se  Se229  1  0.59048666  0.08003146  0.18987106  1
  Se  Se230  1  0.58081975  0.08093032  0.69936979  1
  Se  Se231  1  0.57798027  0.41496523  0.19073282  1
  Se  Se232  1  0.58022810  0.42332381  0.69855380  1
  Se  Se233  1  0.57713690  0.75303091  0.18529718  1
  Se  Se234  1  0.57847897  0.74970085  0.70024128  1
  Se  Se235  1  0.91885697  0.08385867  0.19196655  1
  Se  Se236  1  0.89725636  0.09065274  0.69823865  1
  Se  Se237  1  0.90797873  0.41557935  0.17991711  1
  Se  Se238  1  0.90161158  0.44481913  0.70284228  1
  Se  Se239  1  0.90195852  0.76614801  0.18808701  1
  Se  Se240  1  0.91675754  0.76026712  0.68411561  1
  Se  Se241  1  0.08726635  0.24071266  0.18629217  1
  Se  Se242  1  0.07986700  0.25061326  0.69733809  1
  Se  Se243  1  0.08664772  0.57779181  0.19462549  1
  Se  Se244  1  0.09251698  0.58401343  0.68772161  1
  Se  Se245  1  0.07947820  0.92057369  0.19503744  1
  Se  Se246  1  0.08158241  0.92178702  0.69901129  1
  Se  Se247  1  0.42904092  0.24008180  0.17966523  1
  Se  Se248  1  0.41773846  0.24420677  0.68804391  1
  Se  Se249  1  0.41829573  0.57602871  0.19194500  1
  Se  Se250  1  0.41954794  0.58163462  0.69482856  1
  Se  Se251  1  0.41826151  0.92369787  0.18890705  1
  Se  Se252  1  0.41470971  0.91571346  0.69763158  1
  Se  Se253  1  0.75809899  0.23940910  0.19109174  1
  Se  Se254  1  0.73338232  0.28253192  0.70778604  1
  Se  Se255  1  0.75122344  0.58476586  0.18748703  1
  Se  Se256  1  0.74364630  0.59716747  0.70587612  1
  Se  Se257  1  0.74857162  0.91213877  0.19775537  1
  Se  Se258  1  0.74646841  0.91596434  0.69105349  1
