# generated using pymatgen
data_In86Cu29Se144
_symmetry_space_group_name_H-M   'P 1'
_cell_length_a   17.58249951
_cell_length_b   17.57992262
_cell_length_c   23.44196202
_cell_angle_alpha   89.99758842
_cell_angle_beta   89.99086095
_cell_angle_gamma   90.02937098
_symmetry_Int_Tables_number   1
_chemical_formula_structural   In86Cu29Se144
_chemical_formula_sum   'In86 Cu29 Se144'
_cell_volume   7245.88551930
_cell_formula_units_Z   1
loop_
 _symmetry_equiv_pos_site_id
 _symmetry_equiv_pos_as_xyz
  1  'x, y, z'
loop_
 _atom_site_type_symbol
 _atom_site_label
 _atom_site_symmetry_multiplicity
 _atom_site_fract_x
 _atom_site_fract_y
 _atom_site_fract_z
 _atom_site_occupancy
  In  In0  1  0.00354123  0.16491775  0.11250403  1
  In  In1  1  0.01718166  0.15585086  0.64717325  1
  In  In2  1  -0.00326025  0.52540605  0.11806444  1
  In  In3  1  -0.02263776  0.51623531  0.64221256  1
  In  In4  1  0.00460556  0.81613221  0.11888906  1
  In  In5  1  -0.00651102  0.83442869  0.63063916  1
  In  In6  1  0.31908606  0.17076347  0.11665845  1
  In  In7  1  0.32497972  0.15961611  0.62673625  1
  In  In8  1  0.34880098  0.50085707  0.12119703  1
  In  In9  1  0.34863072  0.49735373  0.61833145  1
  In  In10  1  0.33505634  0.82990309  0.12550269  1
  In  In11  1  0.34230818  0.82926596  0.62428727  1
  In  In12  1  0.67620264  0.16195584  0.12646841  1
  In  In13  1  0.65755959  0.15502346  0.62717815  1
  In  In14  1  0.67054058  0.50554129  0.12919195  1
  In  In15  1  0.67984830  0.51103877  0.61169517  1
  In  In16  1  0.65934048  0.84094567  0.13220858  1
  In  In17  1  0.66535187  0.82793357  0.62551710  1
  In  In18  1  0.17374077  -0.01779617  0.37301707  1
  In  In19  1  0.16597698  -0.00375066  0.86948584  1
  In  In20  1  0.16685363  0.33877035  0.37176793  1
  In  In21  1  0.15444125  0.33393376  0.87479482  1
  In  In22  1  0.17005439  0.67573850  0.35824800  1
  In  In23  1  0.16130243  0.68120128  0.87879266  1
  In  In24  1  0.49067532  -0.00850480  0.36756291  1
  In  In25  1  0.48790461  -0.01278235  0.86874879  1
  In  In26  1  0.51001710  0.32742430  0.37178720  1
  In  In27  1  0.51021437  0.34267782  0.87881449  1
  In  In28  1  0.50177468  0.66784045  0.37450303  1
  In  In29  1  0.50484011  0.66461498  0.88446710  1
  In  In30  1  0.81884730  -0.00056792  0.37608282  1
  In  In31  1  0.84407865  0.00621651  0.86812522  1
  In  In32  1  0.83144055  0.35127289  0.37827049  1
  In  In33  1  0.84242659  0.32440611  0.88527153  1
  In  In34  1  0.82830492  0.67121483  0.37579338  1
  In  In35  1  0.82860395  0.66520320  0.87240390  1
  In  In36  1  0.00733610  0.16729691  0.37637919  1
  In  In37  1  0.00334380  0.16269914  0.87522905  1
  In  In38  1  -0.01860363  0.51717272  0.38646036  1
  In  In39  1  -0.00923497  0.49671479  0.87191331  1
  In  In40  1  -0.00456336  0.80543758  0.37426964  1
  In  In41  1  0.01032117  0.83838805  0.86277092  1
  In  In42  1  0.34726553  0.15879054  0.37028555  1
  In  In43  1  0.33349053  0.15161190  0.87444895  1
  In  In44  1  0.32704434  0.51576278  0.37353388  1
  In  In45  1  0.34166363  0.50937684  0.88156457  1
  In  In46  1  0.33707165  0.84175351  0.36596579  1
  In  In47  1  0.32105929  0.84540686  0.88767699  1
  In  In48  1  0.65381940  0.15933322  0.36299431  1
  In  In49  1  0.67948607  0.16883162  0.87840078  1
  In  In50  1  0.66659530  0.50291504  0.37145802  1
  In  In51  1  0.66297828  0.51114222  0.88396930  1
  In  In52  1  0.66489157  0.83181074  0.37523232  1
  In  In53  1  0.66190476  0.82289786  0.87256137  1
  In  In54  1  0.17517433  0.00323636  0.11620984  1
  In  In55  1  0.16968642  -0.01201932  0.64957412  1
  In  In56  1  0.17799957  0.32426642  0.11422103  1
  In  In57  1  0.16580006  0.32543237  0.62975558  1
  In  In58  1  0.15492367  0.68527958  0.13890600  1
  In  In59  1  0.15542114  0.66574739  0.63098158  1
  In  In60  1  0.50808780  -0.01088868  0.12693242  1
  In  In61  1  0.50890184  -0.01249631  0.63375754  1
  In  In62  1  0.50279756  0.35902962  0.12158709  1
  In  In63  1  0.49504798  0.34937134  0.62169233  1
  In  In64  1  0.50252257  0.66958612  0.12845129  1
  In  In65  1  0.51050980  0.67691199  0.61396262  1
  In  In66  1  0.82209498  -0.00373920  0.12135395  1
  In  In67  1  0.84174458  -0.01233399  0.63507781  1
  In  In68  1  0.82983644  0.33101396  0.12132222  1
  In  In69  1  0.83616639  0.34500284  0.62386169  1
  In  In70  1  0.84204079  0.66032615  0.13032340  1
  In  In71  1  0.83148927  0.66096230  0.62176227  1
  In  In72  1  0.17013926  0.49927404  0.00011189  1
  In  In73  1  0.50235312  0.17027920  0.49689180  1
  In  In74  1  0.83544320  0.83372219  -0.00326998  1
  In  In75  1  0.16334498  0.83269081  0.50634744  1
  In  In76  1  0.49894640  0.16885976  -0.00216167  1
  In  In77  1  0.16803571  0.16383146  0.51640001  1
  In  In78  1  -0.00500380  -0.00680901  0.23916290  1
  In  In79  1  0.83295509  0.17322689  0.50515020  1
  In  In80  1  0.33763325  0.33072144  0.24345453  1
  In  In81  1  0.16715595  0.50291618  0.50023394  1
  In  In82  1  -0.00412758  0.33673625  0.25016678  1
  In  In83  1  0.32717334  0.67408407  0.75213041  1
  In  In84  1  0.33330286  0.33076764  0.74910609  1
  In  In85  1  0.67221526  0.33136620  0.74925684  1
  Cu  Cu86  1  0.66775248  0.00216547  0.00178229  1
  Cu  Cu87  1  0.82998790  0.83255579  0.25041227  1
  Cu  Cu88  1  0.33971364  0.66629997  0.00606302  1
  Cu  Cu89  1  0.82398020  0.82441263  0.74827199  1
  Cu  Cu90  1  0.66531745  0.66403740  0.49478311  1
  Cu  Cu91  1  0.49866260  0.82894623  0.75040414  1
  Cu  Cu92  1  0.83186906  0.50709050  0.25333147  1
  Cu  Cu93  1  -0.00823909  -0.00847827  0.50650821  1
  Cu  Cu94  1  0.50500435  0.50343423  0.25020173  1
  Cu  Cu95  1  0.16770528  0.15810485  0.24297702  1
  Cu  Cu96  1  0.00329807  0.33737418  0.51027438  1
  Cu  Cu97  1  0.15934341  0.49842904  0.75251564  1
  Cu  Cu98  1  0.66650870  0.66875478  0.00519982  1
  Cu  Cu99  1  0.66915649  0.33890830  0.49289530  1
  Cu  Cu100  1  0.33356500  -0.00814658  -0.00261372  1
  Cu  Cu101  1  0.00487517  -0.00024101  -0.00999993  1
  Cu  Cu102  1  0.83471092  0.16480667  0.75711217  1
  Cu  Cu103  1  0.50118899  0.83088963  0.25089760  1
  Cu  Cu104  1  0.82386555  0.17095066  0.24894693  1
  Cu  Cu105  1  0.66821543  0.34307576  0.00216661  1
  Cu  Cu106  1  0.50283301  0.16190467  0.24201113  1
  Cu  Cu107  1  0.66653602  -0.01336594  0.50222428  1
  Cu  Cu108  1  0.33767762  0.67144604  0.49661514  1
  Cu  Cu109  1  -0.00576132  0.33656710  -0.00331336  1
  Cu  Cu110  1  0.82784633  0.49926280  0.75159798  1
  Cu  Cu111  1  0.49901694  0.15675578  0.75141064  1
  Cu  Cu112  1  0.50888272  0.51207391  0.75019681  1
  Cu  Cu113  1  0.16123430  0.50366090  0.24681331  1
  Cu  Cu114  1  0.33736002  0.00053960  0.49626454  1
  Se  Se115  1  0.08768738  0.08159956  0.04775828  1
  Se  Se116  1  0.07831585  0.06440871  0.56675166  1
  Se  Se117  1  0.07380928  0.41244944  0.06228085  1
  Se  Se118  1  0.08087893  0.42080872  0.56840065  1
  Se  Se119  1  0.08873402  0.74044434  0.04992979  1
  Se  Se120  1  0.06938310  0.73948866  0.55751500  1
  Se  Se121  1  0.41333662  0.07470207  0.05839772  1
  Se  Se122  1  0.41681462  0.07811627  0.55958065  1
  Se  Se123  1  0.39858312  0.39840761  0.05196435  1
  Se  Se124  1  0.42251942  0.42055459  0.54422399  1
  Se  Se125  1  0.42417278  0.75229654  0.05622951  1
  Se  Se126  1  0.41992273  0.75669858  0.54854144  1
  Se  Se127  1  0.75382391  0.08637606  0.04972395  1
  Se  Se128  1  0.74577838  0.07293496  0.55929697  1
  Se  Se129  1  0.75226510  0.42401222  0.05724001  1
  Se  Se130  1  0.75603846  0.41557175  0.54800508  1
  Se  Se131  1  0.74722966  0.75123803  0.06393093  1
  Se  Se132  1  0.74478124  0.74422761  0.55530428  1
  Se  Se133  1  0.24418731  0.24174892  0.03956536  1
  Se  Se134  1  0.26567959  0.26426683  0.55710394  1
  Se  Se135  1  0.25312397  0.58924024  0.06466240  1
  Se  Se136  1  0.25763977  0.59684160  0.56129158  1
  Se  Se137  1  0.25167996  0.90883745  0.05272684  1
  Se  Se138  1  0.25444242  0.92870961  0.56185394  1
  Se  Se139  1  0.58845013  0.25691245  0.06062219  1
  Se  Se140  1  0.59453575  0.25991011  0.55891836  1
  Se  Se141  1  0.58385898  0.58351420  0.05924599  1
  Se  Se142  1  0.57997904  0.57984633  0.54807696  1
  Se  Se143  1  0.58724230  0.91432127  0.05162051  1
  Se  Se144  1  0.57818654  0.90965828  0.55584367  1
  Se  Se145  1  0.91452108  0.25065852  0.05241612  1
  Se  Se146  1  0.93189820  0.24744596  0.56926080  1
  Se  Se147  1  0.90965649  0.59251170  0.04691833  1
  Se  Se148  1  0.91438914  0.57404675  0.55509236  1
  Se  Se149  1  0.92753681  0.92444039  0.05776085  1
  Se  Se150  1  0.90820032  0.90785812  0.55631406  1
  Se  Se151  1  0.08215761  0.25865218  0.44855917  1
  Se  Se152  1  0.07870159  0.25148373  0.94694109  1
  Se  Se153  1  0.08757270  0.59883819  0.43823686  1
  Se  Se154  1  0.07812064  0.58442553  0.94001592  1
  Se  Se155  1  0.07243328  0.91861033  0.44114833  1
  Se  Se156  1  0.08619517  0.91110614  0.94151299  1
  Se  Se157  1  0.40691538  0.25866444  0.44014402  1
  Se  Se158  1  0.41176475  0.25616875  0.93457605  1
  Se  Se159  1  0.41676621  0.58418689  0.44409570  1
  Se  Se160  1  0.42353752  0.58081596  0.95515542  1
  Se  Se161  1  0.41641654  0.91412213  0.44390270  1
  Se  Se162  1  0.42530732  0.91048283  0.95084997  1
  Se  Se163  1  0.74104536  0.24873478  0.43471181  1
  Se  Se164  1  0.74830644  0.25228492  0.95281358  1
  Se  Se165  1  0.75019938  0.58011641  0.44323243  1
  Se  Se166  1  0.75212227  0.58979064  0.95031443  1
  Se  Se167  1  0.75248790  0.90963430  0.44720705  1
  Se  Se168  1  0.74555605  0.92378327  0.93678053  1
  Se  Se169  1  0.25170412  0.08110730  0.44183011  1
  Se  Se170  1  0.24968792  0.07481079  0.94438082  1
  Se  Se171  1  0.25772702  0.41153891  0.44080008  1
  Se  Se172  1  0.25729509  0.40960045  0.93767074  1
  Se  Se173  1  0.25260221  0.74968365  0.43917819  1
  Se  Se174  1  0.25333082  0.74438666  0.95107142  1
  Se  Se175  1  0.58873928  0.07099984  0.44205191  1
  Se  Se176  1  0.58563405  0.07645296  0.93716738  1
  Se  Se177  1  0.58247723  0.41720680  0.44009467  1
  Se  Se178  1  0.58103450  0.42504240  0.95235375  1
  Se  Se179  1  0.58136612  0.75116052  0.44550847  1
  Se  Se180  1  0.58462839  0.75318430  0.95178641  1
  Se  Se181  1  0.92316715  0.07971189  0.44433577  1
  Se  Se182  1  0.91488981  0.08444129  0.94564912  1
  Se  Se183  1  0.92031467  0.41481644  0.45247031  1
  Se  Se184  1  0.91110758  0.42463746  0.94913710  1
  Se  Se185  1  0.90637551  0.75298493  0.44874648  1
  Se  Se186  1  0.92428907  0.74995378  0.93431208  1
  Se  Se187  1  0.24368095  0.24054589  0.30615433  1
  Se  Se188  1  0.24552599  0.24456358  0.81095035  1
  Se  Se189  1  0.25163574  0.58499128  0.29500949  1
  Se  Se190  1  0.24325593  0.57544598  0.81210937  1
  Se  Se191  1  0.25632431  0.92349847  0.29642043  1
  Se  Se192  1  0.25619005  0.91377689  0.80543296  1
  Se  Se193  1  0.58160825  0.25058407  0.29444638  1
  Se  Se194  1  0.57671591  0.24244989  0.80859306  1
  Se  Se195  1  0.58619417  0.58845518  0.30351966  1
  Se  Se196  1  0.58751490  0.59126361  0.80908679  1
  Se  Se197  1  0.58491673  0.91646962  0.30393505  1
  Se  Se198  1  0.58292544  0.91181937  0.80478272  1
  Se  Se199  1  0.90786124  0.24316770  0.31210278  1
  Se  Se200  1  0.91686230  0.24974822  0.80857819  1
  Se  Se201  1  0.91664777  0.59096045  0.30524431  1
  Se  Se202  1  0.91290095  0.58378152  0.80284849  1
  Se  Se203  1  0.91107133  0.91314944  0.31093196  1
  Se  Se204  1  0.90802646  0.90793576  0.80131318  1
  Se  Se205  1  0.08610392  0.08245642  0.30515617  1
  Se  Se206  1  0.07272956  0.07295618  0.80503368  1
  Se  Se207  1  0.08051931  0.43159804  0.31257536  1
  Se  Se208  1  0.07613636  0.41454542  0.80373136  1
  Se  Se209  1  0.09490622  0.77374018  0.29904926  1
  Se  Se210  1  0.08804242  0.74580735  0.79818209  1
  Se  Se211  1  0.41778263  0.07997446  0.29521700  1
  Se  Se212  1  0.41111669  0.07512911  0.79991958  1
  Se  Se213  1  0.41942274  0.42233836  0.30850433  1
  Se  Se214  1  0.42655447  0.42750932  0.80511903  1
  Se  Se215  1  0.41691866  0.74798925  0.30451817  1
  Se  Se216  1  0.41902933  0.75452606  0.81612190  1
  Se  Se217  1  0.74735502  0.08015656  0.30073800  1
  Se  Se218  1  0.74605737  0.08212948  0.80470904  1
  Se  Se219  1  0.75020952  0.41725306  0.30188936  1
  Se  Se220  1  0.75251589  0.41939687  0.81645545  1
  Se  Se221  1  0.74597562  0.75002676  0.30400605  1
  Se  Se222  1  0.74179987  0.74100234  0.80203141  1
  Se  Se223  1  0.25553421  0.08126009  0.19093775  1
  Se  Se224  1  0.24147760  0.09586393  0.70056530  1
  Se  Se225  1  0.24055793  0.42080438  0.18831034  1
  Se  Se226  1  0.24826703  0.43079503  0.69029849  1
  Se  Se227  1  0.26714390  0.73756250  0.19604397  1
  Se  Se228  1  0.23813471  0.76320629  0.69101126  1
  Se  Se229  1  0.58955533  0.07877087  0.19176164  1
  Se  Se230  1  0.58767195  0.07463552  0.70245398  1
  Se  Se231  1  0.58815994  0.41865047  0.19884673  1
  Se  Se232  1  0.58546142  0.42711614  0.69089353  1
  Se  Se233  1  0.58722795  0.74812128  0.19957362  1
  Se  Se234  1  0.58078456  0.74537036  0.69605012  1
  Se  Se235  1  0.90782472  0.09569392  0.18777077  1
  Se  Se236  1  0.91536043  0.07910335  0.70260737  1
  Se  Se237  1  0.91226124  0.42942476  0.18919179  1
  Se  Se238  1  0.91300034  0.41047038  0.70401115  1
  Se  Se239  1  0.91713136  0.75493689  0.19596653  1
  Se  Se240  1  0.91017227  0.74423176  0.69383248  1
  Se  Se241  1  0.08824367  0.24575820  0.18968495  1
  Se  Se242  1  0.08725477  0.25724540  0.70534049  1
  Se  Se243  1  0.07458504  0.58853039  0.19895001  1
  Se  Se244  1  0.07781183  0.58755657  0.70387462  1
  Se  Se245  1  0.09105470  0.91033024  0.18294162  1
  Se  Se246  1  0.06947705  0.91378201  0.70441317  1
  Se  Se247  1  0.42628252  0.24354149  0.18019910  1
  Se  Se248  1  0.42962581  0.24329655  0.68827657  1
  Se  Se249  1  0.41906827  0.58253764  0.19648284  1
  Se  Se250  1  0.42231262  0.58702177  0.69111013  1
  Se  Se251  1  0.41920322  0.91421441  0.19505218  1
  Se  Se252  1  0.41368284  0.91278473  0.69830323  1
  Se  Se253  1  0.74606412  0.25731230  0.19497894  1
  Se  Se254  1  0.75946325  0.23853462  0.68746447  1
  Se  Se255  1  0.74916654  0.59088198  0.19962602  1
  Se  Se256  1  0.74650350  0.58041061  0.69436052  1
  Se  Se257  1  0.74998147  0.92093122  0.19859349  1
  Se  Se258  1  0.74362067  0.91324816  0.69652098  1
