# generated using pymatgen
data_In86Cu29Se144
_symmetry_space_group_name_H-M   'P 1'
_cell_length_a   17.58171760
_cell_length_b   17.58035108
_cell_length_c   23.43685470
_cell_angle_alpha   89.99434877
_cell_angle_beta   90.01429408
_cell_angle_gamma   90.00211295
_symmetry_Int_Tables_number   1
_chemical_formula_structural   In86Cu29Se144
_chemical_formula_sum   'In86 Cu29 Se144'
_cell_volume   7244.16202872
_cell_formula_units_Z   1
loop_
 _symmetry_equiv_pos_site_id
 _symmetry_equiv_pos_as_xyz
  1  'x, y, z'
loop_
 _atom_site_type_symbol
 _atom_site_label
 _atom_site_symmetry_multiplicity
 _atom_site_fract_x
 _atom_site_fract_y
 _atom_site_fract_z
 _atom_site_occupancy
  In  In0  1  0.01307840  0.18593057  0.10833719  1
  In  In1  1  0.01517192  0.16694426  0.62555365  1
  In  In2  1  -0.00583133  0.50619974  0.13270031  1
  In  In3  1  -0.00869543  0.48492106  0.61776418  1
  In  In4  1  -0.01448374  0.83053538  0.12731688  1
  In  In5  1  -0.00586441  0.82872465  0.60762129  1
  In  In6  1  0.35175693  0.18698513  0.11519057  1
  In  In7  1  0.33401542  0.16795656  0.62939066  1
  In  In8  1  0.33363941  0.48333339  0.12830052  1
  In  In9  1  0.32096980  0.49943079  0.62618279  1
  In  In10  1  0.33918991  0.82310922  0.12509427  1
  In  In11  1  0.32569686  0.84781842  0.62893399  1
  In  In12  1  0.66455224  0.16561048  0.12808354  1
  In  In13  1  0.65796310  0.18131461  0.62200830  1
  In  In14  1  0.66868364  0.49818491  0.12611009  1
  In  In15  1  0.67589420  0.49781964  0.61516152  1
  In  In16  1  0.67274074  0.83666288  0.12987816  1
  In  In17  1  0.67200722  0.82393013  0.61827034  1
  In  In18  1  0.16627833  0.00062735  0.38329171  1
  In  In19  1  0.18841782  0.00986511  0.86215297  1
  In  In20  1  0.16475994  0.33370960  0.37883750  1
  In  In21  1  0.15572815  0.31808268  0.86872810  1
  In  In22  1  0.14881367  0.66886612  0.39429595  1
  In  In23  1  0.15910204  0.67219149  0.86986737  1
  In  In24  1  0.51459032  0.00630001  0.36858976  1
  In  In25  1  0.48523357  0.01304442  0.88703065  1
  In  In26  1  0.49094139  0.32330451  0.35889306  1
  In  In27  1  0.49982901  0.33072859  0.88034256  1
  In  In28  1  0.50863765  0.66368513  0.36864935  1
  In  In29  1  0.51143236  0.65882470  0.88587367  1
  In  In30  1  0.81722026  -0.00379319  0.37013658  1
  In  In31  1  0.83248942  0.00313981  0.88278682  1
  In  In32  1  0.84272933  0.33979195  0.36228500  1
  In  In33  1  0.83327241  0.33923851  0.88397533  1
  In  In34  1  0.83028018  0.65871533  0.38005129  1
  In  In35  1  0.83856282  0.66672144  0.88622848  1
  In  In36  1  0.00350071  0.17940488  0.37118556  1
  In  In37  1  -0.01299279  0.19110121  0.89470415  1
  In  In38  1  -0.00392037  0.49704667  0.38074727  1
  In  In39  1  -0.00379882  0.48784858  0.87706130  1
  In  In40  1  0.00150533  0.81483956  0.38944447  1
  In  In41  1  -0.00161786  0.82672456  0.87621086  1
  In  In42  1  0.32774622  0.17327761  0.37828794  1
  In  In43  1  0.33497469  0.16426775  0.87556909  1
  In  In44  1  0.33232315  0.48587214  0.37881624  1
  In  In45  1  0.35095757  0.49429519  0.87635415  1
  In  In46  1  0.32814522  0.82475898  0.37876329  1
  In  In47  1  0.33321282  0.85538361  0.87130662  1
  In  In48  1  0.65612530  0.16195134  0.35861641  1
  In  In49  1  0.66077421  0.17271176  0.88640161  1
  In  In50  1  0.67867137  0.50602744  0.36272812  1
  In  In51  1  0.67265886  0.49408286  0.88904263  1
  In  In52  1  0.67469691  0.83296262  0.37124740  1
  In  In53  1  0.67039956  0.83081431  0.88519049  1
  In  In54  1  0.15384649  0.00740766  0.12630097  1
  In  In55  1  0.16947561  0.00928181  0.61648876  1
  In  In56  1  0.17422282  0.33150732  0.13214251  1
  In  In57  1  0.17099369  0.32977320  0.62876257  1
  In  In58  1  0.16141868  0.65362804  0.13165373  1
  In  In59  1  0.14856014  0.65622545  0.60525068  1
  In  In60  1  0.52427657  0.02062275  0.11559052  1
  In  In61  1  0.48127635  0.00254175  0.63195135  1
  In  In62  1  0.49802498  0.32851858  0.12731094  1
  In  In63  1  0.49658562  0.31821115  0.62186731  1
  In  In64  1  0.51634165  0.68016695  0.11799624  1
  In  In65  1  0.50072520  0.66281314  0.62394232  1
  In  In66  1  0.82801313  -0.00578950  0.12125356  1
  In  In67  1  0.84255580  0.00078051  0.62431177  1
  In  In68  1  0.83632599  0.33315776  0.12234995  1
  In  In69  1  0.83853370  0.34907143  0.62369926  1
  In  In70  1  0.83231437  0.66415495  0.12932014  1
  In  In71  1  0.83755295  0.66009014  0.60319747  1
  In  In72  1  0.49923391  0.84295708  0.49386077  1
  In  In73  1  0.00072298  0.66263825  0.74843681  1
  In  In74  1  0.65945031  0.00240058  0.75097651  1
  In  In75  1  0.01241054  0.00176445  0.74658431  1
  In  In76  1  0.83094602  0.16511287  0.49130256  1
  In  In77  1  0.16790240  0.49567901  0.00245115  1
  In  In78  1  0.50752278  0.50052854  0.49479585  1
  In  In79  1  0.66398360  0.33203789  0.76089646  1
  In  In80  1  0.32880256  0.67108560  0.74692893  1
  In  In81  1  0.16803635  0.83903259  -0.00974284  1
  In  In82  1  0.33778964  0.00557068  0.24595956  1
  In  In83  1  0.67087489  0.66174085  0.73880553  1
  In  In84  1  0.33232911  0.65393177  0.25614258  1
  In  In85  1  -0.01202998  0.00110688  0.24787495  1
  Cu  Cu86  1  0.66665675  0.33411607  0.49265823  1
  Cu  Cu87  1  0.50646310  0.48901367  0.75388739  1
  Cu  Cu88  1  0.33020275  0.66954437  0.50295140  1
  Cu  Cu89  1  0.15871274  0.82558195  0.26188488  1
  Cu  Cu90  1  0.33387013  0.32910127  0.00073843  1
  Cu  Cu91  1  0.33122911  0.32793708  0.50085592  1
  Cu  Cu92  1  -0.00115734  0.00516900  0.00019043  1
  Cu  Cu93  1  0.50244422  0.49916237  0.24622916  1
  Cu  Cu94  1  0.83254241  0.49758764  0.24899639  1
  Cu  Cu95  1  0.33390517  -0.00073418  0.00079774  1
  Cu  Cu96  1  0.83365112  0.82207637  0.25216914  1
  Cu  Cu97  1  0.66474624  0.33312237  0.00781169  1
  Cu  Cu98  1  0.16906482  0.17453691  0.24930707  1
  Cu  Cu99  1  0.34341429  0.66527310  -0.00151500  1
  Cu  Cu100  1  0.16897782  0.16706786  0.74996217  1
  Cu  Cu101  1  0.67101871  0.66822372  0.00946506  1
  Cu  Cu102  1  0.83269583  0.16957408  0.24315367  1
  Cu  Cu103  1  0.83629171  0.17748948  0.75923815  1
  Cu  Cu104  1  0.15450925  0.49801725  0.25741117  1
  Cu  Cu105  1  0.16981077  0.49050077  0.75092416  1
  Cu  Cu106  1  0.33188986  0.01041144  0.50331259  1
  Cu  Cu107  1  -0.00352358  0.67051898  0.00616297  1
  Cu  Cu108  1  0.83628231  0.82835118  0.74994394  1
  Cu  Cu109  1  -0.00198640  -0.00376835  0.49833608  1
  Cu  Cu110  1  0.65930204  0.00655056  0.49456746  1
  Cu  Cu111  1  0.00415201  0.32931639  0.49878938  1
  Cu  Cu112  1  0.66811667  -0.00547198  0.00373967  1
  Cu  Cu113  1  0.49389780  0.83758026  0.75907585  1
  Cu  Cu114  1  0.50917381  0.83936346  0.24472613  1
  Se  Se115  1  0.08914531  0.08595572  0.04779381  1
  Se  Se116  1  0.07949340  0.08480651  0.54795296  1
  Se  Se117  1  0.07872024  0.41398628  0.06574592  1
  Se  Se118  1  0.08757913  0.40809595  0.55639737  1
  Se  Se119  1  0.08626546  0.74871022  0.06019663  1
  Se  Se120  1  0.07820846  0.74992587  0.54045362  1
  Se  Se121  1  0.41744285  0.08248377  0.05418710  1
  Se  Se122  1  0.41887734  0.08857708  0.55619590  1
  Se  Se123  1  0.41665201  0.41305133  0.05456669  1
  Se  Se124  1  0.41309834  0.41533158  0.55713870  1
  Se  Se125  1  0.42162642  0.75327677  0.05095493  1
  Se  Se126  1  0.41266040  0.75064220  0.55998858  1
  Se  Se127  1  0.74706761  0.08285379  0.05641500  1
  Se  Se128  1  0.74126542  0.08107151  0.56007488  1
  Se  Se129  1  0.75140985  0.41886959  0.05491825  1
  Se  Se130  1  0.75345164  0.41282317  0.54601773  1
  Se  Se131  1  0.75527239  0.75298314  0.06036896  1
  Se  Se132  1  0.75340407  0.75343584  0.54625223  1
  Se  Se133  1  0.24540118  0.25127969  0.05456045  1
  Se  Se134  1  0.24977588  0.24598026  0.55771969  1
  Se  Se135  1  0.26064183  0.59036299  0.06015417  1
  Se  Se136  1  0.25043632  0.57744597  0.54973912  1
  Se  Se137  1  0.25251240  0.92083695  0.06291051  1
  Se  Se138  1  0.25071779  0.91903264  0.55047285  1
  Se  Se139  1  0.58070987  0.24671506  0.05689104  1
  Se  Se140  1  0.58108986  0.25243195  0.54470807  1
  Se  Se141  1  0.58448833  0.57997333  0.05504808  1
  Se  Se142  1  0.59556231  0.59735509  0.55293086  1
  Se  Se143  1  0.58484099  0.91056889  0.05725147  1
  Se  Se144  1  0.58538805  0.92839360  0.56305619  1
  Se  Se145  1  0.90615315  0.24508906  0.04946990  1
  Se  Se146  1  0.91901936  0.24914304  0.55824902  1
  Se  Se147  1  0.91661283  0.58374444  0.05794900  1
  Se  Se148  1  0.93892435  0.58643700  0.54767951  1
  Se  Se149  1  0.92019432  0.91746143  0.05339160  1
  Se  Se150  1  0.90640440  0.91861642  0.54773403  1
  Se  Se151  1  0.08680987  0.24345466  0.44807368  1
  Se  Se152  1  0.09095617  0.25575104  0.95472929  1
  Se  Se153  1  0.07962373  0.56982565  0.45534603  1
  Se  Se154  1  0.07837077  0.59318441  0.94407175  1
  Se  Se155  1  0.08384818  0.91315082  0.44711641  1
  Se  Se156  1  0.07828084  0.93164362  0.93278167  1
  Se  Se157  1  0.41850169  0.25549393  0.44230035  1
  Se  Se158  1  0.41749398  0.24496185  0.94719889  1
  Se  Se159  1  0.41065223  0.59397020  0.43953001  1
  Se  Se160  1  0.42406785  0.57522807  0.95025633  1
  Se  Se161  1  0.40689862  0.93325665  0.43502066  1
  Se  Se162  1  0.41681675  0.91142285  0.95138124  1
  Se  Se163  1  0.74456020  0.25357775  0.42968117  1
  Se  Se164  1  0.74856084  0.25354866  0.94976235  1
  Se  Se165  1  0.74739260  0.57008056  0.44541097  1
  Se  Se166  1  0.75228010  0.58577985  0.95222564  1
  Se  Se167  1  0.74297277  0.91992463  0.44675101  1
  Se  Se168  1  0.75537008  0.91458809  0.94997949  1
  Se  Se169  1  0.24657881  0.08956580  0.44735130  1
  Se  Se170  1  0.25051865  0.08138352  0.94635050  1
  Se  Se171  1  0.24758770  0.41439302  0.45113725  1
  Se  Se172  1  0.25583231  0.40985667  0.93830650  1
  Se  Se173  1  0.24607481  0.75375761  0.45160137  1
  Se  Se174  1  0.26090132  0.74176297  0.93660236  1
  Se  Se175  1  0.58219084  0.09361801  0.44196880  1
  Se  Se176  1  0.58448611  0.08074318  0.95140130  1
  Se  Se177  1  0.58595140  0.41045552  0.42921231  1
  Se  Se178  1  0.58083582  0.41385410  0.95026509  1
  Se  Se179  1  0.58779188  0.74537017  0.44218250  1
  Se  Se180  1  0.58684584  0.74876670  0.95247170  1
  Se  Se181  1  0.92275375  0.07446082  0.43215332  1
  Se  Se182  1  0.91087324  0.08862399  0.95112237  1
  Se  Se183  1  0.91372123  0.40549369  0.44594491  1
  Se  Se184  1  0.91239227  0.42572817  0.95229949  1
  Se  Se185  1  0.89280856  0.75870661  0.44838363  1
  Se  Se186  1  0.91704962  0.75743245  0.95195489  1
  Se  Se187  1  0.24961994  0.25524799  0.30653724  1
  Se  Se188  1  0.25359708  0.24875028  0.80477243  1
  Se  Se189  1  0.23632449  0.57711086  0.31937919  1
  Se  Se190  1  0.24558279  0.57515878  0.81116597  1
  Se  Se191  1  0.24551424  0.91263991  0.30794887  1
  Se  Se192  1  0.23729500  0.90228411  0.79750647  1
  Se  Se193  1  0.59127280  0.26043767  0.29421664  1
  Se  Se194  1  0.57126131  0.23386957  0.80805753  1
  Se  Se195  1  0.58561413  0.58446334  0.29714576  1
  Se  Se196  1  0.58686931  0.57473776  0.80784515  1
  Se  Se197  1  0.59128914  0.91752842  0.30286696  1
  Se  Se198  1  0.57864315  0.91300231  0.81756482  1
  Se  Se199  1  0.92069860  0.24797292  0.29630953  1
  Se  Se200  1  0.91725916  0.26033512  0.81183951  1
  Se  Se201  1  0.91312545  0.57695855  0.30930990  1
  Se  Se202  1  0.90921125  0.57943253  0.81054673  1
  Se  Se203  1  0.91361994  0.90469933  0.31303901  1
  Se  Se204  1  0.91231075  0.91528722  0.80646581  1
  Se  Se205  1  0.09092314  0.08466241  0.30460627  1
  Se  Se206  1  0.08137863  0.09761272  0.81468891  1
  Se  Se207  1  0.07575446  0.41067315  0.31035965  1
  Se  Se208  1  0.08190524  0.41552343  0.80564433  1
  Se  Se209  1  0.07813536  0.74045629  0.31233885  1
  Se  Se210  1  0.09053197  0.76552751  0.79825229  1
  Se  Se211  1  0.42255615  0.09497290  0.30767539  1
  Se  Se212  1  0.40622076  0.07079572  0.80689841  1
  Se  Se213  1  0.41287944  0.42312534  0.29969575  1
  Se  Se214  1  0.42055275  0.40759858  0.80396539  1
  Se  Se215  1  0.42407792  0.76080530  0.30410823  1
  Se  Se216  1  0.42284529  0.74632168  0.81594982  1
  Se  Se217  1  0.75225134  0.08340721  0.29642273  1
  Se  Se218  1  0.75301306  0.09216733  0.81054546  1
  Se  Se219  1  0.74670247  0.40944796  0.29573192  1
  Se  Se220  1  0.75623372  0.42927445  0.80863961  1
  Se  Se221  1  0.74911523  0.74016861  0.30567070  1
  Se  Se222  1  0.75421555  0.75018091  0.80851097  1
  Se  Se223  1  0.24547986  0.09382881  0.18706990  1
  Se  Se224  1  0.24651390  0.08069434  0.69439002  1
  Se  Se225  1  0.24472790  0.42206857  0.20325180  1
  Se  Se226  1  0.25705566  0.41062772  0.69938609  1
  Se  Se227  1  0.24287235  0.75241814  0.19765020  1
  Se  Se228  1  0.23734146  0.74344959  0.67848476  1
  Se  Se229  1  0.58636418  0.08361150  0.20105158  1
  Se  Se230  1  0.57393327  0.09531891  0.69202085  1
  Se  Se231  1  0.58364968  0.41431356  0.19325348  1
  Se  Se232  1  0.58547961  0.41951307  0.68577322  1
  Se  Se233  1  0.59094685  0.74862177  0.19803791  1
  Se  Se234  1  0.57182017  0.76253845  0.69351347  1
  Se  Se235  1  0.91540730  0.09382526  0.18069228  1
  Se  Se236  1  0.91082607  0.09554674  0.69562180  1
  Se  Se237  1  0.91630067  0.41347075  0.19657031  1
  Se  Se238  1  0.92028703  0.41593800  0.69859839  1
  Se  Se239  1  0.92089292  0.74195553  0.20028292  1
  Se  Se240  1  0.91047271  0.75097038  0.68556899  1
  Se  Se241  1  0.08010078  0.25059845  0.19490742  1
  Se  Se242  1  0.08302236  0.25146045  0.69955937  1
  Se  Se243  1  0.07650328  0.58666920  0.20502475  1
  Se  Se244  1  0.09123183  0.57200971  0.68987281  1
  Se  Se245  1  0.08712747  0.90624086  0.19546432  1
  Se  Se246  1  0.08395497  0.90949294  0.67816628  1
  Se  Se247  1  0.40832567  0.25808685  0.19912962  1
  Se  Se248  1  0.41470180  0.25397081  0.69706708  1
  Se  Se249  1  0.42356339  0.58310833  0.18535340  1
  Se  Se250  1  0.42592719  0.57298917  0.69511522  1
  Se  Se251  1  0.42601818  0.91521703  0.18524207  1
  Se  Se252  1  0.40940460  0.91667966  0.70437258  1
  Se  Se253  1  0.74901656  0.25432825  0.19210669  1
  Se  Se254  1  0.75607156  0.24916071  0.69251036  1
  Se  Se255  1  0.74814074  0.58217529  0.19743892  1
  Se  Se256  1  0.76789140  0.57499507  0.68491099  1
  Se  Se257  1  0.75888839  0.91515891  0.20013550  1
  Se  Se258  1  0.75463352  0.91095486  0.69229460  1
