# generated using pymatgen
data_In86Cu29Se144
_symmetry_space_group_name_H-M   'P 1'
_cell_length_a   17.58215391
_cell_length_b   17.58027593
_cell_length_c   23.44362869
_cell_angle_alpha   90.00667021
_cell_angle_beta   90.03814572
_cell_angle_gamma   90.01928145
_symmetry_Int_Tables_number   1
_chemical_formula_structural   In86Cu29Se144
_chemical_formula_sum   'In86 Cu29 Se144'
_cell_volume   7246.40286135
_cell_formula_units_Z   1
loop_
 _symmetry_equiv_pos_site_id
 _symmetry_equiv_pos_as_xyz
  1  'x, y, z'
loop_
 _atom_site_type_symbol
 _atom_site_label
 _atom_site_symmetry_multiplicity
 _atom_site_fract_x
 _atom_site_fract_y
 _atom_site_fract_z
 _atom_site_occupancy
  In  In0  1  -0.00186329  0.16533264  0.12812800  1
  In  In1  1  0.00526946  0.16784997  0.63195417  1
  In  In2  1  -0.01456111  0.49712413  0.12214458  1
  In  In3  1  -0.01807937  0.50805407  0.63126252  1
  In  In4  1  0.00898385  0.84602233  0.11565069  1
  In  In5  1  0.01488932  0.83541714  0.63854825  1
  In  In6  1  0.32497162  0.17372502  0.13423966  1
  In  In7  1  0.33430264  0.15875021  0.61508091  1
  In  In8  1  0.33868119  0.49628859  0.13643545  1
  In  In9  1  0.33239992  0.50199552  0.61726284  1
  In  In10  1  0.32026430  0.84943095  0.13835133  1
  In  In11  1  0.32987584  0.83682462  0.61762853  1
  In  In12  1  0.68447886  0.16861535  0.12520649  1
  In  In13  1  0.65885025  0.14839138  0.59915877  1
  In  In14  1  0.66627679  0.49335123  0.12595203  1
  In  In15  1  0.69946333  0.48949197  0.62087400  1
  In  In16  1  0.67100904  0.83131473  0.11962680  1
  In  In17  1  0.66090235  0.84519947  0.63192400  1
  In  In18  1  0.16435620  0.00127618  0.37757807  1
  In  In19  1  0.15538912  0.00694093  0.87710742  1
  In  In20  1  0.15399273  0.32154288  0.36689751  1
  In  In21  1  0.14848015  0.32707134  0.87077928  1
  In  In22  1  0.17154789  0.66235369  0.37549003  1
  In  In23  1  0.16277973  0.68538492  0.87731455  1
  In  In24  1  0.49110491  0.01168181  0.38699035  1
  In  In25  1  0.50202331  -0.00847770  0.87019106  1
  In  In26  1  0.49104137  0.32288254  0.36821567  1
  In  In27  1  0.51231194  0.32929239  0.87502250  1
  In  In28  1  0.49447806  0.67776108  0.38077811  1
  In  In29  1  0.50546344  0.65690790  0.86909011  1
  In  In30  1  0.84362190  0.00647284  0.37392044  1
  In  In31  1  0.83361561  -0.00208403  0.87434670  1
  In  In32  1  0.83310955  0.32706546  0.37607172  1
  In  In33  1  0.84711017  0.31419645  0.88644320  1
  In  In34  1  0.82513641  0.67009932  0.38147403  1
  In  In35  1  0.83703903  0.67096558  0.86995871  1
  In  In36  1  -0.00042959  0.16879722  0.37834691  1
  In  In37  1  0.00260243  0.15785543  0.86981872  1
  In  In38  1  0.00647558  0.48880057  0.37732199  1
  In  In39  1  -0.01367877  0.48611007  0.86954371  1
  In  In40  1  -0.00768996  0.85316234  0.37682691  1
  In  In41  1  0.00226970  0.83494326  0.86842625  1
  In  In42  1  0.32860369  0.16272961  0.37451157  1
  In  In43  1  0.32488748  0.15142156  0.87619429  1
  In  In44  1  0.33000055  0.49626990  0.36568114  1
  In  In45  1  0.34020923  0.49601934  0.87770175  1
  In  In46  1  0.32665961  0.83502972  0.37386650  1
  In  In47  1  0.32874100  0.82865990  0.88058099  1
  In  In48  1  0.65291127  0.18001146  0.39695762  1
  In  In49  1  0.67824969  0.16717706  0.87337735  1
  In  In50  1  0.68608730  0.49330607  0.38329589  1
  In  In51  1  0.67728318  0.51457200  0.86690014  1
  In  In52  1  0.66240303  0.82735381  0.38247233  1
  In  In53  1  0.69225983  0.85665300  0.85431232  1
  In  In54  1  0.16011933  0.00326914  0.12657663  1
  In  In55  1  0.15915941  -0.00264775  0.62553227  1
  In  In56  1  0.17370341  0.32012219  0.13370724  1
  In  In57  1  0.15758474  0.31573000  0.62154491  1
  In  In58  1  0.16283932  0.68383994  0.12578842  1
  In  In59  1  0.14160618  0.68322463  0.63403064  1
  In  In60  1  0.49542983  -0.00970797  0.12982593  1
  In  In61  1  0.51871265  0.00810587  0.60670505  1
  In  In62  1  0.50185786  0.33272484  0.13863948  1
  In  In63  1  0.51446720  0.30876689  0.61893076  1
  In  In64  1  0.50220537  0.65901679  0.12950653  1
  In  In65  1  0.50039284  0.68228638  0.62221333  1
  In  In66  1  0.84733623  0.02188505  0.10945977  1
  In  In67  1  0.82752626  0.01394156  0.62946689  1
  In  In68  1  0.83557736  0.33325976  0.12806395  1
  In  In69  1  0.83304600  0.33463875  0.61600260  1
  In  In70  1  0.83260460  0.66892369  0.11347921  1
  In  In71  1  0.84762273  0.66004747  0.63164176  1
  In  In72  1  0.33070996  -0.00200083  0.74815444  1
  In  In73  1  0.83551728  0.83825589  0.50695906  1
  In  In74  1  0.50112386  0.49991088  0.49881996  1
  In  In75  1  0.67426264  0.32484374  0.74464731  1
  In  In76  1  0.15940671  0.50009873  0.00335901  1
  In  In77  1  0.66748593  0.00460597  0.25231302  1
  In  In78  1  0.50140267  0.16624846  -0.00239566  1
  In  In79  1  0.66239050  0.66461906  0.25651953  1
  In  In80  1  0.00206840  0.66496018  0.24833975  1
  In  In81  1  0.50275131  0.50178933  0.00475442  1
  In  In82  1  0.50538497  0.82942263  -0.00062971  1
  In  In83  1  0.32935828  0.33079124  0.73665145  1
  In  In84  1  0.16262515  0.50253444  0.49681230  1
  In  In85  1  0.32840865  0.66623896  0.74686372  1
  Cu  Cu86  1  0.32336237  0.32552093  0.00487255  1
  Cu  Cu87  1  0.32107810  0.00135342  0.00707732  1
  Cu  Cu88  1  -0.00334481  0.32123448  -0.00018586  1
  Cu  Cu89  1  -0.00284079  -0.00080787  -0.00474649  1
  Cu  Cu90  1  0.83647341  0.83536557  0.74731469  1
  Cu  Cu91  1  0.83546108  0.17248809  0.25163892  1
  Cu  Cu92  1  0.15846360  0.50365660  0.75068231  1
  Cu  Cu93  1  0.48977865  0.83538972  0.25760765  1
  Cu  Cu94  1  0.50072110  0.16467251  0.25926471  1
  Cu  Cu95  1  0.83514393  0.49558449  0.75095075  1
  Cu  Cu96  1  -0.00278436  0.33240456  0.49877223  1
  Cu  Cu97  1  0.84018606  0.84239475  0.24463933  1
  Cu  Cu98  1  0.50346437  0.83715288  0.74370607  1
  Cu  Cu99  1  0.33380440  0.32550199  0.49390193  1
  Cu  Cu100  1  0.83491125  0.49445084  0.25216084  1
  Cu  Cu101  1  0.67872893  0.67588661  -0.01204581  1
  Cu  Cu102  1  0.32231647  0.67617259  0.50017046  1
  Cu  Cu103  1  0.16530034  0.83779388  0.25058712  1
  Cu  Cu104  1  0.50120051  0.49874514  0.25426855  1
  Cu  Cu105  1  0.33072138  -0.00150516  0.49623710  1
  Cu  Cu106  1  0.51009114  0.49433573  0.74627096  1
  Cu  Cu107  1  0.83811939  0.16591947  0.75021446  1
  Cu  Cu108  1  0.32826865  0.67672136  0.00899960  1
  Cu  Cu109  1  0.16310364  0.15968721  0.25321237  1
  Cu  Cu110  1  0.00614269  0.00480512  0.50407660  1
  Cu  Cu111  1  0.16787152  0.49570247  0.25101431  1
  Cu  Cu112  1  0.67684577  0.33647936  0.00301010  1
  Cu  Cu113  1  -0.00530427  0.66989953  -0.00617936  1
  Cu  Cu114  1  0.66866529  0.66527573  0.50636445  1
  Se  Se115  1  0.07615808  0.08135436  0.05567383  1
  Se  Se116  1  0.08791213  0.09067578  0.55725495  1
  Se  Se117  1  0.07673778  0.40232905  0.06199097  1
  Se  Se118  1  0.07495923  0.41607274  0.56081302  1
  Se  Se119  1  0.08012353  0.74899581  0.04945509  1
  Se  Se120  1  0.07980860  0.76214974  0.55562129  1
  Se  Se121  1  0.41017992  0.07952149  0.06152843  1
  Se  Se122  1  0.41927831  0.08237780  0.54540540  1
  Se  Se123  1  0.41065659  0.40584654  0.05942764  1
  Se  Se124  1  0.41265266  0.40235806  0.55784337  1
  Se  Se125  1  0.41344106  0.75160636  0.06838712  1
  Se  Se126  1  0.41385195  0.75268559  0.55072304  1
  Se  Se127  1  0.74073700  0.08225507  0.04903472  1
  Se  Se128  1  0.76601455  0.08156150  0.54329715  1
  Se  Se129  1  0.75587466  0.42172238  0.05768975  1
  Se  Se130  1  0.74265170  0.40011794  0.54239014  1
  Se  Se131  1  0.75513539  0.75880661  0.04718981  1
  Se  Se132  1  0.74819445  0.74559400  0.56756800  1
  Se  Se133  1  0.24320692  0.24035148  0.05579444  1
  Se  Se134  1  0.25047610  0.24857385  0.55220962  1
  Se  Se135  1  0.25615540  0.58462775  0.06442843  1
  Se  Se136  1  0.24405088  0.59794773  0.56264111  1
  Se  Se137  1  0.24159326  0.91336794  0.05853985  1
  Se  Se138  1  0.24522032  0.92130046  0.55352229  1
  Se  Se139  1  0.58645885  0.26127445  0.05989558  1
  Se  Se140  1  0.59428150  0.25415547  0.53860002  1
  Se  Se141  1  0.59964007  0.59915298  0.05415987  1
  Se  Se142  1  0.58951024  0.58197628  0.56581577  1
  Se  Se143  1  0.58995425  0.92834495  0.05601904  1
  Se  Se144  1  0.57933866  0.89856844  0.54967895  1
  Se  Se145  1  0.91166690  0.24531146  0.05837547  1
  Se  Se146  1  0.92374927  0.24645677  0.55770960  1
  Se  Se147  1  0.91695398  0.58343971  0.04892596  1
  Se  Se148  1  0.90798038  0.57748147  0.55228020  1
  Se  Se149  1  0.91312154  0.91575733  0.04957243  1
  Se  Se150  1  0.92645746  0.92555572  0.56713522  1
  Se  Se151  1  0.08547306  0.25050603  0.44842590  1
  Se  Se152  1  0.08140330  0.24247304  0.94469974  1
  Se  Se153  1  0.06920454  0.59527194  0.44306962  1
  Se  Se154  1  0.07581637  0.58538343  0.93622722  1
  Se  Se155  1  0.08285311  0.91765207  0.44890073  1
  Se  Se156  1  0.08179401  0.91458416  0.94382033  1
  Se  Se157  1  0.41835801  0.24209546  0.44316332  1
  Se  Se158  1  0.40773388  0.25783448  0.93875427  1
  Se  Se159  1  0.39996772  0.58707012  0.44406597  1
  Se  Se160  1  0.40853223  0.59733593  0.94773616  1
  Se  Se161  1  0.41294522  0.91170836  0.44475501  1
  Se  Se162  1  0.40756673  0.92603399  0.94715674  1
  Se  Se163  1  0.77138487  0.23255416  0.44786026  1
  Se  Se164  1  0.75009253  0.24362370  0.95152066  1
  Se  Se165  1  0.75409231  0.58443705  0.45400161  1
  Se  Se166  1  0.75884385  0.58316263  0.94204834  1
  Se  Se167  1  0.74896755  0.92230335  0.43989118  1
  Se  Se168  1  0.74947783  0.91541189  0.94306904  1
  Se  Se169  1  0.24609242  0.08515882  0.44681229  1
  Se  Se170  1  0.24141873  0.08379395  0.95036193  1
  Se  Se171  1  0.25196838  0.40879857  0.43846695  1
  Se  Se172  1  0.25114105  0.40971665  0.94165179  1
  Se  Se173  1  0.23988949  0.75530265  0.44416860  1
  Se  Se174  1  0.24537663  0.75539751  0.95356851  1
  Se  Se175  1  0.59412874  0.06821011  0.45188090  1
  Se  Se176  1  0.58827737  0.07527927  0.93848110  1
  Se  Se177  1  0.58286875  0.40963155  0.43631953  1
  Se  Se178  1  0.59634797  0.41665418  0.94185548  1
  Se  Se179  1  0.58315141  0.74569140  0.45332987  1
  Se  Se180  1  0.59095862  0.74916437  0.93014066  1
  Se  Se181  1  0.92042914  0.08346993  0.44910235  1
  Se  Se182  1  0.91567391  0.08486596  0.94193382  1
  Se  Se183  1  0.91601398  0.41579951  0.44432336  1
  Se  Se184  1  0.91690249  0.41372493  0.95091077  1
  Se  Se185  1  0.92245707  0.74960520  0.44255611  1
  Se  Se186  1  0.91602258  0.75580900  0.93955247  1
  Se  Se187  1  0.24872984  0.24643850  0.30320646  1
  Se  Se188  1  0.24907186  0.24755140  0.80843401  1
  Se  Se189  1  0.24783505  0.58476561  0.30112001  1
  Se  Se190  1  0.24466388  0.57462431  0.81276148  1
  Se  Se191  1  0.24746130  0.92128757  0.30531302  1
  Se  Se192  1  0.24493526  0.91089677  0.81238011  1
  Se  Se193  1  0.59059013  0.24496499  0.30868479  1
  Se  Se194  1  0.57765280  0.23753508  0.80332369  1
  Se  Se195  1  0.57739441  0.57477437  0.32024128  1
  Se  Se196  1  0.58860072  0.58457747  0.79559831  1
  Se  Se197  1  0.57794038  0.91275487  0.31329803  1
  Se  Se198  1  0.58526871  0.92336619  0.79530931  1
  Se  Se199  1  0.92236138  0.25275728  0.30536851  1
  Se  Se200  1  0.91973804  0.24986438  0.80430723  1
  Se  Se201  1  0.90909607  0.58106833  0.31166060  1
  Se  Se202  1  0.91768968  0.58204657  0.80286527  1
  Se  Se203  1  0.91947194  0.92700131  0.29847095  1
  Se  Se204  1  0.91726921  0.92002476  0.80242213  1
  Se  Se205  1  0.07807093  0.08115977  0.30870635  1
  Se  Se206  1  0.08862862  0.08290564  0.79844461  1
  Se  Se207  1  0.07942953  0.41457324  0.29993739  1
  Se  Se208  1  0.07796486  0.41446014  0.80011688  1
  Se  Se209  1  0.08356244  0.75867869  0.31131218  1
  Se  Se210  1  0.08240130  0.74707575  0.80046265  1
  Se  Se211  1  0.41550560  0.07945995  0.30675714  1
  Se  Se212  1  0.42447020  0.09011577  0.80649190  1
  Se  Se213  1  0.41395185  0.41204794  0.30059174  1
  Se  Se214  1  0.42670419  0.41726863  0.80462871  1
  Se  Se215  1  0.40991434  0.74564248  0.30667502  1
  Se  Se216  1  0.42336406  0.75833469  0.80648012  1
  Se  Se217  1  0.75190638  0.09654802  0.31325675  1
  Se  Se218  1  0.75258104  0.08306767  0.80245137  1
  Se  Se219  1  0.75087346  0.41255882  0.30537825  1
  Se  Se220  1  0.75953565  0.41055355  0.81240385  1
  Se  Se221  1  0.75889048  0.76387658  0.30520023  1
  Se  Se222  1  0.75183845  0.74651517  0.79675925  1
  Se  Se223  1  0.24753346  0.07980344  0.19713296  1
  Se  Se224  1  0.24546751  0.09391145  0.69111448  1
  Se  Se225  1  0.25248248  0.41119156  0.19929654  1
  Se  Se226  1  0.23719708  0.42930745  0.68543506  1
  Se  Se227  1  0.24826037  0.74924227  0.20113793  1
  Se  Se228  1  0.24260708  0.76512846  0.69524908  1
  Se  Se229  1  0.57671147  0.09373487  0.18880491  1
  Se  Se230  1  0.58799244  0.08709572  0.68305289  1
  Se  Se231  1  0.58852537  0.41952902  0.20113811  1
  Se  Se232  1  0.58462942  0.41642786  0.68243083  1
  Se  Se233  1  0.57643419  0.76195612  0.19569938  1
  Se  Se234  1  0.58639933  0.74730410  0.69690940  1
  Se  Se235  1  0.91181919  0.08309577  0.19691627  1
  Se  Se236  1  0.92201301  0.08090827  0.69871741  1
  Se  Se237  1  0.92039646  0.41419257  0.19881707  1
  Se  Se238  1  0.91083738  0.40846111  0.69419192  1
  Se  Se239  1  0.91371741  0.75464734  0.18650930  1
  Se  Se240  1  0.92232894  0.75048093  0.69873771  1
  Se  Se241  1  0.08118893  0.24564744  0.19930912  1
  Se  Se242  1  0.08311294  0.25452759  0.70229522  1
  Se  Se243  1  0.09057610  0.57385848  0.18614299  1
  Se  Se244  1  0.07397394  0.58499764  0.69811060  1
  Se  Se245  1  0.07868906  0.91760446  0.19674145  1
  Se  Se246  1  0.08169097  0.93237572  0.70565932  1
  Se  Se247  1  0.41748172  0.24718121  0.20188747  1
  Se  Se248  1  0.42566841  0.23515930  0.69043216  1
  Se  Se249  1  0.41988787  0.58521422  0.20177317  1
  Se  Se250  1  0.42443556  0.57484921  0.68955723  1
  Se  Se251  1  0.41180936  0.92421065  0.20537053  1
  Se  Se252  1  0.42361056  0.91656909  0.68416425  1
  Se  Se253  1  0.74970795  0.25486757  0.19948073  1
  Se  Se254  1  0.75662169  0.23430789  0.68257126  1
  Se  Se255  1  0.75830256  0.58244044  0.19339597  1
  Se  Se256  1  0.75378867  0.58024535  0.69711852  1
  Se  Se257  1  0.75483694  0.91921514  0.18649954  1
  Se  Se258  1  0.75222487  0.92189786  0.69682276  1
