# generated using pymatgen
data_In86Cu29Se144
_symmetry_space_group_name_H-M   'P 1'
_cell_length_a   17.57192704
_cell_length_b   17.57566997
_cell_length_c   23.42692502
_cell_angle_alpha   90.01208977
_cell_angle_beta   90.00739008
_cell_angle_gamma   90.00692428
_symmetry_Int_Tables_number   1
_chemical_formula_structural   In86Cu29Se144
_chemical_formula_sum   'In86 Cu29 Se144'
_cell_volume   7235.13354060
_cell_formula_units_Z   1
loop_
 _symmetry_equiv_pos_site_id
 _symmetry_equiv_pos_as_xyz
  1  'x, y, z'
loop_
 _atom_site_type_symbol
 _atom_site_label
 _atom_site_symmetry_multiplicity
 _atom_site_fract_x
 _atom_site_fract_y
 _atom_site_fract_z
 _atom_site_occupancy
  In  In0  1  0.00544687  0.16025707  0.13272363  1
  In  In1  1  -0.00556147  0.16616107  0.62270675  1
  In  In2  1  0.01602886  0.48884722  0.12809653  1
  In  In3  1  0.01665385  0.50519672  0.62161798  1
  In  In4  1  0.00652038  0.83392438  0.13254550  1
  In  In5  1  0.00918744  0.82299536  0.62547495  1
  In  In6  1  0.32684692  0.16041901  0.11689743  1
  In  In7  1  0.35624084  0.16438752  0.62402893  1
  In  In8  1  0.33436655  0.50616923  0.12152578  1
  In  In9  1  0.33136000  0.49993459  0.62916268  1
  In  In10  1  0.31323070  0.84811205  0.14519709  1
  In  In11  1  0.31102024  0.83605092  0.62249282  1
  In  In12  1  0.66260299  0.17674051  0.13090709  1
  In  In13  1  0.62983562  0.19979690  0.66341826  1
  In  In14  1  0.65308575  0.49398484  0.12253068  1
  In  In15  1  0.64937029  0.49643940  0.62308451  1
  In  In16  1  0.68213032  0.83727426  0.12224944  1
  In  In17  1  0.67465103  0.84274594  0.62692633  1
  In  In18  1  0.16144383  -0.01304639  0.35990644  1
  In  In19  1  0.16307613  0.00289645  0.88745319  1
  In  In20  1  0.16278491  0.34270949  0.37454837  1
  In  In21  1  0.17656715  0.32177367  0.88869778  1
  In  In22  1  0.16056170  0.65904909  0.37018019  1
  In  In23  1  0.16711621  0.66563391  0.87838485  1
  In  In24  1  0.50628737  0.00504776  0.36655518  1
  In  In25  1  0.51306281  0.00256636  0.87364953  1
  In  In26  1  0.49727584  0.32291755  0.38481070  1
  In  In27  1  0.50350961  0.33263776  0.87667882  1
  In  In28  1  0.48251651  0.66436170  0.37695525  1
  In  In29  1  0.47978394  0.66771767  0.87205257  1
  In  In30  1  0.83027040  0.00364384  0.36560837  1
  In  In31  1  0.82126850  0.00329334  0.88196720  1
  In  In32  1  0.82490787  0.32084769  0.35607633  1
  In  In33  1  0.82811033  0.33694910  0.87159446  1
  In  In34  1  0.85381471  0.66671858  0.37265850  1
  In  In35  1  0.85342181  0.66247882  0.87586524  1
  In  In36  1  -0.00853844  0.16201398  0.35431096  1
  In  In37  1  0.00802031  0.17786094  0.88308790  1
  In  In38  1  0.01174182  0.50758580  0.36082425  1
  In  In39  1  -0.00316815  0.50808874  0.87747312  1
  In  In40  1  0.01680576  0.83294293  0.36371958  1
  In  In41  1  0.01415819  0.82659612  0.88798850  1
  In  In42  1  0.34806230  0.16456911  0.37732790  1
  In  In43  1  0.33316137  0.17145523  0.87810391  1
  In  In44  1  0.31742937  0.50461547  0.38554849  1
  In  In45  1  0.33323549  0.50225895  0.87881906  1
  In  In46  1  0.31716258  0.81762652  0.35449023  1
  In  In47  1  0.32833778  0.82127615  0.87394409  1
  In  In48  1  0.65569464  0.15941301  0.36827019  1
  In  In49  1  0.65802230  0.16072136  0.86759974  1
  In  In50  1  0.66356007  0.48370320  0.37861009  1
  In  In51  1  0.66590934  0.48346240  0.87398008  1
  In  In52  1  0.65813690  0.84292937  0.37229093  1
  In  In53  1  0.66893559  0.84636639  0.87835882  1
  In  In54  1  0.16630615  -0.00196108  0.12938938  1
  In  In55  1  0.18554493  -0.01156988  0.61594053  1
  In  In56  1  0.15664759  0.32863379  0.10784467  1
  In  In57  1  0.16244512  0.35170148  0.62494620  1
  In  In58  1  0.17016296  0.66867816  0.12792493  1
  In  In59  1  0.16802636  0.66804558  0.62774229  1
  In  In60  1  0.48963461  0.01073623  0.12853388  1
  In  In61  1  0.49646440  0.02619025  0.62338694  1
  In  In62  1  0.50558982  0.33671279  0.11983109  1
  In  In63  1  0.49143044  0.33641640  0.63046523  1
  In  In64  1  0.49111594  0.65421715  0.12145520  1
  In  In65  1  0.49622522  0.64844784  0.62283104  1
  In  In66  1  0.84795425  -0.00480100  0.13940662  1
  In  In67  1  0.82280241  0.00108711  0.62701272  1
  In  In68  1  0.83910730  0.31929105  0.14082207  1
  In  In69  1  0.81930430  0.32395226  0.62760738  1
  In  In70  1  0.83617288  0.68376513  0.12116459  1
  In  In71  1  0.84407503  0.67813381  0.62627917  1
  In  In72  1  0.33153218  0.33383810  0.25379675  1
  In  In73  1  0.66404108  0.66633258  0.24572931  1
  In  In74  1  0.84316485  0.83880244  0.48898562  1
  In  In75  1  0.48631392  0.83532278  0.49368200  1
  In  In76  1  0.83393668  0.49557696  -0.00186080  1
  In  In77  1  0.33716641  0.00360968  0.74715453  1
  In  In78  1  0.83828143  0.16161614  0.00924195  1
  In  In79  1  0.82555932  0.16252172  0.49795621  1
  In  In80  1  0.17328379  0.16617592  0.49389666  1
  In  In81  1  -0.00689534  0.00132914  0.74967757  1
  In  In82  1  -0.00128857  0.33995111  0.75767098  1
  In  In83  1  0.49352531  0.83159358  -0.00347649  1
  In  In84  1  0.66826670  0.66696657  0.74415680  1
  In  In85  1  0.84390727  0.50203971  0.49476449  1
  Cu  Cu86  1  -0.00082173  0.33919621  0.49016667  1
  Cu  Cu87  1  0.17087909  0.16393417  0.24297694  1
  Cu  Cu88  1  0.50328671  0.83694159  0.24926373  1
  Cu  Cu89  1  0.65428826  0.01252327  0.50240780  1
  Cu  Cu90  1  0.00442734  0.66769693  0.00375031  1
  Cu  Cu91  1  0.49721154  0.49535381  0.24878942  1
  Cu  Cu92  1  0.00724880  -0.00577326  0.49318106  1
  Cu  Cu93  1  0.32643189  0.66907628  0.00176827  1
  Cu  Cu94  1  0.17039690  0.17456288  0.75343065  1
  Cu  Cu95  1  0.66720266  0.00212568  0.00095971  1
  Cu  Cu96  1  0.33427791  0.33397950  0.50579274  1
  Cu  Cu97  1  0.66532018  0.66462307  0.00288874  1
  Cu  Cu98  1  0.32541668  0.66000971  0.49909571  1
  Cu  Cu99  1  0.66510592  0.32873631  0.00076660  1
  Cu  Cu100  1  0.50193501  0.17038061  0.24971067  1
  Cu  Cu101  1  0.66801906  0.66292094  0.50109966  1
  Cu  Cu102  1  0.84005899  0.83223159  0.75316100  1
  Cu  Cu103  1  0.49539936  0.49753635  0.75230750  1
  Cu  Cu104  1  0.65506513  0.32885386  0.50443732  1
  Cu  Cu105  1  0.33010776  0.00155247  0.00527894  1
  Cu  Cu106  1  0.83806286  0.50099266  0.75035886  1
  Cu  Cu107  1  0.83297681  0.50198628  0.24887978  1
  Cu  Cu108  1  0.83713921  0.83253870  0.24993908  1
  Cu  Cu109  1  0.16509871  0.82672085  0.75395602  1
  Cu  Cu110  1  0.16788679  0.49859069  0.24800122  1
  Cu  Cu111  1  0.49564348  0.83559541  0.74984120  1
  Cu  Cu112  1  0.34130464  0.33904568  -0.00029781  1
  Cu  Cu113  1  0.00386168  -0.00489517  0.01367555  1
  Cu  Cu114  1  0.17380172  0.50381811  0.75260200  1
  Se  Se115  1  0.08720959  0.08509577  0.05912065  1
  Se  Se116  1  0.08005892  0.07661530  0.55766701  1
  Se  Se117  1  0.08461077  0.42522123  0.04416382  1
  Se  Se118  1  0.08211924  0.41827594  0.54626886  1
  Se  Se119  1  0.08467362  0.75130581  0.05969517  1
  Se  Se120  1  0.10142227  0.76138448  0.55644946  1
  Se  Se121  1  0.42035148  0.08621479  0.04899450  1
  Se  Se122  1  0.39442536  0.06226500  0.55036429  1
  Se  Se123  1  0.42124654  0.42298526  0.05531218  1
  Se  Se124  1  0.41605717  0.42024833  0.55814220  1
  Se  Se125  1  0.40482167  0.75132675  0.06297156  1
  Se  Se126  1  0.40717069  0.74096221  0.55974078  1
  Se  Se127  1  0.74593362  0.07427233  0.06808250  1
  Se  Se128  1  0.73406935  0.08797404  0.56488763  1
  Se  Se129  1  0.74876506  0.40495385  0.06221063  1
  Se  Se130  1  0.74530046  0.41363941  0.55427439  1
  Se  Se131  1  0.75038893  0.75274981  0.04698126  1
  Se  Se132  1  0.74837733  0.74910270  0.55348963  1
  Se  Se133  1  0.25616162  0.25274380  0.04894083  1
  Se  Se134  1  0.25101158  0.25370613  0.56524235  1
  Se  Se135  1  0.24463394  0.58247540  0.05385961  1
  Se  Se136  1  0.24661386  0.57929484  0.55905527  1
  Se  Se137  1  0.25066183  0.91565019  0.05859632  1
  Se  Se138  1  0.25673781  0.91385463  0.53894943  1
  Se  Se139  1  0.58135956  0.24433755  0.05268632  1
  Se  Se140  1  0.57947838  0.24761624  0.56560757  1
  Se  Se141  1  0.58009281  0.58107606  0.05123802  1
  Se  Se142  1  0.58050972  0.57939586  0.54767664  1
  Se  Se143  1  0.58325324  0.92026764  0.05926815  1
  Se  Se144  1  0.58182743  0.91888827  0.55736280  1
  Se  Se145  1  0.92706807  0.25755024  0.06185940  1
  Se  Se146  1  0.92011711  0.26112090  0.55274994  1
  Se  Se147  1  0.92038548  0.58606337  0.06081283  1
  Se  Se148  1  0.92856017  0.59604092  0.55538218  1
  Se  Se149  1  0.91650383  0.91313020  0.06303693  1
  Se  Se150  1  0.92343859  0.92590901  0.56068406  1
  Se  Se151  1  0.07148308  0.24619755  0.43487491  1
  Se  Se152  1  0.08672496  0.24790337  0.95696874  1
  Se  Se153  1  0.08855471  0.56899916  0.44089022  1
  Se  Se154  1  0.08277991  0.58306629  0.94765062  1
  Se  Se155  1  0.08934834  0.91271602  0.44048047  1
  Se  Se156  1  0.08886947  0.91524496  0.95667569  1
  Se  Se157  1  0.41466661  0.24443276  0.45626497  1
  Se  Se158  1  0.42034078  0.25066715  0.94626569  1
  Se  Se159  1  0.41496981  0.57770380  0.45048884  1
  Se  Se160  1  0.41466573  0.58779591  0.94996784  1
  Se  Se161  1  0.40817944  0.91274040  0.42045144  1
  Se  Se162  1  0.40629901  0.92592404  0.93618957  1
  Se  Se163  1  0.73932599  0.25803593  0.43979910  1
  Se  Se164  1  0.74942326  0.24881837  0.94346237  1
  Se  Se165  1  0.74815409  0.59131513  0.43535087  1
  Se  Se166  1  0.74429958  0.58799122  0.93695805  1
  Se  Se167  1  0.73867596  0.93250010  0.44405552  1
  Se  Se168  1  0.75258096  0.91442088  0.95442643  1
  Se  Se169  1  0.25140377  0.07299326  0.43087952  1
  Se  Se170  1  0.25178094  0.08767533  0.94809048  1
  Se  Se171  1  0.24528728  0.40943118  0.45154007  1
  Se  Se172  1  0.25219458  0.42031830  0.94952402  1
  Se  Se173  1  0.25231468  0.74098611  0.43637972  1
  Se  Se174  1  0.24439290  0.75464404  0.94912607  1
  Se  Se175  1  0.57236385  0.09015653  0.44444653  1
  Se  Se176  1  0.58552444  0.08553953  0.94754713  1
  Se  Se177  1  0.57575728  0.41562758  0.45097643  1
  Se  Se178  1  0.58369636  0.41708801  0.94998113  1
  Se  Se179  1  0.58803036  0.74384951  0.44020311  1
  Se  Se180  1  0.58684873  0.74165639  0.93654003  1
  Se  Se181  1  0.92490838  0.07774804  0.43923769  1
  Se  Se182  1  0.92901149  0.07266295  0.94552671  1
  Se  Se183  1  0.91616775  0.40889916  0.42630265  1
  Se  Se184  1  0.92564065  0.40313707  0.94160922  1
  Se  Se185  1  0.93884732  0.74355828  0.44392452  1
  Se  Se186  1  0.91753291  0.74917282  0.95086092  1
  Se  Se187  1  0.24299408  0.23982261  0.31258009  1
  Se  Se188  1  0.25282271  0.25544635  0.80732430  1
  Se  Se189  1  0.25313134  0.57758607  0.30331965  1
  Se  Se190  1  0.25391672  0.58830988  0.80848479  1
  Se  Se191  1  0.24686387  0.91252414  0.28890945  1
  Se  Se192  1  0.24173305  0.91814155  0.80978848  1
  Se  Se193  1  0.57796119  0.25694614  0.30649128  1
  Se  Se194  1  0.59268107  0.26174640  0.80516269  1
  Se  Se195  1  0.57789883  0.57756149  0.31063994  1
  Se  Se196  1  0.57992785  0.58122175  0.80942949  1
  Se  Se197  1  0.58976813  0.92265005  0.29629168  1
  Se  Se198  1  0.58323631  0.91233411  0.80288863  1
  Se  Se199  1  0.92582632  0.26093396  0.29132398  1
  Se  Se200  1  0.91133539  0.23882298  0.80996944  1
  Se  Se201  1  0.92019467  0.58686160  0.29545756  1
  Se  Se202  1  0.92410131  0.58407264  0.79857812  1
  Se  Se203  1  0.91775889  0.91507066  0.30636504  1
  Se  Se204  1  0.91612846  0.91080840  0.81789912  1
  Se  Se205  1  0.08436820  0.08021676  0.29467833  1
  Se  Se206  1  0.08921648  0.09055002  0.80890040  1
  Se  Se207  1  0.08399234  0.40967869  0.29596769  1
  Se  Se208  1  0.09531135  0.42287761  0.81565182  1
  Se  Se209  1  0.08630417  0.74122204  0.29629503  1
  Se  Se210  1  0.08057447  0.74761821  0.80876976  1
  Se  Se211  1  0.41691158  0.08563980  0.29967748  1
  Se  Se212  1  0.42633887  0.09124619  0.80765686  1
  Se  Se213  1  0.41850945  0.42273397  0.31641373  1
  Se  Se214  1  0.41584604  0.41708506  0.81095712  1
  Se  Se215  1  0.42328221  0.74534890  0.29692375  1
  Se  Se216  1  0.40982231  0.75112976  0.79756771  1
  Se  Se217  1  0.75742728  0.09853293  0.30367889  1
  Se  Se218  1  0.74813973  0.07662065  0.80671207  1
  Se  Se219  1  0.74537987  0.42175472  0.29999033  1
  Se  Se220  1  0.75144782  0.41746593  0.79829132  1
  Se  Se221  1  0.75415126  0.75364600  0.31135492  1
  Se  Se222  1  0.75618073  0.75120888  0.81180638  1
  Se  Se223  1  0.25809393  0.08132046  0.19431589  1
  Se  Se224  1  0.24175865  0.09217118  0.68801212  1
  Se  Se225  1  0.24497231  0.41590322  0.18665372  1
  Se  Se226  1  0.25035202  0.41434860  0.69959302  1
  Se  Se227  1  0.26609901  0.73080319  0.19880058  1
  Se  Se228  1  0.25203163  0.74891935  0.69978676  1
  Se  Se229  1  0.58249940  0.08474028  0.19544054  1
  Se  Se230  1  0.59376863  0.06562605  0.69849003  1
  Se  Se231  1  0.58172210  0.41272779  0.19796483  1
  Se  Se232  1  0.58170733  0.41681024  0.69948825  1
  Se  Se233  1  0.57709502  0.75655752  0.18320195  1
  Se  Se234  1  0.57434915  0.75641625  0.68514336  1
  Se  Se235  1  0.90552708  0.10195159  0.20061981  1
  Se  Se236  1  0.90326568  0.09637176  0.69421303  1
  Se  Se237  1  0.91830042  0.42095905  0.19516636  1
  Se  Se238  1  0.91426159  0.42135479  0.68445882  1
  Se  Se239  1  0.91891610  0.74710229  0.19850057  1
  Se  Se240  1  0.92484054  0.75173491  0.70016081  1
  Se  Se241  1  0.09321682  0.25366600  0.19109360  1
  Se  Se242  1  0.08473989  0.24755646  0.69161345  1
  Se  Se243  1  0.08443819  0.58374138  0.19560116  1
  Se  Se244  1  0.08636723  0.58358045  0.69889642  1
  Se  Se245  1  0.07714023  0.92698905  0.19985191  1
  Se  Se246  1  0.09472771  0.91744230  0.69384061  1
  Se  Se247  1  0.41821025  0.24742620  0.18877559  1
  Se  Se248  1  0.42057843  0.24466729  0.70025564  1
  Se  Se249  1  0.41438759  0.58055311  0.19843922  1
  Se  Se250  1  0.41410779  0.58367577  0.70006295  1
  Se  Se251  1  0.41813559  0.92239073  0.19978938  1
  Se  Se252  1  0.42051013  0.91149811  0.68277538  1
  Se  Se253  1  0.73701766  0.25879539  0.20360315  1
  Se  Se254  1  0.75582861  0.24792598  0.70595075  1
  Se  Se255  1  0.75428576  0.57904678  0.18365329  1
  Se  Se256  1  0.75848369  0.57533272  0.68340025  1
  Se  Se257  1  0.74996421  0.91574643  0.20033894  1
  Se  Se258  1  0.75471731  0.91471793  0.70198203  1
