# generated using pymatgen
data_In86Cu29Se144
_symmetry_space_group_name_H-M   'P 1'
_cell_length_a   17.58262873
_cell_length_b   17.58909822
_cell_length_c   23.45255011
_cell_angle_alpha   90.00619588
_cell_angle_beta   89.99049563
_cell_angle_gamma   90.01914934
_symmetry_Int_Tables_number   1
_chemical_formula_structural   In86Cu29Se144
_chemical_formula_sum   'In86 Cu29 Se144'
_cell_volume   7252.99569538
_cell_formula_units_Z   1
loop_
 _symmetry_equiv_pos_site_id
 _symmetry_equiv_pos_as_xyz
  1  'x, y, z'
loop_
 _atom_site_type_symbol
 _atom_site_label
 _atom_site_symmetry_multiplicity
 _atom_site_fract_x
 _atom_site_fract_y
 _atom_site_fract_z
 _atom_site_occupancy
  In  In0  1  -0.00144292  0.16235351  0.11827390  1
  In  In1  1  0.00615876  0.15083867  0.63042569  1
  In  In2  1  0.01245691  0.50580042  0.12320396  1
  In  In3  1  0.00479679  0.51787985  0.61782277  1
  In  In4  1  0.01984625  0.82176186  0.14024353  1
  In  In5  1  0.01419260  0.82386768  0.62998339  1
  In  In6  1  0.31640356  0.16835238  0.11998626  1
  In  In7  1  0.33162281  0.16537702  0.62440547  1
  In  In8  1  0.33823984  0.49721775  0.11414890  1
  In  In9  1  0.34282188  0.49393913  0.62983350  1
  In  In10  1  0.32538788  0.84601224  0.12644566  1
  In  In11  1  0.31775497  0.84907918  0.63175886  1
  In  In12  1  0.67335401  0.15714350  0.13461104  1
  In  In13  1  0.65545043  0.17472447  0.62568397  1
  In  In14  1  0.65229806  0.50622642  0.13968741  1
  In  In15  1  0.66637486  0.49399540  0.61189178  1
  In  In16  1  0.66979167  0.83133923  0.13707165  1
  In  In17  1  0.67931752  0.83971241  0.62421506  1
  In  In18  1  0.16668694  0.00068106  0.37146841  1
  In  In19  1  0.16322960  -0.00257608  0.87249034  1
  In  In20  1  0.14824283  0.32049169  0.37985876  1
  In  In21  1  0.18246968  0.31974136  0.88901340  1
  In  In22  1  0.16376265  0.68042146  0.37574394  1
  In  In23  1  0.16505650  0.66444772  0.87677433  1
  In  In24  1  0.50403442  0.00838081  0.37188817  1
  In  In25  1  0.49599590  0.00528992  0.86750651  1
  In  In26  1  0.50380384  0.33002757  0.37582551  1
  In  In27  1  0.49228223  0.34736615  0.88018692  1
  In  In28  1  0.50276898  0.65289502  0.37459033  1
  In  In29  1  0.48199640  0.66710924  0.87763259  1
  In  In30  1  0.83376893  -0.00423218  0.36969619  1
  In  In31  1  0.84509075  0.00605862  0.87162972  1
  In  In32  1  0.83663932  0.35729424  0.37797199  1
  In  In33  1  0.82447086  0.32827469  0.87961650  1
  In  In34  1  0.83124309  0.66349408  0.36602331  1
  In  In35  1  0.84538682  0.66111798  0.87379412  1
  In  In36  1  0.01606699  0.17276820  0.37975696  1
  In  In37  1  0.01473806  0.14806328  0.88278746  1
  In  In38  1  -0.01396441  0.49852316  0.37837007  1
  In  In39  1  0.01212405  0.51938055  0.86627150  1
  In  In40  1  0.01160085  0.83518719  0.36488446  1
  In  In41  1  0.00927422  0.83791243  0.87130902  1
  In  In42  1  0.33712813  0.16309074  0.38025224  1
  In  In43  1  0.31265753  0.15683114  0.85822990  1
  In  In44  1  0.34467382  0.50180047  0.37972659  1
  In  In45  1  0.32628660  0.49868024  0.87507805  1
  In  In46  1  0.30868638  0.83924509  0.37575296  1
  In  In47  1  0.32130750  0.81968402  0.86626178  1
  In  In48  1  0.65907677  0.15722720  0.37006178  1
  In  In49  1  0.67542700  0.16584021  0.87899236  1
  In  In50  1  0.66351030  0.50268670  0.36676149  1
  In  In51  1  0.66216174  0.48796891  0.88158303  1
  In  In52  1  0.67144451  0.83674027  0.36743824  1
  In  In53  1  0.65091485  0.83633279  0.87611286  1
  In  In54  1  0.16194530  -0.00099922  0.12216455  1
  In  In55  1  0.17036384  0.00086307  0.62273455  1
  In  In56  1  0.17548134  0.33253766  0.10775163  1
  In  In57  1  0.18255867  0.32880172  0.63272991  1
  In  In58  1  0.16193313  0.66695690  0.12078340  1
  In  In59  1  0.15883082  0.67750856  0.63028014  1
  In  In60  1  0.49903115  -0.00293561  0.13453805  1
  In  In61  1  0.48358734  0.01783808  0.63216723  1
  In  In62  1  0.49763190  0.35259996  0.12658526  1
  In  In63  1  0.49495644  0.32649947  0.61609814  1
  In  In64  1  0.50571594  0.66338615  0.12793880  1
  In  In65  1  0.49998865  0.65382662  0.62148131  1
  In  In66  1  0.83587598  0.00511934  0.13076018  1
  In  In67  1  0.83639749  -0.00337861  0.63335737  1
  In  In68  1  0.83121865  0.31947901  0.12727690  1
  In  In69  1  0.82321430  0.33835000  0.62114208  1
  In  In70  1  0.83926087  0.66496014  0.12990967  1
  In  In71  1  0.85668412  0.66831957  0.61635586  1
  In  In72  1  0.16998445  0.49491730  0.50273414  1
  In  In73  1  0.66196165  0.33261703  0.75370606  1
  In  In74  1  -0.00270903  0.33017781  0.25055590  1
  In  In75  1  0.83745920  0.17366141  0.50111573  1
  In  In76  1  0.33759312  0.33033603  0.25080573  1
  In  In77  1  0.49192233  0.83112197  0.00505383  1
  In  In78  1  0.00529712  0.33028960  0.74858443  1
  In  In79  1  0.83890091  0.83225771  0.49103561  1
  In  In80  1  0.84222238  0.83630349  -0.00166147  1
  In  In81  1  0.49578815  0.83623988  0.50073604  1
  In  In82  1  0.49035735  0.17103364  0.00057007  1
  In  In83  1  0.66757542  0.67016314  0.74688834  1
  In  In84  1  0.84010743  0.49326261  0.00708148  1
  In  In85  1  0.33583041  0.67106070  0.24802823  1
  Cu  Cu86  1  0.65579614  0.01095991  0.50329791  1
  Cu  Cu87  1  0.82976404  0.50335352  0.24924342  1
  Cu  Cu88  1  0.33150493  0.66851350  0.49930993  1
  Cu  Cu89  1  0.17135398  0.50607949  0.75010678  1
  Cu  Cu90  1  0.32533076  -0.00350055  -0.00508212  1
  Cu  Cu91  1  0.66667947  0.65631190  0.00927991  1
  Cu  Cu92  1  0.83399781  0.83725248  0.75017480  1
  Cu  Cu93  1  0.83106480  0.16580591  0.25258588  1
  Cu  Cu94  1  0.83808481  0.15952540  0.75666544  1
  Cu  Cu95  1  0.66792915  0.33975500  0.49314058  1
  Cu  Cu96  1  0.00270103  0.00320562  0.00003468  1
  Cu  Cu97  1  0.16700154  0.83584193  0.75095100  1
  Cu  Cu98  1  0.32485917  0.66105369  -0.00403682  1
  Cu  Cu99  1  0.16327311  0.15933360  0.24590116  1
  Cu  Cu100  1  0.17001042  0.50430192  0.24629006  1
  Cu  Cu101  1  0.49459550  0.16839353  0.74614258  1
  Cu  Cu102  1  0.49658296  0.50389980  0.75114116  1
  Cu  Cu103  1  0.33726181  0.33184416  0.50440895  1
  Cu  Cu104  1  0.67127275  0.65791744  0.49212591  1
  Cu  Cu105  1  0.49735640  0.83390744  0.25381754  1
  Cu  Cu106  1  0.83741707  0.83498395  0.24921582  1
  Cu  Cu107  1  0.49897279  0.83843448  0.75023914  1
  Cu  Cu108  1  0.00721262  -0.00467898  0.49931894  1
  Cu  Cu109  1  0.83796875  0.50961094  0.74362433  1
  Cu  Cu110  1  0.67388593  0.00317076  0.00678501  1
  Cu  Cu111  1  0.32701776  0.00499408  0.50300052  1
  Cu  Cu112  1  -0.00281524  0.33350321  -0.00089374  1
  Cu  Cu113  1  0.66238684  0.32970580  0.00399909  1
  Cu  Cu114  1  0.49843488  0.16373865  0.25233046  1
  Se  Se115  1  0.08899005  0.08869493  0.05014355  1
  Se  Se116  1  0.08558926  0.08254444  0.55261733  1
  Se  Se117  1  0.08018309  0.41718091  0.05146479  1
  Se  Se118  1  0.08407763  0.40810446  0.56758408  1
  Se  Se119  1  0.08821336  0.76087740  0.05541298  1
  Se  Se120  1  0.07353375  0.73836277  0.55317040  1
  Se  Se121  1  0.40976312  0.06881116  0.05828244  1
  Se  Se122  1  0.41640317  0.08867226  0.55019759  1
  Se  Se123  1  0.40214460  0.39525687  0.05097718  1
  Se  Se124  1  0.41970830  0.42176011  0.55147955  1
  Se  Se125  1  0.40192470  0.73852380  0.06306681  1
  Se  Se126  1  0.40796753  0.74897132  0.56377760  1
  Se  Se127  1  0.75569684  0.08694591  0.05829256  1
  Se  Se128  1  0.74736692  0.08090015  0.56195526  1
  Se  Se129  1  0.74120944  0.41218067  0.06493416  1
  Se  Se130  1  0.75676995  0.41947138  0.54369318  1
  Se  Se131  1  0.74627552  0.74663827  0.05918354  1
  Se  Se132  1  0.74604368  0.74217116  0.55350794  1
  Se  Se133  1  0.25428214  0.24694087  0.04136361  1
  Se  Se134  1  0.25071292  0.24994906  0.55416864  1
  Se  Se135  1  0.24574539  0.58054572  0.05544917  1
  Se  Se136  1  0.25578420  0.58790025  0.56367192  1
  Se  Se137  1  0.24361543  0.91496244  0.05096919  1
  Se  Se138  1  0.24522159  0.91401644  0.54930550  1
  Se  Se139  1  0.58542798  0.24809086  0.06564810  1
  Se  Se140  1  0.58814025  0.25405086  0.54829420  1
  Se  Se141  1  0.57886034  0.57501157  0.05732351  1
  Se  Se142  1  0.58359028  0.58224448  0.54796650  1
  Se  Se143  1  0.59153151  0.91918968  0.06105368  1
  Se  Se144  1  0.58327802  0.92561725  0.56402733  1
  Se  Se145  1  0.91472759  0.25038622  0.05290099  1
  Se  Se146  1  0.92549467  0.25335064  0.56841384  1
  Se  Se147  1  0.92795655  0.59537494  0.05448828  1
  Se  Se148  1  0.90864499  0.57170276  0.54523025  1
  Se  Se149  1  0.92639371  0.92225196  0.06315621  1
  Se  Se150  1  0.92198828  0.91943469  0.55886247  1
  Se  Se151  1  0.08477709  0.24440661  0.46000884  1
  Se  Se152  1  0.08056645  0.24742619  0.94816088  1
  Se  Se153  1  0.08299917  0.58289821  0.43970803  1
  Se  Se154  1  0.08568007  0.58109875  0.94753599  1
  Se  Se155  1  0.08565006  0.91417996  0.44110436  1
  Se  Se156  1  0.08319372  0.91749857  0.94634908  1
  Se  Se157  1  0.41858631  0.25120291  0.44509320  1
  Se  Se158  1  0.40520149  0.24555904  0.92997997  1
  Se  Se159  1  0.41935698  0.58578008  0.45158397  1
  Se  Se160  1  0.41366813  0.57798241  0.94759015  1
  Se  Se161  1  0.40681376  0.92521508  0.43985874  1
  Se  Se162  1  0.41022212  0.91792604  0.93711074  1
  Se  Se163  1  0.74677588  0.25474340  0.43487149  1
  Se  Se164  1  0.74886662  0.24788127  0.95327880  1
  Se  Se165  1  0.75414792  0.57875526  0.43673499  1
  Se  Se166  1  0.74784367  0.58576930  0.94317393  1
  Se  Se167  1  0.73784150  0.92890550  0.44573110  1
  Se  Se168  1  0.74333460  0.92118959  0.94091995  1
  Se  Se169  1  0.24483986  0.08488945  0.44403243  1
  Se  Se170  1  0.24735768  0.08262320  0.94076878  1
  Se  Se171  1  0.25674492  0.40428402  0.43752572  1
  Se  Se172  1  0.22875945  0.43663481  0.94447471  1
  Se  Se173  1  0.24503269  0.75183053  0.45134126  1
  Se  Se174  1  0.24702735  0.75173959  0.94621978  1
  Se  Se175  1  0.57509387  0.09155170  0.44771737  1
  Se  Se176  1  0.58599736  0.07543880  0.94587346  1
  Se  Se177  1  0.58306144  0.42191896  0.44019099  1
  Se  Se178  1  0.57919409  0.41582990  0.95439917  1
  Se  Se179  1  0.59121414  0.74934439  0.44077376  1
  Se  Se180  1  0.58670016  0.73742566  0.94784916  1
  Se  Se181  1  0.92129019  0.07500702  0.44238265  1
  Se  Se182  1  0.91290095  0.08489770  0.94993963  1
  Se  Se183  1  0.94501153  0.39074372  0.44602609  1
  Se  Se184  1  0.92420101  0.41458517  0.93435830  1
  Se  Se185  1  0.92676393  0.74246058  0.43356132  1
  Se  Se186  1  0.93013199  0.74226865  0.94245315  1
  Se  Se187  1  0.23911260  0.24415609  0.30744889  1
  Se  Se188  1  0.24794665  0.26398719  0.80076427  1
  Se  Se189  1  0.24952867  0.57746679  0.31166600  1
  Se  Se190  1  0.25335291  0.58989465  0.80541089  1
  Se  Se191  1  0.24493304  0.91928514  0.29903450  1
  Se  Se192  1  0.25203252  0.91854058  0.80320697  1
  Se  Se193  1  0.58176798  0.24819651  0.30372486  1
  Se  Se194  1  0.57261347  0.24264592  0.81392889  1
  Se  Se195  1  0.58569286  0.59056167  0.29866501  1
  Se  Se196  1  0.58193719  0.57889658  0.81144330  1
  Se  Se197  1  0.58214938  0.91926938  0.30471367  1
  Se  Se198  1  0.58322604  0.92077741  0.80248730  1
  Se  Se199  1  0.90891357  0.24455409  0.31574002  1
  Se  Se200  1  0.91466712  0.24511413  0.81451495  1
  Se  Se201  1  0.92066252  0.58059007  0.30061473  1
  Se  Se202  1  0.92216638  0.59142354  0.79565649  1
  Se  Se203  1  0.92030631  0.91831295  0.30246048  1
  Se  Se204  1  0.92000019  0.91677271  0.80441977  1
  Se  Se205  1  0.07833081  0.08556562  0.30467085  1
  Se  Se206  1  0.07975084  0.07716415  0.80209539  1
  Se  Se207  1  0.09059632  0.42287737  0.30768106  1
  Se  Se208  1  0.09383529  0.41997869  0.80896283  1
  Se  Se209  1  0.08611960  0.74454968  0.29731006  1
  Se  Se210  1  0.08616540  0.74881573  0.80395738  1
  Se  Se211  1  0.41123448  0.08341930  0.30467844  1
  Se  Se212  1  0.41200138  0.08182067  0.79756267  1
  Se  Se213  1  0.42684101  0.42572165  0.30484316  1
  Se  Se214  1  0.41451044  0.41984693  0.80443112  1
  Se  Se215  1  0.41880433  0.75804437  0.31796628  1
  Se  Se216  1  0.41882740  0.74923380  0.80034180  1
  Se  Se217  1  0.74870877  0.07907453  0.30399192  1
  Se  Se218  1  0.74735456  0.08047451  0.80724476  1
  Se  Se219  1  0.75031756  0.41588194  0.30094738  1
  Se  Se220  1  0.76033223  0.42870462  0.80548743  1
  Se  Se221  1  0.75037690  0.75140708  0.30006379  1
  Se  Se222  1  0.75535578  0.75755519  0.81313367  1
  Se  Se223  1  0.24963313  0.08035623  0.19222635  1
  Se  Se224  1  0.26439192  0.06920640  0.69096214  1
  Se  Se225  1  0.24525147  0.41847800  0.18899701  1
  Se  Se226  1  0.25502102  0.42000146  0.70003518  1
  Se  Se227  1  0.24097036  0.75849233  0.19341437  1
  Se  Se228  1  0.25085081  0.75048424  0.69784519  1
  Se  Se229  1  0.58391418  0.07850931  0.20092328  1
  Se  Se230  1  0.58468772  0.08725239  0.69653104  1
  Se  Se231  1  0.59080326  0.40177068  0.20145630  1
  Se  Se232  1  0.57801975  0.42370829  0.69007642  1
  Se  Se233  1  0.57831398  0.74981979  0.19896563  1
  Se  Se234  1  0.57668153  0.75963262  0.68635202  1
  Se  Se235  1  0.91983915  0.09238874  0.19655503  1
  Se  Se236  1  0.91998177  0.07771659  0.70166470  1
  Se  Se237  1  0.91144650  0.42395242  0.18758404  1
  Se  Se238  1  0.91407836  0.42134472  0.68821771  1
  Se  Se239  1  0.91931068  0.74708684  0.19944654  1
  Se  Se240  1  0.91427370  0.75307917  0.69503051  1
  Se  Se241  1  0.09303880  0.25105330  0.18675099  1
  Se  Se242  1  0.09716522  0.23514177  0.69692958  1
  Se  Se243  1  0.08465986  0.58790118  0.19712499  1
  Se  Se244  1  0.08275658  0.58451750  0.69718973  1
  Se  Se245  1  0.06495515  0.94045731  0.19376825  1
  Se  Se246  1  0.08617864  0.91881091  0.69396609  1
  Se  Se247  1  0.42159072  0.23941250  0.18605496  1
  Se  Se248  1  0.41602723  0.25419451  0.69149716  1
  Se  Se249  1  0.42022825  0.57159131  0.19290936  1
  Se  Se250  1  0.41588978  0.58876924  0.69778549  1
  Se  Se251  1  0.41297443  0.91415427  0.19952368  1
  Se  Se252  1  0.41477758  0.92008538  0.69678011  1
  Se  Se253  1  0.74753854  0.25086780  0.20209363  1
  Se  Se254  1  0.75899687  0.24245475  0.69669052  1
  Se  Se255  1  0.74841860  0.58944929  0.19650417  1
  Se  Se256  1  0.75230856  0.58105772  0.68273769  1
  Se  Se257  1  0.75273041  0.92038628  0.19866423  1
  Se  Se258  1  0.74631198  0.91992538  0.70131654  1
