# generated using pymatgen
data_In86Cu29Se144
_symmetry_space_group_name_H-M   'P 1'
_cell_length_a   17.59257412
_cell_length_b   17.59204712
_cell_length_c   23.45309918
_cell_angle_alpha   90.00246697
_cell_angle_beta   90.00654059
_cell_angle_gamma   89.98536805
_symmetry_Int_Tables_number   1
_chemical_formula_structural   In86Cu29Se144
_chemical_formula_sum   'In86 Cu29 Se144'
_cell_volume   7258.48513317
_cell_formula_units_Z   1
loop_
 _symmetry_equiv_pos_site_id
 _symmetry_equiv_pos_as_xyz
  1  'x, y, z'
loop_
 _atom_site_type_symbol
 _atom_site_label
 _atom_site_symmetry_multiplicity
 _atom_site_fract_x
 _atom_site_fract_y
 _atom_site_fract_z
 _atom_site_occupancy
  In  In0  1  -0.00438288  0.15305126  0.10938196  1
  In  In1  1  -0.00479902  0.15723750  0.64445512  1
  In  In2  1  -0.00500232  0.49997633  0.12388415  1
  In  In3  1  -0.00032995  0.50516377  0.63032876  1
  In  In4  1  0.00503694  0.83804788  0.11828159  1
  In  In5  1  -0.00192252  0.83276875  0.62754900  1
  In  In6  1  0.32965687  0.15640055  0.11348722  1
  In  In7  1  0.33948994  0.16355470  0.64251664  1
  In  In8  1  0.34658611  0.49620103  0.12580012  1
  In  In9  1  0.32059466  0.50515328  0.62780731  1
  In  In10  1  0.33242459  0.83181917  0.12714150  1
  In  In11  1  0.33684437  0.84395862  0.62031771  1
  In  In12  1  0.66469897  0.16267586  0.11726608  1
  In  In13  1  0.67244527  0.16106652  0.63178108  1
  In  In14  1  0.64690736  0.50735130  0.12504101  1
  In  In15  1  0.68622856  0.50107701  0.62228436  1
  In  In16  1  0.67909506  0.84251177  0.11527922  1
  In  In17  1  0.65226743  0.82862685  0.62160614  1
  In  In18  1  0.16571652  -0.01590264  0.37124019  1
  In  In19  1  0.16990124  -0.00311577  0.87292966  1
  In  In20  1  0.17894445  0.34237691  0.37864162  1
  In  In21  1  0.15535413  0.32051723  0.86590342  1
  In  In22  1  0.16942536  0.66738576  0.38022337  1
  In  In23  1  0.16350894  0.68328144  0.87323002  1
  In  In24  1  0.49262621  -0.00505939  0.36546647  1
  In  In25  1  0.48863799  0.00716810  0.88081926  1
  In  In26  1  0.50138436  0.31797161  0.36962174  1
  In  In27  1  0.50031803  0.33668707  0.88048431  1
  In  In28  1  0.50570781  0.68726136  0.37195555  1
  In  In29  1  0.51233982  0.65908232  0.88909169  1
  In  In30  1  0.81819801  -0.00860669  0.37095881  1
  In  In31  1  0.83586986  -0.00328793  0.87644747  1
  In  In32  1  0.83255701  0.34386512  0.37538905  1
  In  In33  1  0.83431822  0.31333298  0.87496341  1
  In  In34  1  0.82687809  0.66976885  0.38562832  1
  In  In35  1  0.84017214  0.67439337  0.86714502  1
  In  In36  1  -0.00392444  0.16618344  0.37682578  1
  In  In37  1  0.00070196  0.16377067  0.87160913  1
  In  In38  1  -0.00642332  0.51246555  0.38831025  1
  In  In39  1  -0.00221852  0.49908846  0.86279161  1
  In  In40  1  0.00401424  0.82841450  0.38468307  1
  In  In41  1  -0.00103759  0.83950468  0.86959722  1
  In  In42  1  0.34491061  0.16065784  0.37011980  1
  In  In43  1  0.33569249  0.15848557  0.87069262  1
  In  In44  1  0.31851061  0.50340002  0.38181117  1
  In  In45  1  0.35043452  0.49922852  0.87439257  1
  In  In46  1  0.33362274  0.83862814  0.37010594  1
  In  In47  1  0.32791268  0.84003833  0.88233992  1
  In  In48  1  0.65736560  0.15828213  0.36165145  1
  In  In49  1  0.66615923  0.17626596  0.89070889  1
  In  In50  1  0.67709410  0.50607684  0.37449219  1
  In  In51  1  0.65377021  0.49824783  0.88071688  1
  In  In52  1  0.66534106  0.84058550  0.38042004  1
  In  In53  1  0.67422632  0.82293640  0.88623492  1
  In  In54  1  0.17140188  -0.00077768  0.11932748  1
  In  In55  1  0.17126867  -0.00663078  0.62905194  1
  In  In56  1  0.18152906  0.32668912  0.12062053  1
  In  In57  1  0.15688219  0.33885438  0.63605607  1
  In  In58  1  0.17239448  0.68614820  0.12312582  1
  In  In59  1  0.15932999  0.66020206  0.61980197  1
  In  In60  1  0.50133694  -0.00166019  0.11901543  1
  In  In61  1  0.50241089  -0.01405068  0.63180790  1
  In  In62  1  0.51619739  0.33982561  0.10616079  1
  In  In63  1  0.49938019  0.31969044  0.63338569  1
  In  In64  1  0.49596272  0.65949451  0.11680523  1
  In  In65  1  0.49392219  0.68576718  0.62842836  1
  In  In66  1  0.82075620  -0.01540722  0.11699715  1
  In  In67  1  0.84054675  0.00061472  0.62833604  1
  In  In68  1  0.82853612  0.31461776  0.11564459  1
  In  In69  1  0.83258519  0.34364591  0.62787914  1
  In  In70  1  0.82413211  0.68825292  0.12356835  1
  In  In71  1  0.83326874  0.66967361  0.62999372  1
  In  In72  1  0.16784780  0.49661451  -0.00658493  1
  In  In73  1  0.83135392  0.50276835  -0.00167484  1
  In  In74  1  0.83127134  0.16446846  0.51066252  1
  In  In75  1  0.66320189  0.00446365  0.75916923  1
  In  In76  1  0.66348878  0.67318108  0.25028263  1
  In  In77  1  0.16521220  0.16919194  0.50317431  1
  In  In78  1  0.50109239  0.15967464  0.49891517  1
  In  In79  1  0.00037962  0.33077959  0.25289036  1
  In  In80  1  0.33212711  0.67093581  0.75250940  1
  In  In81  1  0.50132523  0.50372113  0.49866768  1
  In  In82  1  0.00126725  0.66828072  0.25677507  1
  In  In83  1  0.66735519  0.33688323  0.75857820  1
  In  In84  1  0.34178395  0.32825078  0.24630780  1
  In  In85  1  0.00097794  -0.00463593  0.24511608  1
  Cu  Cu86  1  0.32613977  0.33881002  0.50899187  1
  Cu  Cu87  1  0.50055456  0.83209052  0.75391453  1
  Cu  Cu88  1  -0.00282550  0.67881973  -0.00483096  1
  Cu  Cu89  1  0.16716794  0.16355383  0.23971332  1
  Cu  Cu90  1  0.16811192  0.50016455  0.74739601  1
  Cu  Cu91  1  0.16076691  0.83650004  0.74911755  1
  Cu  Cu92  1  0.67209487  0.66764192  0.50306476  1
  Cu  Cu93  1  0.00566572  -0.00187224  -0.00792704  1
  Cu  Cu94  1  0.00196069  0.34492844  0.50823726  1
  Cu  Cu95  1  0.50682325  0.16441395  0.23733758  1
  Cu  Cu96  1  -0.00242034  -0.00625395  0.50344906  1
  Cu  Cu97  1  0.49800676  0.83802978  0.24509601  1
  Cu  Cu98  1  0.33387700  -0.00515388  0.49798247  1
  Cu  Cu99  1  0.83626199  0.50539906  0.74891629  1
  Cu  Cu100  1  0.33297018  0.66748723  -0.00129865  1
  Cu  Cu101  1  0.82985830  0.83592523  0.75224401  1
  Cu  Cu102  1  0.00433892  0.32361703  -0.00642255  1
  Cu  Cu103  1  0.50608084  0.49945816  0.75632157  1
  Cu  Cu104  1  0.33280941  0.68000806  0.50032435  1
  Cu  Cu105  1  0.81980862  0.16187179  0.24258092  1
  Cu  Cu106  1  0.33466019  -0.00433392  -0.00131833  1
  Cu  Cu107  1  0.82297787  0.49353445  0.24964657  1
  Cu  Cu108  1  0.67404110  0.33136098  0.49663588  1
  Cu  Cu109  1  0.66769607  -0.00081228  -0.00251699  1
  Cu  Cu110  1  0.49275113  0.49905350  0.24372578  1
  Cu  Cu111  1  -0.00003236  0.66829795  0.50833286  1
  Cu  Cu112  1  0.33448133  0.32380642  -0.00470698  1
  Cu  Cu113  1  0.16948307  0.15789374  0.75402929  1
  Cu  Cu114  1  0.16633428  0.50893619  0.25541141  1
  Se  Se115  1  0.09093588  0.07968151  0.04713588  1
  Se  Se116  1  0.07294242  0.08103879  0.56198980  1
  Se  Se117  1  0.07691764  0.40675575  0.05762173  1
  Se  Se118  1  0.08762957  0.42365261  0.56141556  1
  Se  Se119  1  0.08629679  0.75379660  0.04941995  1
  Se  Se120  1  0.08460267  0.75554683  0.55631520  1
  Se  Se121  1  0.42086925  0.08153790  0.04745078  1
  Se  Se122  1  0.40753123  0.07741294  0.56133550  1
  Se  Se123  1  0.41113658  0.41300216  0.04953081  1
  Se  Se124  1  0.41722954  0.41232164  0.56397965  1
  Se  Se125  1  0.41332393  0.75049881  0.05466678  1
  Se  Se126  1  0.42011503  0.75990347  0.55167353  1
  Se  Se127  1  0.75455669  0.08185153  0.05016688  1
  Se  Se128  1  0.73632937  0.06836164  0.55858376  1
  Se  Se129  1  0.74534473  0.41949013  0.06399429  1
  Se  Se130  1  0.75650803  0.41485335  0.54915545  1
  Se  Se131  1  0.74324511  0.74626521  0.04558783  1
  Se  Se132  1  0.74957086  0.75174999  0.56017628  1
  Se  Se133  1  0.24683408  0.24317095  0.04588659  1
  Se  Se134  1  0.25530647  0.25113943  0.56835157  1
  Se  Se135  1  0.25313712  0.58340598  0.05897268  1
  Se  Se136  1  0.25543382  0.58988764  0.55236942  1
  Se  Se137  1  0.25200678  0.91220305  0.05307626  1
  Se  Se138  1  0.24540101  0.91737771  0.55142773  1
  Se  Se139  1  0.58317389  0.24035734  0.04504482  1
  Se  Se140  1  0.59459291  0.25373089  0.55786189  1
  Se  Se141  1  0.58650904  0.58871351  0.04755816  1
  Se  Se142  1  0.58671915  0.59063730  0.56366993  1
  Se  Se143  1  0.58397041  0.91510762  0.04995241  1
  Se  Se144  1  0.57772231  0.91921272  0.55418358  1
  Se  Se145  1  0.91621179  0.24372147  0.04515550  1
  Se  Se146  1  0.92896383  0.25384427  0.56496760  1
  Se  Se147  1  0.92231994  0.59777144  0.05870657  1
  Se  Se148  1  0.91518806  0.58461511  0.56036455  1
  Se  Se149  1  0.92169231  0.91951822  0.05097572  1
  Se  Se150  1  0.91279504  0.91403240  0.55726733  1
  Se  Se151  1  0.07438764  0.26357322  0.44234588  1
  Se  Se152  1  0.08937503  0.24022545  0.94398707  1
  Se  Se153  1  0.08557351  0.58829975  0.45148677  1
  Se  Se154  1  0.07391130  0.58954476  0.93914581  1
  Se  Se155  1  0.08612883  0.91754302  0.44943481  1
  Se  Se156  1  0.08772710  0.91130144  0.94148507  1
  Se  Se157  1  0.40468757  0.25881857  0.44694945  1
  Se  Se158  1  0.41756713  0.24296882  0.94094486  1
  Se  Se159  1  0.41264262  0.59687302  0.44005634  1
  Se  Se160  1  0.41713607  0.57931892  0.95137591  1
  Se  Se161  1  0.41913783  0.91720217  0.44206306  1
  Se  Se162  1  0.42140542  0.91135360  0.94965837  1
  Se  Se163  1  0.74638884  0.24454568  0.43639935  1
  Se  Se164  1  0.74472754  0.26817718  0.95387771  1
  Se  Se165  1  0.75142984  0.57785711  0.45249493  1
  Se  Se166  1  0.74797942  0.59283880  0.93637025  1
  Se  Se167  1  0.75924731  0.90960973  0.44893875  1
  Se  Se168  1  0.75531175  0.91622572  0.94745319  1
  Se  Se169  1  0.25552256  0.08193458  0.44037382  1
  Se  Se170  1  0.25267602  0.07872475  0.94273471  1
  Se  Se171  1  0.24408867  0.42270266  0.45653871  1
  Se  Se172  1  0.25607644  0.40629512  0.93380308  1
  Se  Se173  1  0.25073718  0.75891299  0.44265492  1
  Se  Se174  1  0.24693899  0.75004737  0.94848705  1
  Se  Se175  1  0.58910437  0.07243547  0.43813512  1
  Se  Se176  1  0.58162640  0.08208083  0.94759895  1
  Se  Se177  1  0.58666944  0.40668427  0.43868345  1
  Se  Se178  1  0.58507308  0.41180239  0.95124940  1
  Se  Se179  1  0.58848378  0.74983571  0.44898054  1
  Se  Se180  1  0.57371603  0.76078217  0.95210382  1
  Se  Se181  1  0.91855726  0.07613236  0.44377812  1
  Se  Se182  1  0.91890597  0.08275462  0.94317553  1
  Se  Se183  1  0.91497644  0.41672507  0.44891393  1
  Se  Se184  1  0.92639640  0.41424676  0.94027652  1
  Se  Se185  1  0.91708747  0.74799999  0.45058701  1
  Se  Se186  1  0.91401423  0.75820980  0.94014211  1
  Se  Se187  1  0.24245076  0.24271148  0.30605988  1
  Se  Se188  1  0.25192041  0.24587593  0.80350293  1
  Se  Se189  1  0.25222674  0.58868188  0.30716863  1
  Se  Se190  1  0.24437313  0.57771100  0.81338862  1
  Se  Se191  1  0.26437437  0.93373791  0.30190899  1
  Se  Se192  1  0.25124326  0.91039293  0.80341850  1
  Se  Se193  1  0.58365120  0.25068398  0.29423164  1
  Se  Se194  1  0.57826321  0.24155921  0.81113755  1
  Se  Se195  1  0.57334110  0.57643291  0.30820863  1
  Se  Se196  1  0.58478973  0.58645121  0.80776154  1
  Se  Se197  1  0.58435638  0.91172349  0.30385329  1
  Se  Se198  1  0.57928535  0.90894369  0.81773864  1
  Se  Se199  1  0.90160313  0.23802161  0.30553929  1
  Se  Se200  1  0.93155757  0.26120544  0.80485381  1
  Se  Se201  1  0.90300231  0.57517222  0.30912756  1
  Se  Se202  1  0.92173443  0.59096648  0.79814946  1
  Se  Se203  1  0.91783824  0.90845199  0.31128145  1
  Se  Se204  1  0.91457949  0.92196695  0.80059872  1
  Se  Se205  1  0.08760906  0.09252974  0.30674257  1
  Se  Se206  1  0.08259147  0.07609589  0.80474249  1
  Se  Se207  1  0.08572486  0.42745177  0.31345708  1
  Se  Se208  1  0.08436590  0.41541956  0.79929882  1
  Se  Se209  1  0.09466564  0.76107017  0.30834690  1
  Se  Se210  1  0.07800144  0.75070982  0.79963331  1
  Se  Se211  1  0.42124805  0.08712046  0.29499667  1
  Se  Se212  1  0.41304164  0.07196366  0.80098726  1
  Se  Se213  1  0.41896628  0.42379760  0.31363742  1
  Se  Se214  1  0.42170846  0.41265667  0.80296681  1
  Se  Se215  1  0.41721842  0.75367318  0.30038341  1
  Se  Se216  1  0.42292634  0.75107652  0.81699998  1
  Se  Se217  1  0.74480508  0.07451169  0.29796234  1
  Se  Se218  1  0.75177978  0.09702621  0.81628538  1
  Se  Se219  1  0.74120281  0.41129933  0.30369134  1
  Se  Se220  1  0.76112363  0.42665510  0.81542155  1
  Se  Se221  1  0.75806792  0.75611999  0.30996923  1
  Se  Se222  1  0.74514854  0.75262873  0.80377417  1
  Se  Se223  1  0.25259770  0.08178987  0.19030852  1
  Se  Se224  1  0.25191040  0.07403413  0.70010057  1
  Se  Se225  1  0.24292328  0.42377299  0.19529055  1
  Se  Se226  1  0.25415201  0.41535395  0.69910157  1
  Se  Se227  1  0.25649852  0.74565173  0.19861921  1
  Se  Se228  1  0.24413250  0.75655288  0.68821042  1
  Se  Se229  1  0.58945311  0.07618658  0.18886958  1
  Se  Se230  1  0.57145518  0.09187568  0.69565674  1
  Se  Se231  1  0.57533717  0.41446333  0.19269263  1
  Se  Se232  1  0.58374659  0.42463744  0.68840508  1
  Se  Se233  1  0.57756133  0.75702442  0.18452025  1
  Se  Se234  1  0.58442111  0.74898998  0.70139892  1
  Se  Se235  1  0.90934934  0.08605621  0.18707080  1
  Se  Se236  1  0.89889939  0.08520647  0.70565901  1
  Se  Se237  1  0.90708777  0.41648217  0.19059222  1
  Se  Se238  1  0.91809583  0.41788004  0.69818895  1
  Se  Se239  1  0.91709473  0.75995522  0.19335054  1
  Se  Se240  1  0.91539073  0.75298394  0.69875684  1
  Se  Se241  1  0.08388424  0.24398208  0.18440294  1
  Se  Se242  1  0.08618379  0.24373806  0.70198401  1
  Se  Se243  1  0.08738036  0.57976743  0.18931485  1
  Se  Se244  1  0.08535351  0.58821739  0.69852806  1
  Se  Se245  1  0.09723697  0.90648709  0.19251209  1
  Se  Se246  1  0.07790233  0.92092496  0.69597187  1
  Se  Se247  1  0.42430436  0.24505651  0.17863635  1
  Se  Se248  1  0.41593296  0.25395430  0.70666223  1
  Se  Se249  1  0.41422212  0.58888061  0.19500103  1
  Se  Se250  1  0.42468902  0.57802187  0.69332317  1
  Se  Se251  1  0.41634192  0.92179233  0.19105628  1
  Se  Se252  1  0.41394444  0.91179353  0.70103274  1
  Se  Se253  1  0.74249254  0.25001017  0.19023749  1
  Se  Se254  1  0.75833147  0.24705750  0.69656343  1
  Se  Se255  1  0.75429472  0.58126045  0.18866889  1
  Se  Se256  1  0.74743821  0.58600493  0.69898608  1
  Se  Se257  1  0.75388059  0.90834787  0.19558604  1
  Se  Se258  1  0.74532719  0.91383123  0.69274329  1
