# generated using pymatgen
data_In86Cu29Se144
_symmetry_space_group_name_H-M   'P 1'
_cell_length_a   17.58844363
_cell_length_b   17.58899919
_cell_length_c   23.45164613
_cell_angle_alpha   89.95958574
_cell_angle_beta   89.98288534
_cell_angle_gamma   90.00210922
_symmetry_Int_Tables_number   1
_chemical_formula_structural   In86Cu29Se144
_chemical_formula_sum   'In86 Cu29 Se144'
_cell_volume   7255.07229880
_cell_formula_units_Z   1
loop_
 _symmetry_equiv_pos_site_id
 _symmetry_equiv_pos_as_xyz
  1  'x, y, z'
loop_
 _atom_site_type_symbol
 _atom_site_label
 _atom_site_symmetry_multiplicity
 _atom_site_fract_x
 _atom_site_fract_y
 _atom_site_fract_z
 _atom_site_occupancy
  In  In0  1  0.01360585  0.17534060  0.12606615  1
  In  In1  1  0.00103329  0.16922623  0.62525872  1
  In  In2  1  0.00414655  0.49745985  0.12361166  1
  In  In3  1  0.01263471  0.48565405  0.63347882  1
  In  In4  1  -0.01713762  0.83210053  0.12582887  1
  In  In5  1  0.00019874  0.84588581  0.62205094  1
  In  In6  1  0.33885237  0.16094240  0.13122868  1
  In  In7  1  0.31776101  0.17945952  0.63258492  1
  In  In8  1  0.32063574  0.48129934  0.10464875  1
  In  In9  1  0.32157955  0.49830182  0.62893161  1
  In  In10  1  0.34697977  0.83266933  0.12703366  1
  In  In11  1  0.34668029  0.82916569  0.62871393  1
  In  In12  1  0.65639632  0.17947287  0.12913376  1
  In  In13  1  0.67206760  0.17744323  0.62771060  1
  In  In14  1  0.65497177  0.48967723  0.10763173  1
  In  In15  1  0.66295516  0.50307623  0.64438647  1
  In  In16  1  0.67139111  0.83394484  0.11999430  1
  In  In17  1  0.65986826  0.82885089  0.62101965  1
  In  In18  1  0.18456308  -0.00072998  0.37442851  1
  In  In19  1  0.17153121  0.00702199  0.86209002  1
  In  In20  1  0.16407748  0.33198223  0.37916219  1
  In  In21  1  0.16972663  0.34682629  0.86973015  1
  In  In22  1  0.14810201  0.66734941  0.36974795  1
  In  In23  1  0.16354537  0.65035843  0.87270819  1
  In  In24  1  0.48985558  -0.00462472  0.37051101  1
  In  In25  1  0.49387714  0.00710122  0.88280150  1
  In  In26  1  0.49779896  0.33271289  0.36288256  1
  In  In27  1  0.49163642  0.33126610  0.87537476  1
  In  In28  1  0.51347933  0.67024748  0.37331926  1
  In  In29  1  0.52320111  0.64496082  0.89166264  1
  In  In30  1  0.81884147  0.00029373  0.37216680  1
  In  In31  1  0.83202000  -0.00977550  0.87546708  1
  In  In32  1  0.83694601  0.33505644  0.36502342  1
  In  In33  1  0.84583792  0.34557397  0.87305650  1
  In  In34  1  0.84650631  0.66287818  0.37432674  1
  In  In35  1  0.82347480  0.66537023  0.88551776  1
  In  In36  1  0.00480785  0.18151751  0.37524035  1
  In  In37  1  0.00876896  0.17556032  0.86501578  1
  In  In38  1  0.00319590  0.50259980  0.37040892  1
  In  In39  1  0.01218851  0.47909452  0.89831579  1
  In  In40  1  0.00272496  0.81581358  0.37439115  1
  In  In41  1  -0.01482849  0.83083260  0.87256262  1
  In  In42  1  0.32395662  0.16091692  0.37383900  1
  In  In43  1  0.34460606  0.17990075  0.86968620  1
  In  In44  1  0.33212571  0.48388616  0.37148369  1
  In  In45  1  0.34599469  0.47381773  0.88875992  1
  In  In46  1  0.33005295  0.84964936  0.37472906  1
  In  In47  1  0.34015496  0.84542845  0.87192883  1
  In  In48  1  0.67159700  0.16852842  0.36351585  1
  In  In49  1  0.64795467  0.16629023  0.88034085  1
  In  In50  1  0.67585733  0.49891512  0.36746473  1
  In  In51  1  0.66296592  0.50167965  0.87470289  1
  In  In52  1  0.65688194  0.83897646  0.37933733  1
  In  In53  1  0.67334951  0.81965887  0.88963784  1
  In  In54  1  0.17018010  0.01418865  0.12960519  1
  In  In55  1  0.15791990  0.01159800  0.62938843  1
  In  In56  1  0.16197150  0.34269176  0.13139565  1
  In  In57  1  0.16706570  0.33616272  0.62264820  1
  In  In58  1  0.16891745  0.65213301  0.12690686  1
  In  In59  1  0.17132885  0.64872710  0.62435474  1
  In  In60  1  0.50090721  0.00280747  0.12759423  1
  In  In61  1  0.49839783  -0.01452927  0.62913157  1
  In  In62  1  0.49724196  0.33188394  0.11815465  1
  In  In63  1  0.49297681  0.34293659  0.64371761  1
  In  In64  1  0.50841587  0.66267154  0.10452548  1
  In  In65  1  0.49801504  0.67915733  0.62886046  1
  In  In66  1  0.82841843  -0.02015495  0.12249371  1
  In  In67  1  0.84513278  0.00187856  0.62302462  1
  In  In68  1  0.83389550  0.33832946  0.12474585  1
  In  In69  1  0.83130522  0.33708094  0.63455702  1
  In  In70  1  0.83439752  0.67061322  0.11755386  1
  In  In71  1  0.82193416  0.66442401  0.62670545  1
  In  In72  1  0.49906130  0.16355379  0.50263676  1
  In  In73  1  0.83853741  0.49996664  0.49900247  1
  In  In74  1  0.16723418  0.83419243  0.49731470  1
  In  In75  1  0.49747753  0.50495384  0.50339619  1
  In  In76  1  0.83607116  0.16939647  0.50548568  1
  In  In77  1  0.83368352  0.16967409  0.00668254  1
  In  In78  1  0.34206885  0.65713615  0.75706488  1
  In  In79  1  -0.00577001  0.66132125  0.75108024  1
  In  In80  1  0.67018828  0.66286856  0.23780667  1
  In  In81  1  0.16586984  0.83129710  -0.00183321  1
  In  In82  1  -0.00198710  -0.00097274  0.24721630  1
  In  In83  1  0.17490922  0.17814137  -0.00692308  1
  In  In84  1  0.33699382  0.66378625  0.23798670  1
  In  In85  1  0.66530471  0.00562253  0.75304051  1
  Cu  Cu86  1  -0.00308219  0.00102254  0.50152165  1
  Cu  Cu87  1  0.50683419  0.83208766  0.75379948  1
  Cu  Cu88  1  -0.00528499  0.66414112  0.00029919  1
  Cu  Cu89  1  0.49784820  0.49156334  0.23525106  1
  Cu  Cu90  1  0.33573813  -0.00096524  0.50092833  1
  Cu  Cu91  1  0.16272031  0.16627460  0.74614209  1
  Cu  Cu92  1  0.32469029  0.32978821  0.49993979  1
  Cu  Cu93  1  0.49854559  0.83973754  0.25013757  1
  Cu  Cu94  1  0.83777427  0.49164179  0.24585699  1
  Cu  Cu95  1  0.83269267  0.50648585  0.75875144  1
  Cu  Cu96  1  0.49184232  0.16541292  0.75714521  1
  Cu  Cu97  1  0.50333239  0.16986211  0.24692854  1
  Cu  Cu98  1  0.66706086  0.67851457  0.50302519  1
  Cu  Cu99  1  0.16723850  0.49673451  0.24811518  1
  Cu  Cu100  1  0.82877306  0.83673135  0.75620783  1
  Cu  Cu101  1  0.33388031  0.66680281  0.50256906  1
  Cu  Cu102  1  0.16732341  0.83340998  0.74593271  1
  Cu  Cu103  1  -0.00068466  0.66258333  0.49795396  1
  Cu  Cu104  1  0.83383203  0.17478331  0.74990428  1
  Cu  Cu105  1  0.66334997  0.33054712  -0.00320722  1
  Cu  Cu106  1  0.66638243  0.33797295  0.49987704  1
  Cu  Cu107  1  0.66163094  -0.00536337  0.00216708  1
  Cu  Cu108  1  0.82818174  0.82656408  0.24654559  1
  Cu  Cu109  1  0.83400940  0.16650895  0.24565960  1
  Cu  Cu110  1  0.33895298  0.00305329  0.00342122  1
  Cu  Cu111  1  0.17275300  0.17360225  0.25224195  1
  Cu  Cu112  1  -0.00234947  -0.00049145  -0.00431988  1
  Cu  Cu113  1  0.33308332  0.66636424  -0.00125629  1
  Cu  Cu114  1  0.66201582  -0.00760993  0.49700694  1
  Se  Se115  1  0.08081199  0.07970617  0.05153751  1
  Se  Se116  1  0.07910304  0.08483009  0.55357098  1
  Se  Se117  1  0.09537656  0.42427235  0.05523021  1
  Se  Se118  1  0.08879278  0.42391669  0.55393648  1
  Se  Se119  1  0.07655150  0.74457371  0.06089352  1
  Se  Se120  1  0.08095632  0.74132841  0.56106837  1
  Se  Se121  1  0.41973714  0.08675873  0.05692078  1
  Se  Se122  1  0.40954758  0.07871890  0.56637480  1
  Se  Se123  1  0.43965064  0.43601987  0.05152145  1
  Se  Se124  1  0.41142975  0.40636621  0.55838620  1
  Se  Se125  1  0.41456503  0.75204742  0.05021593  1
  Se  Se126  1  0.41847874  0.75055879  0.55187450  1
  Se  Se127  1  0.74199038  0.07681609  0.06261202  1
  Se  Se128  1  0.73796351  0.07560142  0.55839196  1
  Se  Se129  1  0.75188783  0.40903423  0.04885519  1
  Se  Se130  1  0.74135614  0.41924859  0.56189230  1
  Se  Se131  1  0.75129943  0.75304242  0.05129272  1
  Se  Se132  1  0.75593145  0.75575640  0.55525198  1
  Se  Se133  1  0.25586162  0.25518078  0.06602387  1
  Se  Se134  1  0.24308795  0.24479859  0.55178317  1
  Se  Se135  1  0.24567021  0.58461205  0.04841368  1
  Se  Se136  1  0.25297224  0.57764209  0.54994104  1
  Se  Se137  1  0.25285955  0.92428811  0.05985265  1
  Se  Se138  1  0.25471624  0.91878576  0.56335232  1
  Se  Se139  1  0.58028247  0.24606830  0.04923057  1
  Se  Se140  1  0.58295030  0.26315701  0.56113430  1
  Se  Se141  1  0.61446438  0.60254786  0.04208948  1
  Se  Se142  1  0.59350711  0.59015877  0.56256530  1
  Se  Se143  1  0.57818067  0.91483782  0.05824364  1
  Se  Se144  1  0.57787093  0.91429235  0.55324371  1
  Se  Se145  1  0.93210193  0.25970803  0.05639939  1
  Se  Se146  1  0.92111241  0.26749920  0.55887124  1
  Se  Se147  1  0.91631295  0.57898845  0.05549598  1
  Se  Se148  1  0.92488481  0.58649047  0.56536576  1
  Se  Se149  1  0.91645844  0.91418268  0.04809533  1
  Se  Se150  1  0.91257992  0.91446000  0.54882067  1
  Se  Se151  1  0.08842010  0.24511472  0.44955202  1
  Se  Se152  1  0.07378749  0.26162759  0.94182501  1
  Se  Se153  1  0.08290785  0.58131369  0.44481174  1
  Se  Se154  1  0.08620881  0.58512737  0.95234004  1
  Se  Se155  1  0.07621445  0.92404603  0.43681861  1
  Se  Se156  1  0.08087867  0.92322073  0.93471970  1
  Se  Se157  1  0.41441084  0.25735214  0.44103652  1
  Se  Se158  1  0.41889205  0.24514486  0.94864582  1
  Se  Se159  1  0.41115454  0.58970677  0.43559424  1
  Se  Se160  1  0.41526007  0.57853514  0.94878731  1
  Se  Se161  1  0.41853955  0.91589466  0.44823009  1
  Se  Se162  1  0.41714839  0.91526187  0.95040330  1
  Se  Se163  1  0.74526650  0.25693140  0.44096281  1
  Se  Se164  1  0.74761313  0.25174958  0.93802361  1
  Se  Se165  1  0.74131785  0.59258839  0.44256244  1
  Se  Se166  1  0.73187891  0.58846120  0.95115301  1
  Se  Se167  1  0.75114823  0.91339983  0.44563065  1
  Se  Se168  1  0.75149636  0.91794685  0.94968995  1
  Se  Se169  1  0.25050592  0.08290166  0.45099091  1
  Se  Se170  1  0.25776605  0.07601509  0.93920248  1
  Se  Se171  1  0.24790212  0.41932620  0.44706152  1
  Se  Se172  1  0.24428815  0.40922733  0.95195285  1
  Se  Se173  1  0.25484388  0.74232771  0.43650322  1
  Se  Se174  1  0.25488938  0.74421111  0.93476045  1
  Se  Se175  1  0.59097376  0.08143322  0.43775721  1
  Se  Se176  1  0.57891377  0.08292242  0.95445811  1
  Se  Se177  1  0.58676193  0.41620202  0.43838186  1
  Se  Se178  1  0.58129539  0.41306383  0.94149771  1
  Se  Se179  1  0.57770415  0.75388354  0.44957877  1
  Se  Se180  1  0.55932944  0.76781853  0.94555208  1
  Se  Se181  1  0.91818620  0.07958816  0.43783959  1
  Se  Se182  1  0.92117966  0.08498080  0.93776091  1
  Se  Se183  1  0.92374941  0.40703266  0.44014214  1
  Se  Se184  1  0.89934494  0.42623098  0.95582427  1
  Se  Se185  1  0.91563665  0.74843441  0.44871546  1
  Se  Se186  1  0.91472216  0.75078419  0.94778812  1
  Se  Se187  1  0.25354859  0.25673093  0.30818690  1
  Se  Se188  1  0.23970631  0.24437896  0.80868249  1
  Se  Se189  1  0.24834612  0.58077231  0.30709751  1
  Se  Se190  1  0.25276799  0.56484235  0.81221940  1
  Se  Se191  1  0.24652914  0.91344267  0.29968051  1
  Se  Se192  1  0.25197600  0.91445527  0.79965682  1
  Se  Se193  1  0.58832764  0.25435441  0.29884904  1
  Se  Se194  1  0.57931375  0.24802918  0.80553953  1
  Se  Se195  1  0.57493357  0.57226914  0.29888746  1
  Se  Se196  1  0.58673199  0.58810736  0.80388277  1
  Se  Se197  1  0.58351982  0.91965309  0.30470827  1
  Se  Se198  1  0.58258998  0.91530196  0.81602175  1
  Se  Se199  1  0.91850030  0.24686468  0.30010541  1
  Se  Se200  1  0.91901517  0.25741967  0.80193833  1
  Se  Se201  1  0.91557791  0.57945069  0.30038826  1
  Se  Se202  1  0.91557626  0.57800921  0.82207145  1
  Se  Se203  1  0.90823093  0.90787817  0.30849131  1
  Se  Se204  1  0.91776979  0.92167465  0.80058050  1
  Se  Se205  1  0.08922522  0.08753325  0.30879612  1
  Se  Se206  1  0.07735054  0.08068680  0.79742989  1
  Se  Se207  1  0.08620574  0.41535236  0.30589370  1
  Se  Se208  1  0.06855220  0.41759903  0.80906833  1
  Se  Se209  1  0.08367922  0.75414054  0.29694976  1
  Se  Se210  1  0.08926145  0.75462382  0.80869784  1
  Se  Se211  1  0.41954620  0.09168881  0.30632687  1
  Se  Se212  1  0.41138427  0.07619862  0.80620985  1
  Se  Se213  1  0.41502386  0.41631713  0.29553882  1
  Se  Se214  1  0.41118847  0.41105612  0.80319810  1
  Se  Se215  1  0.42134890  0.75220382  0.30765854  1
  Se  Se216  1  0.42894275  0.74994175  0.81507725  1
  Se  Se217  1  0.74996157  0.08085372  0.29577498  1
  Se  Se218  1  0.75602594  0.09547455  0.81339029  1
  Se  Se219  1  0.74822256  0.41278044  0.29756218  1
  Se  Se220  1  0.75029894  0.41819024  0.80807722  1
  Se  Se221  1  0.74963490  0.74813617  0.31081509  1
  Se  Se222  1  0.75101155  0.75105680  0.81042700  1
  Se  Se223  1  0.25336341  0.08413297  0.20315363  1
  Se  Se224  1  0.25080531  0.08007876  0.69857119  1
  Se  Se225  1  0.25776557  0.42113949  0.19452411  1
  Se  Se226  1  0.26059716  0.40050173  0.69460473  1
  Se  Se227  1  0.24218798  0.75817160  0.18773141  1
  Se  Se228  1  0.24730300  0.74705456  0.69168838  1
  Se  Se229  1  0.58666650  0.08378692  0.19633462  1
  Se  Se230  1  0.57329857  0.09335228  0.69010887  1
  Se  Se231  1  0.58817237  0.41117758  0.18702807  1
  Se  Se232  1  0.59262242  0.40696581  0.70644587  1
  Se  Se233  1  0.57040217  0.75299605  0.18815529  1
  Se  Se234  1  0.58864529  0.75031773  0.69861665  1
  Se  Se235  1  0.91068142  0.08709099  0.18189835  1
  Se  Se236  1  0.91320366  0.08982341  0.69433941  1
  Se  Se237  1  0.92483939  0.41049970  0.19423172  1
  Se  Se238  1  0.91208647  0.42473350  0.69996030  1
  Se  Se239  1  0.91267172  0.74258665  0.19668479  1
  Se  Se240  1  0.91000602  0.75939553  0.69179513  1
  Se  Se241  1  0.08533938  0.25416815  0.20148542  1
  Se  Se242  1  0.08254697  0.25271404  0.69281319  1
  Se  Se243  1  0.08182517  0.58129244  0.19798385  1
  Se  Se244  1  0.09721604  0.57232535  0.70348905  1
  Se  Se245  1  0.08628675  0.91179823  0.18540772  1
  Se  Se246  1  0.08196892  0.91748018  0.69533707  1
  Se  Se247  1  0.41946356  0.25313484  0.19397273  1
  Se  Se248  1  0.41014797  0.24882911  0.70171263  1
  Se  Se249  1  0.42510322  0.57714990  0.17530410  1
  Se  Se250  1  0.42805030  0.57312513  0.68895437  1
  Se  Se251  1  0.41386409  0.92299037  0.19832668  1
  Se  Se252  1  0.41711223  0.91279245  0.70392368  1
  Se  Se253  1  0.75285082  0.25252335  0.19288383  1
  Se  Se254  1  0.74455859  0.25683363  0.70207533  1
  Se  Se255  1  0.75616335  0.56731120  0.18256136  1
  Se  Se256  1  0.75046881  0.59094214  0.70516578  1
  Se  Se257  1  0.74401825  0.91273713  0.19825355  1
  Se  Se258  1  0.75355192  0.91627269  0.69077646  1
