# generated using pymatgen
data_In86Cu29Se144
_symmetry_space_group_name_H-M   'P 1'
_cell_length_a   17.58110661
_cell_length_b   17.58040355
_cell_length_c   23.43305510
_cell_angle_alpha   90.01095161
_cell_angle_beta   90.01238259
_cell_angle_gamma   90.01444959
_symmetry_Int_Tables_number   1
_chemical_formula_structural   In86Cu29Se144
_chemical_formula_sum   'In86 Cu29 Se144'
_cell_volume   7242.75724435
_cell_formula_units_Z   1
loop_
 _symmetry_equiv_pos_site_id
 _symmetry_equiv_pos_as_xyz
  1  'x, y, z'
loop_
 _atom_site_type_symbol
 _atom_site_label
 _atom_site_symmetry_multiplicity
 _atom_site_fract_x
 _atom_site_fract_y
 _atom_site_fract_z
 _atom_site_occupancy
  In  In0  1  -0.00019127  0.16643395  0.11342810  1
  In  In1  1  0.01103023  0.16205832  0.62544613  1
  In  In2  1  0.00099584  0.49681268  0.12574322  1
  In  In3  1  -0.00682635  0.49668939  0.62720209  1
  In  In4  1  -0.01865427  0.84975925  0.13422664  1
  In  In5  1  -0.00567058  0.82618106  0.61142654  1
  In  In6  1  0.32775194  0.18225422  0.13941838  1
  In  In7  1  0.32004742  0.17829670  0.63283474  1
  In  In8  1  0.31848361  0.48289909  0.11915765  1
  In  In9  1  0.33186833  0.48258119  0.62546169  1
  In  In10  1  0.34208760  0.83879071  0.12693050  1
  In  In11  1  0.33245406  0.85029353  0.62267062  1
  In  In12  1  0.67525396  0.15946577  0.13586163  1
  In  In13  1  0.67149066  0.17844661  0.62204446  1
  In  In14  1  0.67416038  0.49556473  0.12161422  1
  In  In15  1  0.67738859  0.51299959  0.60533863  1
  In  In16  1  0.67492849  0.82896034  0.13355702  1
  In  In17  1  0.67917313  0.82671479  0.62308481  1
  In  In18  1  0.16409227  0.00304379  0.36965095  1
  In  In19  1  0.16978257  0.00469347  0.87636963  1
  In  In20  1  0.15110264  0.31907706  0.37104349  1
  In  In21  1  0.16945386  0.32590742  0.88322265  1
  In  In22  1  0.16736779  0.68111357  0.37569411  1
  In  In23  1  0.15153072  0.66752561  0.87609692  1
  In  In24  1  0.50351121  0.01013099  0.36115670  1
  In  In25  1  0.48637057  0.01142879  0.87955527  1
  In  In26  1  0.50982440  0.34373109  0.35775705  1
  In  In27  1  0.50384149  0.34209740  0.87798738  1
  In  In28  1  0.50380750  0.65070578  0.37746362  1
  In  In29  1  0.49749499  0.64802020  0.87269276  1
  In  In30  1  0.82779225  -0.00967487  0.36564209  1
  In  In31  1  0.84228527  -0.00413881  0.89297564  1
  In  In32  1  0.83806662  0.34381624  0.36460641  1
  In  In33  1  0.84579880  0.31839690  0.90553720  1
  In  In34  1  0.83146959  0.66140465  0.36826759  1
  In  In35  1  0.83778357  0.66367083  0.87620497  1
  In  In36  1  0.01165552  0.17677832  0.36939699  1
  In  In37  1  -0.01073279  0.17972877  0.90135276  1
  In  In38  1  -0.01887831  0.48537673  0.36466215  1
  In  In39  1  0.02497090  0.46668293  0.91508169  1
  In  In40  1  0.00082490  0.83223069  0.36727197  1
  In  In41  1  -0.00577203  0.83081569  0.87685365  1
  In  In42  1  0.32437487  0.15843966  0.36417652  1
  In  In43  1  0.32081589  0.16121011  0.87469481  1
  In  In44  1  0.34349687  0.49772862  0.37280697  1
  In  In45  1  0.34913167  0.48393128  0.88015137  1
  In  In46  1  0.32187503  0.84078349  0.37682563  1
  In  In47  1  0.31779349  0.84623042  0.87297759  1
  In  In48  1  0.66449540  0.17243185  0.34713544  1
  In  In49  1  0.67870066  0.17311285  0.88466927  1
  In  In50  1  0.67129037  0.50329607  0.36554892  1
  In  In51  1  0.67651759  0.47693271  0.89723416  1
  In  In52  1  0.67545006  0.83405876  0.37009472  1
  In  In53  1  0.67504683  0.83399021  0.87591757  1
  In  In54  1  0.14218193  0.02690266  0.13245325  1
  In  In55  1  0.17180359  0.01396142  0.61559756  1
  In  In56  1  0.15765710  0.33415799  0.12046773  1
  In  In57  1  0.17185398  0.33042908  0.62987631  1
  In  In58  1  0.16194318  0.64903795  0.12481567  1
  In  In59  1  0.15059318  0.66706729  0.61965199  1
  In  In60  1  0.49080324  0.01908620  0.14816189  1
  In  In61  1  0.48916500  -0.00846263  0.62208431  1
  In  In62  1  0.49276171  0.33479429  0.13200813  1
  In  In63  1  0.49402116  0.33072616  0.62154918  1
  In  In64  1  0.51676422  0.65804188  0.13115649  1
  In  In65  1  0.51608476  0.66062333  0.62094648  1
  In  In66  1  0.84069251  -0.00353732  0.12087484  1
  In  In67  1  0.84606220  -0.00045031  0.62196916  1
  In  In68  1  0.83964961  0.33085713  0.11912700  1
  In  In69  1  0.82923429  0.34421056  0.62822601  1
  In  In70  1  0.83163740  0.66921638  0.12845237  1
  In  In71  1  0.83787614  0.66977435  0.61498613  1
  In  In72  1  0.49426839  0.16781232  0.48612347  1
  In  In73  1  0.66856944  0.66584035  0.74742431  1
  In  In74  1  0.33047385  0.66574858  0.75235538  1
  In  In75  1  0.33429361  0.66781665  0.25615892  1
  In  In76  1  0.16454528  0.50153922  0.49950935  1
  In  In77  1  -0.00848953  0.66250666  0.74539605  1
  In  In78  1  0.00588409  0.00061373  0.75708058  1
  In  In79  1  0.65980414  0.00649917  0.74256843  1
  In  In80  1  0.66061453  0.33687528  0.75662018  1
  In  In81  1  0.49949946  0.83270459  0.49112231  1
  In  In82  1  0.50641485  0.16946060  0.00909314  1
  In  In83  1  0.83971256  0.17084730  0.49150481  1
  In  In84  1  0.51134151  0.82996303  0.01161649  1
  In  In85  1  0.16266843  0.83107660  -0.00118185  1
  Cu  Cu86  1  0.50057511  0.50087216  0.24560464  1
  Cu  Cu87  1  0.66752647  0.66702655  0.00761733  1
  Cu  Cu88  1  0.50477364  0.49400748  0.74822865  1
  Cu  Cu89  1  0.49021762  0.84478588  0.75229119  1
  Cu  Cu90  1  0.16796286  0.48869195  0.76260716  1
  Cu  Cu91  1  0.48524070  0.16629851  0.75131229  1
  Cu  Cu92  1  0.32882007  -0.00133603  0.00560356  1
  Cu  Cu93  1  0.16382558  0.49056526  0.24788574  1
  Cu  Cu94  1  0.32286702  0.00990844  0.49732375  1
  Cu  Cu95  1  0.66879012  0.34095522  0.48613736  1
  Cu  Cu96  1  0.33687238  0.66895808  0.49670242  1
  Cu  Cu97  1  0.84313257  0.49606452  0.75464748  1
  Cu  Cu98  1  0.83881299  0.17038813  0.76848536  1
  Cu  Cu99  1  0.83758152  0.83183739  0.25024714  1
  Cu  Cu100  1  0.16642605  0.84341393  0.74181010  1
  Cu  Cu101  1  0.50332725  0.83566213  0.25092887  1
  Cu  Cu102  1  0.67213725  -0.00113970  0.49154048  1
  Cu  Cu103  1  0.84655530  0.16659612  0.24245394  1
  Cu  Cu104  1  0.33336217  0.33152146  0.49878067  1
  Cu  Cu105  1  0.16815458  0.83729909  0.24787389  1
  Cu  Cu106  1  0.33867179  0.65478281  -0.00059614  1
  Cu  Cu107  1  0.00160241  -0.00942085  0.49348972  1
  Cu  Cu108  1  0.33424204  0.32870184  0.00561755  1
  Cu  Cu109  1  -0.00203005  0.66787653  0.49113636  1
  Cu  Cu110  1  0.67094036  -0.00489196  0.01121546  1
  Cu  Cu111  1  -0.00576774  0.67168779  0.00597209  1
  Cu  Cu112  1  0.16244656  0.17210909  0.75338817  1
  Cu  Cu113  1  0.16239150  0.16903885  0.24622079  1
  Cu  Cu114  1  0.83031164  0.49721726  0.24194795  1
  Se  Se115  1  0.08526510  0.08560357  0.04332626  1
  Se  Se116  1  0.07669991  0.08124434  0.54701451  1
  Se  Se117  1  0.09019653  0.42975228  0.05182064  1
  Se  Se118  1  0.07932900  0.41060854  0.56056736  1
  Se  Se119  1  0.07767925  0.74851493  0.06679279  1
  Se  Se120  1  0.08440160  0.75015747  0.54403372  1
  Se  Se121  1  0.40867143  0.08145403  0.06453609  1
  Se  Se122  1  0.40851362  0.08613542  0.55724471  1
  Se  Se123  1  0.41893314  0.41379834  0.05568587  1
  Se  Se124  1  0.41739257  0.41540785  0.55051834  1
  Se  Se125  1  0.41381473  0.73561057  0.06203313  1
  Se  Se126  1  0.41336077  0.74766126  0.56208984  1
  Se  Se127  1  0.75202340  0.08497304  0.05847810  1
  Se  Se128  1  0.74601869  0.07951413  0.55637668  1
  Se  Se129  1  0.77546843  0.43489138  0.05345972  1
  Se  Se130  1  0.75383399  0.41222894  0.54802476  1
  Se  Se131  1  0.75014785  0.75356941  0.05649340  1
  Se  Se132  1  0.73997249  0.73778577  0.55127419  1
  Se  Se133  1  0.25119847  0.24744955  0.05915151  1
  Se  Se134  1  0.24918200  0.25248305  0.55370989  1
  Se  Se135  1  0.24874202  0.57947844  0.05230141  1
  Se  Se136  1  0.25860688  0.59014677  0.56260878  1
  Se  Se137  1  0.24722552  0.91914914  0.06420914  1
  Se  Se138  1  0.24604109  0.91858326  0.54977925  1
  Se  Se139  1  0.59434598  0.25582681  0.06943972  1
  Se  Se140  1  0.59003676  0.25848391  0.54739700  1
  Se  Se141  1  0.58419395  0.57879209  0.05402515  1
  Se  Se142  1  0.57832293  0.58057202  0.54348901  1
  Se  Se143  1  0.58209568  0.92989037  0.07401753  1
  Se  Se144  1  0.59025245  0.92336506  0.55559502  1
  Se  Se145  1  0.92593295  0.25898464  0.04605982  1
  Se  Se146  1  0.91749216  0.25203284  0.56482684  1
  Se  Se147  1  0.91697716  0.58687192  0.06078711  1
  Se  Se148  1  0.92575097  0.58445751  0.55368668  1
  Se  Se149  1  0.91448211  0.90963584  0.04903755  1
  Se  Se150  1  0.91139240  0.91452823  0.54700800  1
  Se  Se151  1  0.07862712  0.24943120  0.45073662  1
  Se  Se152  1  0.08569340  0.25785258  0.95903302  1
  Se  Se153  1  0.07788373  0.58465655  0.43249254  1
  Se  Se154  1  0.08533781  0.59180814  0.95503307  1
  Se  Se155  1  0.08678724  0.91217574  0.43795670  1
  Se  Se156  1  0.07366629  0.92525910  0.94122834  1
  Se  Se157  1  0.40963751  0.26181043  0.42830167  1
  Se  Se158  1  0.41366089  0.24794265  0.94211704  1
  Se  Se159  1  0.41539998  0.57941468  0.44817698  1
  Se  Se160  1  0.42557283  0.57287543  0.94956811  1
  Se  Se161  1  0.41311866  0.93465107  0.43964905  1
  Se  Se162  1  0.41070368  0.91559403  0.94946416  1
  Se  Se163  1  0.73971891  0.24929711  0.42936614  1
  Se  Se164  1  0.73278764  0.26020910  0.96069410  1
  Se  Se165  1  0.76596981  0.56551025  0.43680580  1
  Se  Se166  1  0.74524111  0.59145002  0.94397801  1
  Se  Se167  1  0.75578048  0.91254586  0.44376944  1
  Se  Se168  1  0.74765905  0.91124239  0.95164735  1
  Se  Se169  1  0.24206433  0.09065620  0.44107594  1
  Se  Se170  1  0.24769125  0.08192396  0.95102633  1
  Se  Se171  1  0.25210514  0.41176474  0.43738098  1
  Se  Se172  1  0.25695542  0.41401930  0.94789271  1
  Se  Se173  1  0.25136136  0.75385950  0.44940629  1
  Se  Se174  1  0.26073354  0.73987770  0.94079432  1
  Se  Se175  1  0.59778522  0.08356121  0.43337554  1
  Se  Se176  1  0.59212476  0.07211845  0.94643628  1
  Se  Se177  1  0.58210573  0.42126654  0.43430437  1
  Se  Se178  1  0.57728851  0.40812583  0.95780173  1
  Se  Se179  1  0.59296659  0.74172675  0.43891963  1
  Se  Se180  1  0.58612657  0.74026712  0.93886741  1
  Se  Se181  1  0.92267484  0.07461699  0.43282236  1
  Se  Se182  1  0.90165043  0.09252803  0.96019378  1
  Se  Se183  1  0.91918129  0.40557217  0.44397079  1
  Se  Se184  1  0.88982638  0.44262165  0.95563602  1
  Se  Se185  1  0.91614775  0.74877311  0.43531477  1
  Se  Se186  1  0.91457691  0.75064224  0.94643522  1
  Se  Se187  1  0.24544348  0.25229850  0.30121144  1
  Se  Se188  1  0.24950989  0.25290533  0.80574908  1
  Se  Se189  1  0.23937330  0.57439429  0.31030255  1
  Se  Se190  1  0.24524881  0.57713145  0.81733089  1
  Se  Se191  1  0.25169365  0.92075746  0.30101418  1
  Se  Se192  1  0.24453023  0.92642053  0.79893954  1
  Se  Se193  1  0.56620142  0.24477484  0.28688760  1
  Se  Se194  1  0.57465759  0.23433599  0.81257434  1
  Se  Se195  1  0.58245053  0.58622632  0.29799549  1
  Se  Se196  1  0.59056640  0.56685797  0.80926526  1
  Se  Se197  1  0.58901589  0.91736823  0.30408548  1
  Se  Se198  1  0.57491601  0.91864958  0.81330683  1
  Se  Se199  1  0.91993059  0.25169758  0.30201196  1
  Se  Se200  1  0.91764391  0.25626793  0.82081838  1
  Se  Se201  1  0.91443842  0.58076641  0.29603630  1
  Se  Se202  1  0.92452212  0.57089339  0.81630531  1
  Se  Se203  1  0.92231315  0.91942583  0.29814971  1
  Se  Se204  1  0.90541825  0.91324219  0.80843851  1
  Se  Se205  1  0.08018836  0.08364180  0.29941001  1
  Se  Se206  1  0.08066534  0.10071443  0.81808099  1
  Se  Se207  1  0.07793721  0.40967449  0.30178641  1
  Se  Se208  1  0.08086966  0.41504999  0.81971892  1
  Se  Se209  1  0.08741967  0.74918315  0.29857346  1
  Se  Se210  1  0.08681549  0.76199492  0.80049112  1
  Se  Se211  1  0.41205062  0.08269037  0.29658656  1
  Se  Se212  1  0.40570652  0.08013287  0.80401636  1
  Se  Se213  1  0.41104625  0.41879007  0.29488161  1
  Se  Se214  1  0.42128489  0.40988810  0.80041593  1
  Se  Se215  1  0.42490330  0.75840652  0.31617291  1
  Se  Se216  1  0.42012456  0.75786858  0.81454499  1
  Se  Se217  1  0.76039565  0.08487005  0.29576956  1
  Se  Se218  1  0.75361423  0.08098678  0.81431369  1
  Se  Se219  1  0.74524651  0.41308873  0.29494630  1
  Se  Se220  1  0.75955935  0.41735991  0.81435761  1
  Se  Se221  1  0.75014904  0.74796877  0.29895055  1
  Se  Se222  1  0.76040424  0.75714833  0.80368107  1
  Se  Se223  1  0.24921068  0.08248311  0.19673246  1
  Se  Se224  1  0.24128457  0.08617769  0.69739267  1
  Se  Se225  1  0.24648935  0.40636595  0.19587546  1
  Se  Se226  1  0.25105593  0.41397035  0.70188759  1
  Se  Se227  1  0.24637601  0.75189119  0.18900202  1
  Se  Se228  1  0.24250481  0.75347850  0.68724241  1
  Se  Se229  1  0.59915190  0.07502872  0.20658875  1
  Se  Se230  1  0.56739091  0.09917209  0.68304304  1
  Se  Se231  1  0.58500849  0.42010478  0.19189596  1
  Se  Se232  1  0.58757106  0.42356740  0.68178341  1
  Se  Se233  1  0.58468025  0.74951780  0.19982150  1
  Se  Se234  1  0.57287094  0.76403508  0.69416328  1
  Se  Se235  1  0.92553675  0.08150327  0.18787524  1
  Se  Se236  1  0.91002075  0.09272854  0.69899376  1
  Se  Se237  1  0.91814572  0.41252513  0.19381542  1
  Se  Se238  1  0.92150242  0.40997125  0.69996746  1
  Se  Se239  1  0.92028785  0.74607806  0.19862787  1
  Se  Se240  1  0.90662866  0.76135477  0.69076885  1
  Se  Se241  1  0.07879247  0.24709408  0.18885026  1
  Se  Se242  1  0.08066300  0.25150501  0.69640828  1
  Se  Se243  1  0.08125182  0.57954637  0.20017644  1
  Se  Se244  1  0.09528841  0.56992928  0.69693131  1
  Se  Se245  1  0.08341132  0.91995544  0.19548421  1
  Se  Se246  1  0.08123649  0.91550059  0.68106508  1
  Se  Se247  1  0.43401911  0.23796201  0.20399733  1
  Se  Se248  1  0.41378819  0.25709324  0.69592572  1
  Se  Se249  1  0.41140012  0.57779236  0.18753258  1
  Se  Se250  1  0.42478916  0.57872289  0.69126458  1
  Se  Se251  1  0.41258525  0.91630951  0.20367055  1
  Se  Se252  1  0.40671397  0.92703251  0.69988080  1
  Se  Se253  1  0.76022156  0.25280638  0.19458471  1
  Se  Se254  1  0.75745860  0.24230613  0.70164788  1
  Se  Se255  1  0.74510150  0.58552432  0.19455412  1
  Se  Se256  1  0.76305293  0.57371917  0.69031158  1
  Se  Se257  1  0.75822724  0.91838904  0.19542933  1
  Se  Se258  1  0.75772739  0.91589946  0.69262129  1
