# generated using pymatgen
data_In86Cu29Se144
_symmetry_space_group_name_H-M   'P 1'
_cell_length_a   17.57736717
_cell_length_b   17.57982714
_cell_length_c   23.43616277
_cell_angle_alpha   90.00974237
_cell_angle_beta   89.97749171
_cell_angle_gamma   89.99092659
_symmetry_Int_Tables_number   1
_chemical_formula_structural   In86Cu29Se144
_chemical_formula_sum   'In86 Cu29 Se144'
_cell_volume   7241.93938886
_cell_formula_units_Z   1
loop_
 _symmetry_equiv_pos_site_id
 _symmetry_equiv_pos_as_xyz
  1  'x, y, z'
loop_
 _atom_site_type_symbol
 _atom_site_label
 _atom_site_symmetry_multiplicity
 _atom_site_fract_x
 _atom_site_fract_y
 _atom_site_fract_z
 _atom_site_occupancy
  In  In0  1  -0.01445484  0.16139032  0.12807415  1
  In  In1  1  -0.00257651  0.17100012  0.61749183  1
  In  In2  1  0.00144800  0.51378184  0.12548459  1
  In  In3  1  -0.00762378  0.50563363  0.62805466  1
  In  In4  1  -0.02621986  0.84284203  0.14993393  1
  In  In5  1  -0.00513105  0.84055627  0.62874964  1
  In  In6  1  0.34797533  0.17571872  0.13841103  1
  In  In7  1  0.34096903  0.17460701  0.61402197  1
  In  In8  1  0.34476448  0.48803510  0.13585393  1
  In  In9  1  0.33526721  0.49589709  0.62684956  1
  In  In10  1  0.32006931  0.83026928  0.13297663  1
  In  In11  1  0.33365806  0.82335200  0.62149799  1
  In  In12  1  0.66134090  0.16725551  0.14902145  1
  In  In13  1  0.67487031  0.17892991  0.61593557  1
  In  In14  1  0.65825457  0.50152433  0.11214624  1
  In  In15  1  0.65747420  0.49221811  0.61825723  1
  In  In16  1  0.70579620  0.82518347  0.13975167  1
  In  In17  1  0.67353349  0.83561990  0.61458574  1
  In  In18  1  0.15832734  0.01132362  0.38061589  1
  In  In19  1  0.15850340  0.00651971  0.87319156  1
  In  In20  1  0.16442127  0.31685449  0.37979081  1
  In  In21  1  0.16775292  0.33481265  0.86070797  1
  In  In22  1  0.17232301  0.67062685  0.37099575  1
  In  In23  1  0.16746937  0.66675895  0.86390551  1
  In  In24  1  0.50619880  -0.00490792  0.38036891  1
  In  In25  1  0.51162316  -0.00502513  0.87181731  1
  In  In26  1  0.50571390  0.33355012  0.37588624  1
  In  In27  1  0.51094085  0.34540677  0.86009421  1
  In  In28  1  0.49259212  0.67169394  0.38419284  1
  In  In29  1  0.48527381  0.65741623  0.87048224  1
  In  In30  1  0.84234870  0.00744162  0.38297693  1
  In  In31  1  0.83736714  -0.00786004  0.87732174  1
  In  In32  1  0.82896319  0.34214744  0.38737990  1
  In  In33  1  0.83914191  0.34106927  0.86074912  1
  In  In34  1  0.83373108  0.66445149  0.37301556  1
  In  In35  1  0.83754007  0.65806354  0.87979615  1
  In  In36  1  0.00603360  0.15781370  0.39506984  1
  In  In37  1  -0.00612537  0.16596912  0.86140094  1
  In  In38  1  -0.01638440  0.49756316  0.38114166  1
  In  In39  1  -0.00609457  0.50064150  0.86586840  1
  In  In40  1  -0.00832962  0.83065401  0.37133610  1
  In  In41  1  -0.00643974  0.83038075  0.86764154  1
  In  In42  1  0.32567705  0.17681133  0.38096464  1
  In  In43  1  0.32132416  0.17472182  0.86978054  1
  In  In44  1  0.34967298  0.51056122  0.37500825  1
  In  In45  1  0.33852631  0.50313214  0.86772947  1
  In  In46  1  0.34502699  0.82633130  0.37709304  1
  In  In47  1  0.34939816  0.82097974  0.87026133  1
  In  In48  1  0.66071428  0.17235189  0.37572843  1
  In  In49  1  0.65669027  0.17035906  0.87228994  1
  In  In50  1  0.67528576  0.48676817  0.38110641  1
  In  In51  1  0.67703271  0.49276825  0.88542936  1
  In  In52  1  0.67190960  0.83404421  0.37144287  1
  In  In53  1  0.68041279  0.84535240  0.87831240  1
  In  In54  1  0.15404822  -0.01256406  0.12770709  1
  In  In55  1  0.14348984  0.00561270  0.61837189  1
  In  In56  1  0.17428218  0.34632509  0.12785926  1
  In  In57  1  0.17036644  0.32594592  0.62387339  1
  In  In58  1  0.16142776  0.67034594  0.13595606  1
  In  In59  1  0.16959382  0.66077855  0.63246272  1
  In  In60  1  0.51676234  0.00597647  0.13669127  1
  In  In61  1  0.50206913  0.00055449  0.61089850  1
  In  In62  1  0.49646240  0.33950015  0.13755112  1
  In  In63  1  0.49759937  0.33358974  0.62334748  1
  In  In64  1  0.51026658  0.64731527  0.12798314  1
  In  In65  1  0.48551105  0.65232271  0.60342632  1
  In  In66  1  0.84041100  -0.01026252  0.15138918  1
  In  In67  1  0.86173787  0.01644366  0.59899158  1
  In  In68  1  0.82120176  0.33168404  0.12613112  1
  In  In69  1  0.83521638  0.32847639  0.61891659  1
  In  In70  1  0.83109412  0.66904843  0.11055581  1
  In  In71  1  0.84268693  0.67737080  0.61652794  1
  In  In72  1  0.51003028  0.81923059  0.00471772  1
  In  In73  1  0.15455794  0.82436705  -0.01158712  1
  In  In74  1  0.66591008  0.66456224  0.74789372  1
  In  In75  1  0.67058483  0.66559970  0.25209023  1
  In  In76  1  0.50083239  0.17152185  0.00572527  1
  In  In77  1  0.00140952  0.32927816  0.25749817  1
  In  In78  1  0.67508193  0.00385921  0.74759684  1
  In  In79  1  0.16943019  0.50300021  -0.00330100  1
  In  In80  1  0.32875075  0.00137878  0.75246251  1
  In  In81  1  0.82849200  0.16327766  0.00155190  1
  In  In82  1  0.32800531  0.00010563  0.26114528  1
  In  In83  1  0.16571819  0.83567917  0.49630044  1
  In  In84  1  0.16677230  0.49479780  0.50911964  1
  In  In85  1  0.15820751  0.16897838  0.01165759  1
  Cu  Cu86  1  0.33166824  0.00289353  0.49507191  1
  Cu  Cu87  1  0.16163093  0.49718819  0.74455322  1
  Cu  Cu88  1  0.49804044  0.49796752  0.74109594  1
  Cu  Cu89  1  0.49751361  0.82048109  0.73873687  1
  Cu  Cu90  1  0.16279070  0.16572691  0.74301549  1
  Cu  Cu91  1  0.82848909  0.50091307  0.74675435  1
  Cu  Cu92  1  0.66774390  0.33588929  0.00022638  1
  Cu  Cu93  1  0.33775226  0.65369091  0.00448208  1
  Cu  Cu94  1  -0.00314602  0.33809858  -0.01195030  1
  Cu  Cu95  1  0.83144995  0.16507601  0.26240388  1
  Cu  Cu96  1  0.15966268  0.82770199  0.25288705  1
  Cu  Cu97  1  0.67281672  0.66641770  0.49379812  1
  Cu  Cu98  1  0.83667755  0.16815837  0.73749798  1
  Cu  Cu99  1  0.66039211  0.33443339  0.50093715  1
  Cu  Cu100  1  0.17468473  0.49712468  0.25533317  1
  Cu  Cu101  1  0.33381046  -0.00283127  0.00250822  1
  Cu  Cu102  1  0.66266912  -0.00337718  0.49034948  1
  Cu  Cu103  1  0.00200991  0.66704214  0.49927400  1
  Cu  Cu104  1  0.34605171  0.33885889  0.00217483  1
  Cu  Cu105  1  0.83797096  0.83768328  0.74551587  1
  Cu  Cu106  1  0.33880053  0.34104654  0.49854612  1
  Cu  Cu107  1  0.16525623  0.83205864  0.74208937  1
  Cu  Cu108  1  0.83263358  0.49923168  0.25165866  1
  Cu  Cu109  1  0.49966111  0.17402218  0.74041318  1
  Cu  Cu110  1  0.50522948  0.49829291  0.25361623  1
  Cu  Cu111  1  0.16224109  0.16394693  0.25398357  1
  Cu  Cu112  1  0.49849548  0.82850373  0.25530506  1
  Cu  Cu113  1  0.67691563  -0.00422700  0.01316666  1
  Cu  Cu114  1  -0.00581847  0.67368992  0.00108133  1
  Se  Se115  1  0.06580574  0.06985006  0.05865359  1
  Se  Se116  1  0.08180686  0.09353327  0.54535577  1
  Se  Se117  1  0.07676844  0.41028879  0.05506420  1
  Se  Se118  1  0.07041244  0.40733372  0.56216935  1
  Se  Se119  1  0.07477361  0.74887486  0.06406934  1
  Se  Se120  1  0.08267949  0.74313398  0.56097613  1
  Se  Se121  1  0.41139689  0.07514868  0.06513532  1
  Se  Se122  1  0.41800902  0.08620168  0.54645228  1
  Se  Se123  1  0.42631768  0.41886370  0.05861400  1
  Se  Se124  1  0.41975317  0.42199635  0.55428910  1
  Se  Se125  1  0.40759435  0.74227041  0.06553334  1
  Se  Se126  1  0.43014543  0.76879882  0.55075555  1
  Se  Se127  1  0.74438366  0.08575787  0.07295497  1
  Se  Se128  1  0.73683196  0.07068893  0.55718471  1
  Se  Se129  1  0.75401336  0.41755854  0.05227062  1
  Se  Se130  1  0.74908748  0.41422769  0.55306842  1
  Se  Se131  1  0.73264988  0.74518324  0.05172726  1
  Se  Se132  1  0.75539823  0.75173851  0.54644443  1
  Se  Se133  1  0.26392704  0.25740930  0.06078647  1
  Se  Se134  1  0.25253339  0.25540870  0.54792557  1
  Se  Se135  1  0.25343937  0.58335475  0.06780277  1
  Se  Se136  1  0.25903290  0.59271027  0.55783450  1
  Se  Se137  1  0.24785581  0.91528553  0.05393780  1
  Se  Se138  1  0.25292102  0.92679792  0.56073295  1
  Se  Se139  1  0.59424237  0.25530363  0.06624883  1
  Se  Se140  1  0.57614888  0.24888772  0.55255211  1
  Se  Se141  1  0.58024392  0.58779742  0.04412357  1
  Se  Se142  1  0.58969657  0.58258805  0.54607672  1
  Se  Se143  1  0.59091132  0.91457893  0.06670461  1
  Se  Se144  1  0.58294117  0.91179652  0.54753731  1
  Se  Se145  1  0.92339942  0.26033046  0.05522059  1
  Se  Se146  1  0.88963602  0.22351409  0.54952443  1
  Se  Se147  1  0.91801207  0.57863921  0.04906534  1
  Se  Se148  1  0.91742235  0.58255816  0.55097479  1
  Se  Se149  1  0.91069322  0.92077031  0.07030426  1
  Se  Se150  1  0.91422267  0.89802069  0.54813115  1
  Se  Se151  1  0.08131544  0.25444857  0.45546713  1
  Se  Se152  1  0.08126832  0.25354062  0.93626629  1
  Se  Se153  1  0.08461865  0.58664371  0.44164483  1
  Se  Se154  1  0.07767725  0.59461924  0.93993893  1
  Se  Se155  1  0.06850454  0.92375062  0.44421151  1
  Se  Se156  1  0.06864845  0.92734417  0.94072860  1
  Se  Se157  1  0.41859327  0.25356617  0.44544002  1
  Se  Se158  1  0.41572743  0.25526362  0.93675797  1
  Se  Se159  1  0.41918585  0.58393169  0.45403945  1
  Se  Se160  1  0.41676264  0.57273151  0.94664318  1
  Se  Se161  1  0.41527255  0.91577636  0.44653528  1
  Se  Se162  1  0.41715588  0.91941465  0.94261139  1
  Se  Se163  1  0.74406158  0.25122314  0.44835455  1
  Se  Se164  1  0.74524236  0.25591262  0.93755988  1
  Se  Se165  1  0.75648155  0.57954657  0.44347045  1
  Se  Se166  1  0.74286470  0.59259624  0.94707281  1
  Se  Se167  1  0.75259425  0.91594327  0.44222485  1
  Se  Se168  1  0.75927506  0.91860646  0.95410383  1
  Se  Se169  1  0.24552947  0.08830787  0.44785424  1
  Se  Se170  1  0.25405669  0.08107571  0.94606282  1
  Se  Se171  1  0.25394572  0.41511553  0.43780014  1
  Se  Se172  1  0.25603730  0.40590132  0.93937898  1
  Se  Se173  1  0.26032243  0.74039023  0.44722723  1
  Se  Se174  1  0.26217198  0.73617931  0.94130242  1
  Se  Se175  1  0.57909902  0.08855988  0.44697625  1
  Se  Se176  1  0.59489606  0.07263184  0.94876787  1
  Se  Se177  1  0.57832406  0.42162074  0.44937390  1
  Se  Se178  1  0.57953064  0.41157911  0.94469307  1
  Se  Se179  1  0.59032784  0.75163563  0.44128023  1
  Se  Se180  1  0.58676037  0.74548385  0.92657740  1
  Se  Se181  1  0.89875526  0.10247375  0.45972496  1
  Se  Se182  1  0.92612404  0.08193152  0.94167680  1
  Se  Se183  1  0.92204627  0.41227759  0.45571317  1
  Se  Se184  1  0.91230491  0.42074576  0.93746594  1
  Se  Se185  1  0.91728040  0.74581003  0.44355488  1
  Se  Se186  1  0.91429673  0.75490249  0.94263610  1
  Se  Se187  1  0.24663904  0.24894548  0.30285800  1
  Se  Se188  1  0.24992793  0.25036953  0.79256861  1
  Se  Se189  1  0.25603945  0.58371518  0.30699000  1
  Se  Se190  1  0.24764994  0.57781992  0.80012389  1
  Se  Se191  1  0.23733650  0.90671824  0.31824740  1
  Se  Se192  1  0.24320771  0.90426515  0.81285687  1
  Se  Se193  1  0.59935059  0.26884073  0.30509176  1
  Se  Se194  1  0.58761008  0.25060861  0.79656621  1
  Se  Se195  1  0.58311645  0.57981042  0.31571534  1
  Se  Se196  1  0.57813238  0.57183949  0.80716076  1
  Se  Se197  1  0.58049763  0.91346064  0.30593693  1
  Se  Se198  1  0.58057044  0.90082944  0.79923991  1
  Se  Se199  1  0.91463906  0.24472765  0.32128394  1
  Se  Se200  1  0.91816718  0.25337415  0.79359462  1
  Se  Se201  1  0.91754979  0.58027997  0.30412868  1
  Se  Se202  1  0.91091629  0.58686590  0.79966413  1
  Se  Se203  1  0.91886412  0.92714409  0.30867435  1
  Se  Se204  1  0.91796435  0.92355256  0.80047820  1
  Se  Se205  1  0.07593156  0.08944340  0.30987839  1
  Se  Se206  1  0.08262882  0.08134833  0.79811738  1
  Se  Se207  1  0.08986865  0.42246971  0.31622821  1
  Se  Se208  1  0.07667228  0.41568459  0.79922230  1
  Se  Se209  1  0.07748287  0.74365709  0.30626503  1
  Se  Se210  1  0.08267107  0.75172166  0.80083192  1
  Se  Se211  1  0.41783969  0.08888186  0.31776837  1
  Se  Se212  1  0.42809666  0.09241197  0.80888393  1
  Se  Se213  1  0.41981175  0.41694764  0.30671993  1
  Se  Se214  1  0.41257862  0.41563367  0.79654484  1
  Se  Se215  1  0.41572798  0.74182033  0.30321243  1
  Se  Se216  1  0.41424941  0.73882057  0.79336434  1
  Se  Se217  1  0.74852147  0.08218411  0.31481637  1
  Se  Se218  1  0.76301293  0.09586841  0.81024782  1
  Se  Se219  1  0.75538604  0.41243951  0.30586928  1
  Se  Se220  1  0.74254187  0.42138269  0.80126202  1
  Se  Se221  1  0.76644017  0.76139324  0.29999222  1
  Se  Se222  1  0.75734462  0.75910424  0.80590517  1
  Se  Se223  1  0.24218651  0.08507743  0.18974970  1
  Se  Se224  1  0.24669218  0.08594558  0.68388100  1
  Se  Se225  1  0.25642109  0.41048834  0.20478075  1
  Se  Se226  1  0.24714520  0.41551703  0.69218252  1
  Se  Se227  1  0.25024414  0.74538483  0.20575721  1
  Se  Se228  1  0.25447572  0.74889546  0.69614740  1
  Se  Se229  1  0.56419361  0.09829247  0.21274616  1
  Se  Se230  1  0.57953224  0.08681833  0.68650442  1
  Se  Se231  1  0.59185173  0.42555185  0.19358637  1
  Se  Se232  1  0.58409092  0.41309356  0.69383690  1
  Se  Se233  1  0.58035596  0.75658163  0.18865010  1
  Se  Se234  1  0.58190327  0.74747345  0.67930484  1
  Se  Se235  1  0.92067912  0.08773388  0.20929998  1
  Se  Se236  1  0.91971798  0.08106807  0.68823952  1
  Se  Se237  1  0.91661386  0.41864294  0.19117120  1
  Se  Se238  1  0.90980057  0.41581339  0.69154303  1
  Se  Se239  1  0.91799529  0.72132181  0.19086274  1
  Se  Se240  1  0.91901451  0.74814500  0.69574461  1
  Se  Se241  1  0.09006852  0.24448535  0.18699465  1
  Se  Se242  1  0.07911908  0.24967587  0.69080221  1
  Se  Se243  1  0.08738020  0.57617882  0.20168618  1
  Se  Se244  1  0.07771634  0.58526909  0.69753915  1
  Se  Se245  1  0.07855650  0.91882180  0.20592637  1
  Se  Se246  1  0.08176024  0.92097957  0.69648320  1
  Se  Se247  1  0.42761818  0.25018180  0.20910757  1
  Se  Se248  1  0.40936423  0.25368713  0.69271669  1
  Se  Se249  1  0.42091845  0.58205138  0.20099037  1
  Se  Se250  1  0.41922692  0.58732889  0.68981477  1
  Se  Se251  1  0.41856114  0.91291812  0.19456483  1
  Se  Se252  1  0.42251502  0.91756357  0.68964559  1
  Se  Se253  1  0.75646855  0.25223454  0.20513559  1
  Se  Se254  1  0.74853288  0.25315282  0.69365576  1
  Se  Se255  1  0.75363523  0.57520926  0.18706566  1
  Se  Se256  1  0.75423265  0.58097335  0.68224256  1
  Se  Se257  1  0.71702648  0.94519628  0.19984294  1
  Se  Se258  1  0.76115175  0.91802015  0.68411939  1
