# generated using pymatgen
data_In86Cu29Se144
_symmetry_space_group_name_H-M   'P 1'
_cell_length_a   17.58866875
_cell_length_b   17.58554319
_cell_length_c   23.44055562
_cell_angle_alpha   90.00077624
_cell_angle_beta   90.00026272
_cell_angle_gamma   89.98678189
_symmetry_Int_Tables_number   1
_chemical_formula_structural   In86Cu29Se144
_chemical_formula_sum   'In86 Cu29 Se144'
_cell_volume   7250.31119366
_cell_formula_units_Z   1
loop_
 _symmetry_equiv_pos_site_id
 _symmetry_equiv_pos_as_xyz
  1  'x, y, z'
loop_
 _atom_site_type_symbol
 _atom_site_label
 _atom_site_symmetry_multiplicity
 _atom_site_fract_x
 _atom_site_fract_y
 _atom_site_fract_z
 _atom_site_occupancy
  In  In0  1  0.00348485  0.16413559  0.13866147  1
  In  In1  1  0.00677038  0.14773047  0.62647800  1
  In  In2  1  -0.01312697  0.49224798  0.12620114  1
  In  In3  1  -0.00419146  0.51864516  0.62300448  1
  In  In4  1  0.00598617  0.83890554  0.11824060  1
  In  In5  1  -0.00161372  0.83549265  0.61863850  1
  In  In6  1  0.33747849  0.16141587  0.12573679  1
  In  In7  1  0.32835893  0.16907931  0.63056652  1
  In  In8  1  0.32677169  0.50447748  0.12954170  1
  In  In9  1  0.32652191  0.48848725  0.62766381  1
  In  In10  1  0.32773316  0.82967635  0.11159836  1
  In  In11  1  0.33786463  0.83732750  0.62011273  1
  In  In12  1  0.64928921  0.16641626  0.11951720  1
  In  In13  1  0.66147414  0.15937635  0.64557099  1
  In  In14  1  0.68078244  0.49137971  0.12086131  1
  In  In15  1  0.67708967  0.49485130  0.63121088  1
  In  In16  1  0.67361140  0.84052210  0.11617872  1
  In  In17  1  0.66746399  0.83392935  0.62985097  1
  In  In18  1  0.15638426  0.00796462  0.38285139  1
  In  In19  1  0.15865653  -0.02196584  0.85819279  1
  In  In20  1  0.16036153  0.32617020  0.36637400  1
  In  In21  1  0.17250358  0.32025483  0.87610714  1
  In  In22  1  0.17348523  0.66427288  0.37621640  1
  In  In23  1  0.16427712  0.70200905  0.87119208  1
  In  In24  1  0.50475356  -0.01423666  0.37781931  1
  In  In25  1  0.49732997  -0.00174636  0.87289148  1
  In  In26  1  0.49384441  0.34113599  0.37191124  1
  In  In27  1  0.49146237  0.32136227  0.86449483  1
  In  In28  1  0.50284489  0.68155798  0.37518012  1
  In  In29  1  0.51118167  0.66449736  0.87548708  1
  In  In30  1  0.83091451  -0.00546626  0.36850370  1
  In  In31  1  0.81848395  -0.00856575  0.86731392  1
  In  In32  1  0.84755192  0.33608794  0.37386021  1
  In  In33  1  0.82949836  0.35070443  0.88150050  1
  In  In34  1  0.84215440  0.66458531  0.39067933  1
  In  In35  1  0.83425107  0.66797807  0.87361617  1
  In  In36  1  0.01419990  0.17090399  0.36440572  1
  In  In37  1  0.01284182  0.15860406  0.87608155  1
  In  In38  1  0.00151625  0.49838709  0.37818430  1
  In  In39  1  -0.01886756  0.50340409  0.88242296  1
  In  In40  1  -0.01242870  0.84365669  0.38426925  1
  In  In41  1  -0.00380665  0.82875469  0.87077582  1
  In  In42  1  0.31318519  0.16410588  0.37197129  1
  In  In43  1  0.34352953  0.16158915  0.86472841  1
  In  In44  1  0.32285470  0.49650257  0.36289896  1
  In  In45  1  0.34263559  0.50501591  0.87396313  1
  In  In46  1  0.33888023  0.82692445  0.38081336  1
  In  In47  1  0.32025445  0.84622528  0.88555552  1
  In  In48  1  0.68045682  0.15944498  0.37455668  1
  In  In49  1  0.64652202  0.15263297  0.85901351  1
  In  In50  1  0.66823563  0.51046300  0.37668370  1
  In  In51  1  0.67498130  0.51005026  0.86734820  1
  In  In52  1  0.66670250  0.83673475  0.38089744  1
  In  In53  1  0.66958416  0.83023282  0.87584960  1
  In  In54  1  0.17035983  -0.00422710  0.12759638  1
  In  In55  1  0.16435651  -0.00508872  0.62062692  1
  In  In56  1  0.16154713  0.33107194  0.13675309  1
  In  In57  1  0.18119431  0.33140983  0.62716848  1
  In  In58  1  0.16833604  0.68170811  0.12317018  1
  In  In59  1  0.14425163  0.67858718  0.63120143  1
  In  In60  1  0.50136645  0.00383205  0.11711270  1
  In  In61  1  0.51049064  -0.00823735  0.63852327  1
  In  In62  1  0.50130205  0.31804488  0.12030696  1
  In  In63  1  0.50143258  0.32513226  0.63742984  1
  In  In64  1  0.48689083  0.66993751  0.11895601  1
  In  In65  1  0.49844105  0.68463478  0.62759384  1
  In  In66  1  0.84153446  -0.01144682  0.12810674  1
  In  In67  1  0.84701266  -0.01330184  0.63708634  1
  In  In68  1  0.84193783  0.34056862  0.12172460  1
  In  In69  1  0.82497836  0.33166129  0.62463553  1
  In  In70  1  0.83352541  0.66346078  0.11815180  1
  In  In71  1  0.83648608  0.66958289  0.62279579  1
  In  In72  1  0.66909343  0.66886498  0.24349852  1
  In  In73  1  0.32868330  0.00331047  0.24808037  1
  In  In74  1  0.17161599  0.16028882  -0.00098283  1
  In  In75  1  0.33207459  0.66963390  0.74766008  1
  In  In76  1  0.50464945  0.50276006  -0.00598923  1
  In  In77  1  0.49943346  0.16305863  0.51177806  1
  In  In78  1  0.16196946  0.50769361  0.00813152  1
  In  In79  1  0.82853343  0.16442234  0.00056103  1
  In  In80  1  0.16373197  0.50725291  0.50087462  1
  In  In81  1  0.50004539  0.50564591  0.49824311  1
  In  In82  1  0.00008273  0.33336968  0.75911340  1
  In  In83  1  0.66728637  0.32764138  0.24698876  1
  In  In84  1  0.00308384  0.66439867  0.25785960  1
  In  In85  1  0.83947141  0.15856710  0.50819879  1
  Cu  Cu86  1  0.50417575  0.83193766  0.75452308  1
  Cu  Cu87  1  -0.00156872  -0.00945390  -0.00361115  1
  Cu  Cu88  1  0.16860666  0.83727860  0.24768335  1
  Cu  Cu89  1  0.49650334  0.16135611  0.24564749  1
  Cu  Cu90  1  0.16568046  0.50074669  0.75019691  1
  Cu  Cu91  1  0.67071252  -0.00462177  0.50816178  1
  Cu  Cu92  1  0.17006934  0.15830622  0.75016551  1
  Cu  Cu93  1  0.33027730  0.66809440  0.50144097  1
  Cu  Cu94  1  0.00172679  -0.00096925  0.50114139  1
  Cu  Cu95  1  0.66593680  0.33003175  -0.00402835  1
  Cu  Cu96  1  0.83140545  0.83101206  0.74958797  1
  Cu  Cu97  1  0.33733129  0.33313194  -0.00464421  1
  Cu  Cu98  1  0.49846102  0.83746871  0.25248216  1
  Cu  Cu99  1  0.66852621  0.67243325  0.50383897  1
  Cu  Cu100  1  0.16650723  0.50239773  0.25033371  1
  Cu  Cu101  1  0.83539211  0.82978038  0.25067047  1
  Cu  Cu102  1  0.33089532  0.32544122  0.49986592  1
  Cu  Cu103  1  0.00584770  0.33388442  0.49555847  1
  Cu  Cu104  1  0.83139933  0.16926554  0.75199665  1
  Cu  Cu105  1  0.83653847  0.50713370  0.74991012  1
  Cu  Cu106  1  0.50288141  0.49765153  0.75322061  1
  Cu  Cu107  1  0.67412030  0.66611995  -0.00494078  1
  Cu  Cu108  1  0.66229331  -0.00249374  -0.00822142  1
  Cu  Cu109  1  0.33499567  0.00416518  -0.00324474  1
  Cu  Cu110  1  0.33048576  -0.00598914  0.49973151  1
  Cu  Cu111  1  0.67769103  0.33686623  0.50746630  1
  Cu  Cu112  1  0.83098727  0.15688618  0.24920362  1
  Cu  Cu113  1  -0.00060898  0.67016246  -0.00199298  1
  Cu  Cu114  1  0.49136940  0.50111502  0.24442517  1
  Se  Se115  1  0.07377260  0.07505445  0.05781334  1
  Se  Se116  1  0.08817317  0.08469245  0.54856236  1
  Se  Se117  1  0.07809804  0.40655818  0.06007451  1
  Se  Se118  1  0.08027365  0.41178972  0.56356077  1
  Se  Se119  1  0.08539635  0.75318876  0.04934998  1
  Se  Se120  1  0.07810788  0.74864289  0.55034592  1
  Se  Se121  1  0.41631993  0.08878627  0.05040548  1
  Se  Se122  1  0.40967282  0.06890002  0.56541620  1
  Se  Se123  1  0.41320719  0.41516484  0.05790865  1
  Se  Se124  1  0.41487388  0.40689165  0.55654466  1
  Se  Se125  1  0.42954404  0.76473388  0.04881453  1
  Se  Se126  1  0.41844484  0.75144431  0.55015150  1
  Se  Se127  1  0.74048964  0.07182889  0.06001425  1
  Se  Se128  1  0.74408454  0.07802445  0.57053302  1
  Se  Se129  1  0.75358807  0.40907939  0.04779066  1
  Se  Se130  1  0.75979454  0.42556205  0.55402792  1
  Se  Se131  1  0.75421271  0.75006086  0.05171347  1
  Se  Se132  1  0.74992960  0.75649255  0.55757189  1
  Se  Se133  1  0.25495369  0.25880121  0.05884347  1
  Se  Se134  1  0.24785361  0.24390165  0.55352068  1
  Se  Se135  1  0.26156588  0.59821492  0.05601693  1
  Se  Se136  1  0.25381216  0.59223273  0.56621597  1
  Se  Se137  1  0.24712780  0.92440741  0.05055097  1
  Se  Se138  1  0.24645355  0.90988122  0.55141656  1
  Se  Se139  1  0.57804030  0.24643892  0.04293236  1
  Se  Se140  1  0.59775746  0.25467672  0.56429711  1
  Se  Se141  1  0.59531164  0.58787449  0.06015533  1
  Se  Se142  1  0.58719687  0.59033002  0.56325926  1
  Se  Se143  1  0.58128823  0.91604936  0.05026023  1
  Se  Se144  1  0.58225431  0.91640483  0.55995527  1
  Se  Se145  1  0.92596820  0.24467636  0.06018112  1
  Se  Se146  1  0.93080073  0.25546378  0.56311464  1
  Se  Se147  1  0.92167676  0.58230641  0.05270073  1
  Se  Se148  1  0.91096699  0.58405545  0.55033504  1
  Se  Se149  1  0.91210770  0.91055728  0.05008726  1
  Se  Se150  1  0.91040839  0.92084456  0.55101484  1
  Se  Se151  1  0.08612460  0.24885574  0.44294208  1
  Se  Se152  1  0.07569042  0.25663327  0.94800733  1
  Se  Se153  1  0.07165020  0.59858614  0.44492854  1
  Se  Se154  1  0.08206781  0.59248550  0.93696241  1
  Se  Se155  1  0.08572682  0.91353782  0.44949032  1
  Se  Se156  1  0.08289911  0.91289852  0.93967239  1
  Se  Se157  1  0.41603678  0.24876968  0.44147525  1
  Se  Se158  1  0.41405311  0.24668516  0.94084489  1
  Se  Se159  1  0.40490905  0.58746516  0.43648316  1
  Se  Se160  1  0.40898009  0.59813811  0.94585969  1
  Se  Se161  1  0.41940720  0.91392733  0.44884252  1
  Se  Se162  1  0.41978191  0.91831280  0.94687871  1
  Se  Se163  1  0.75181692  0.25357744  0.44580900  1
  Se  Se164  1  0.74159853  0.24680052  0.93359905  1
  Se  Se165  1  0.74638985  0.58372222  0.45082240  1
  Se  Se166  1  0.75585633  0.57926417  0.94433808  1
  Se  Se167  1  0.75239638  0.92176817  0.44592102  1
  Se  Se168  1  0.75185272  0.91379669  0.94677475  1
  Se  Se169  1  0.24982192  0.08277575  0.45001246  1
  Se  Se170  1  0.25211781  0.07417935  0.93079085  1
  Se  Se171  1  0.25353941  0.41280542  0.44265630  1
  Se  Se172  1  0.25387268  0.41686640  0.94232740  1
  Se  Se173  1  0.24722943  0.75030418  0.44725979  1
  Se  Se174  1  0.25176065  0.74868441  0.95030231  1
  Se  Se175  1  0.59300694  0.07907214  0.44726010  1
  Se  Se176  1  0.57938985  0.08473251  0.94293740  1
  Se  Se177  1  0.59289406  0.40752068  0.44376349  1
  Se  Se178  1  0.58967907  0.41210229  0.93316031  1
  Se  Se179  1  0.58334245  0.75303366  0.44950135  1
  Se  Se180  1  0.58634251  0.74853554  0.94698623  1
  Se  Se181  1  0.92381936  0.08037209  0.43703757  1
  Se  Se182  1  0.91895066  0.07414389  0.93875724  1
  Se  Se183  1  0.91854493  0.41798118  0.44895203  1
  Se  Se184  1  0.92180539  0.40962658  0.95345792  1
  Se  Se185  1  0.91118851  0.75983951  0.45367312  1
  Se  Se186  1  0.91407915  0.75165723  0.94431349  1
  Se  Se187  1  0.26524957  0.26628681  0.30369643  1
  Se  Se188  1  0.25068866  0.24495681  0.80293287  1
  Se  Se189  1  0.24926580  0.59178623  0.29810765  1
  Se  Se190  1  0.24137954  0.58399991  0.81257660  1
  Se  Se191  1  0.24731588  0.91293233  0.31331740  1
  Se  Se192  1  0.26366376  0.91435454  0.79870853  1
  Se  Se193  1  0.57667266  0.23923652  0.31079665  1
  Se  Se194  1  0.59894111  0.26827312  0.80186832  1
  Se  Se195  1  0.57329793  0.57866345  0.30464465  1
  Se  Se196  1  0.58549574  0.58702279  0.79962212  1
  Se  Se197  1  0.58842812  0.91417322  0.30440260  1
  Se  Se198  1  0.58734656  0.91544033  0.80792455  1
  Se  Se199  1  0.91066471  0.24198888  0.30445699  1
  Se  Se200  1  0.90920727  0.24263046  0.81801202  1
  Se  Se201  1  0.90502775  0.57670788  0.31060668  1
  Se  Se202  1  0.92086264  0.58700995  0.80381390  1
  Se  Se203  1  0.92006668  0.91488611  0.30150362  1
  Se  Se204  1  0.91288088  0.91646983  0.80369577  1
  Se  Se205  1  0.08882180  0.07710721  0.30121130  1
  Se  Se206  1  0.08089686  0.07825864  0.79992694  1
  Se  Se207  1  0.08161972  0.42237951  0.30549571  1
  Se  Se208  1  0.09018169  0.42447200  0.81810397  1
  Se  Se209  1  0.08940683  0.76184439  0.31261871  1
  Se  Se210  1  0.07564766  0.75328170  0.79510328  1
  Se  Se211  1  0.42305599  0.08535392  0.31381722  1
  Se  Se212  1  0.43417603  0.08795111  0.79660418  1
  Se  Se213  1  0.41318109  0.41493010  0.29898615  1
  Se  Se214  1  0.41325737  0.41859330  0.80299186  1
  Se  Se215  1  0.41570394  0.75130628  0.30299435  1
  Se  Se216  1  0.41990805  0.75302957  0.81320515  1
  Se  Se217  1  0.74392881  0.07483838  0.29916250  1
  Se  Se218  1  0.74519872  0.07994378  0.79728377  1
  Se  Se219  1  0.75067366  0.41970369  0.30973349  1
  Se  Se220  1  0.75522325  0.41965849  0.80132603  1
  Se  Se221  1  0.75736090  0.74937996  0.31201450  1
  Se  Se222  1  0.74895202  0.74732461  0.80408971  1
  Se  Se223  1  0.23626975  0.09869003  0.19529188  1
  Se  Se224  1  0.24860679  0.07545036  0.69251641  1
  Se  Se225  1  0.24987929  0.41802383  0.19745793  1
  Se  Se226  1  0.25008358  0.41380422  0.70383853  1
  Se  Se227  1  0.25376455  0.75848361  0.19310279  1
  Se  Se228  1  0.24217563  0.76101509  0.69077822  1
  Se  Se229  1  0.58116178  0.07973816  0.19346697  1
  Se  Se230  1  0.55380567  0.10165577  0.70599847  1
  Se  Se231  1  0.57621131  0.42194458  0.18699364  1
  Se  Se232  1  0.58594155  0.41710299  0.69653986  1
  Se  Se233  1  0.57611672  0.75852240  0.18761480  1
  Se  Se234  1  0.58694629  0.74850237  0.70087295  1
  Se  Se235  1  0.91732905  0.07445416  0.19820033  1
  Se  Se236  1  0.91709671  0.08658946  0.70070657  1
  Se  Se237  1  0.91543750  0.41080819  0.19997253  1
  Se  Se238  1  0.91554925  0.41990014  0.69170413  1
  Se  Se239  1  0.91607463  0.75026341  0.19047316  1
  Se  Se240  1  0.91690831  0.75428676  0.69211047  1
  Se  Se241  1  0.07759683  0.25402373  0.20476359  1
  Se  Se242  1  0.08839379  0.24544622  0.69380238  1
  Se  Se243  1  0.08798848  0.58070584  0.18684889  1
  Se  Se244  1  0.07982307  0.58261090  0.70036256  1
  Se  Se245  1  0.08229604  0.91626773  0.19417957  1
  Se  Se246  1  0.06108812  0.93579497  0.68570278  1
  Se  Se247  1  0.41649300  0.24877773  0.19454157  1
  Se  Se248  1  0.40012689  0.26081316  0.69799466  1
  Se  Se249  1  0.41297908  0.59012741  0.19363910  1
  Se  Se250  1  0.42381094  0.57521822  0.68801449  1
  Se  Se251  1  0.41860402  0.91397567  0.18845194  1
  Se  Se252  1  0.41762714  0.90757662  0.69759842  1
  Se  Se253  1  0.75521572  0.23762555  0.18461478  1
  Se  Se254  1  0.75016473  0.25405068  0.69940895  1
  Se  Se255  1  0.76260144  0.57203440  0.19416261  1
  Se  Se256  1  0.75293958  0.58870072  0.69499944  1
  Se  Se257  1  0.75081167  0.91030320  0.19546089  1
  Se  Se258  1  0.74614421  0.91935895  0.70043028  1
