# generated using pymatgen
data_In86Cu29Se144
_symmetry_space_group_name_H-M   'P 1'
_cell_length_a   17.58008148
_cell_length_b   17.59124207
_cell_length_c   23.45163991
_cell_angle_alpha   89.99853360
_cell_angle_beta   90.00944988
_cell_angle_gamma   90.00743694
_symmetry_Int_Tables_number   1
_chemical_formula_structural   In86Cu29Se144
_chemical_formula_sum   'In86 Cu29 Se144'
_cell_volume   7252.54773443
_cell_formula_units_Z   1
loop_
 _symmetry_equiv_pos_site_id
 _symmetry_equiv_pos_as_xyz
  1  'x, y, z'
loop_
 _atom_site_type_symbol
 _atom_site_label
 _atom_site_symmetry_multiplicity
 _atom_site_fract_x
 _atom_site_fract_y
 _atom_site_fract_z
 _atom_site_occupancy
  In  In0  1  -0.00968210  0.17483031  0.13901502  1
  In  In1  1  -0.01279018  0.15850427  0.61315434  1
  In  In2  1  -0.00504074  0.49940017  0.13355344  1
  In  In3  1  -0.00654612  0.51975410  0.62433890  1
  In  In4  1  -0.00197633  0.83460043  0.12325471  1
  In  In5  1  -0.00994103  0.85017012  0.63218782  1
  In  In6  1  0.33509354  0.15494551  0.12210784  1
  In  In7  1  0.33764492  0.17013069  0.61716197  1
  In  In8  1  0.35076986  0.49680839  0.12420051  1
  In  In9  1  0.33832384  0.50882240  0.62580110  1
  In  In10  1  0.31753445  0.83949026  0.11930049  1
  In  In11  1  0.32514259  0.82807182  0.63161885  1
  In  In12  1  0.67980855  0.16941429  0.11649113  1
  In  In13  1  0.67584783  0.16980122  0.62854979  1
  In  In14  1  0.66267459  0.50367279  0.12863632  1
  In  In15  1  0.67592314  0.50011231  0.63253527  1
  In  In16  1  0.66632332  0.82551403  0.12052634  1
  In  In17  1  0.68726627  0.81822426  0.63773156  1
  In  In18  1  0.15611375  0.01702727  0.37380564  1
  In  In19  1  0.15047216  -0.00683477  0.87135557  1
  In  In20  1  0.15082206  0.32471931  0.36989425  1
  In  In21  1  0.16115513  0.32151911  0.87548685  1
  In  In22  1  0.16562311  0.66625387  0.36787015  1
  In  In23  1  0.17276740  0.68259483  0.86730589  1
  In  In24  1  0.51247157  0.00442657  0.37632255  1
  In  In25  1  0.52103938  0.00071842  0.88193371  1
  In  In26  1  0.50412590  0.32116514  0.37552918  1
  In  In27  1  0.51756426  0.32169495  0.88519863  1
  In  In28  1  0.50192223  0.66616594  0.36856711  1
  In  In29  1  0.50227297  0.66297722  0.87546881  1
  In  In30  1  0.84347605  -0.01130945  0.37983498  1
  In  In31  1  0.82951921  -0.00324560  0.88027852  1
  In  In32  1  0.82843031  0.33304337  0.37747323  1
  In  In33  1  0.81626912  0.32594733  0.86631957  1
  In  In34  1  0.82995982  0.66439541  0.37563297  1
  In  In35  1  0.84596996  0.67545058  0.86143839  1
  In  In36  1  -0.00513822  0.16381651  0.37425549  1
  In  In37  1  -0.00492518  0.14503035  0.86739172  1
  In  In38  1  -0.01404683  0.49163083  0.37071367  1
  In  In39  1  -0.01694717  0.51247609  0.87319007  1
  In  In40  1  -0.00882949  0.82375259  0.36577723  1
  In  In41  1  -0.00315852  0.83126484  0.87897489  1
  In  In42  1  0.33509611  0.16578301  0.38034226  1
  In  In43  1  0.34134090  0.17514172  0.87741946  1
  In  In44  1  0.32318898  0.50751796  0.37368382  1
  In  In45  1  0.33839037  0.51579548  0.87821878  1
  In  In46  1  0.34018566  0.82540999  0.36987549  1
  In  In47  1  0.33446127  0.82098572  0.87746472  1
  In  In48  1  0.65899238  0.17262240  0.37986540  1
  In  In49  1  0.67147672  0.16178484  0.87787195  1
  In  In50  1  0.68349449  0.51271563  0.36998571  1
  In  In51  1  0.66895064  0.49275702  0.86603592  1
  In  In52  1  0.68048293  0.82704416  0.37866567  1
  In  In53  1  0.68718158  0.85480141  0.86841978  1
  In  In54  1  0.16674655  -0.01013950  0.12322540  1
  In  In55  1  0.13736343  0.00348925  0.63350879  1
  In  In56  1  0.15168402  0.32116036  0.13192307  1
  In  In57  1  0.17000978  0.32798149  0.61851274  1
  In  In58  1  0.15537423  0.67653969  0.12923037  1
  In  In59  1  0.15402703  0.68888319  0.64515579  1
  In  In60  1  0.48909313  0.01016331  0.11465573  1
  In  In61  1  0.50736268  0.01557587  0.62633960  1
  In  In62  1  0.50938790  0.34235749  0.12120668  1
  In  In63  1  0.51971647  0.33397083  0.62790888  1
  In  In64  1  0.51294358  0.65644284  0.12838074  1
  In  In65  1  0.50414740  0.66385988  0.63508024  1
  In  In66  1  0.83940802  0.01297204  0.11162266  1
  In  In67  1  0.83591313  -0.00137385  0.62504621  1
  In  In68  1  0.83770687  0.32492337  0.13526225  1
  In  In69  1  0.81978667  0.32382649  0.61830668  1
  In  In70  1  0.82949314  0.66988128  0.12779939  1
  In  In71  1  0.82528451  0.67574275  0.61959194  1
  In  In72  1  0.33709421  0.34152908  0.74731006  1
  In  In73  1  0.50560785  0.49428126  0.50874166  1
  In  In74  1  0.16846838  0.50124810  0.00003859  1
  In  In75  1  -0.00452737  0.33523487  0.74986918  1
  In  In76  1  0.33811949  -0.00595514  0.75569301  1
  In  In77  1  0.66939328  -0.00615936  0.24764929  1
  In  In78  1  0.33045549  0.33742025  0.25371702  1
  In  In79  1  0.82935836  0.49976010  -0.00595786  1
  In  In80  1  0.32733476  -0.00422099  0.24096256  1
  In  In81  1  0.50839017  0.83759557  0.49955561  1
  In  In82  1  0.16234094  0.49966594  0.49679474  1
  In  In83  1  0.16839058  0.15840813  0.00407334  1
  In  In84  1  0.50057566  0.83482152  -0.00270467  1
  In  In85  1  0.16478424  0.84087601  0.50740603  1
  Cu  Cu86  1  0.66846689  0.66842926  -0.00002843  1
  Cu  Cu87  1  0.33293377  0.32185541  0.49749254  1
  Cu  Cu88  1  0.66976095  0.00667220  0.50382487  1
  Cu  Cu89  1  0.83709316  0.82903444  0.24960104  1
  Cu  Cu90  1  0.50701573  0.50060394  0.24805852  1
  Cu  Cu91  1  0.33267674  0.00586003  0.50115613  1
  Cu  Cu92  1  0.83688224  0.83886872  0.75100188  1
  Cu  Cu93  1  0.66895980  0.33170460  -0.00152369  1
  Cu  Cu94  1  0.50516725  0.83362520  0.75865420  1
  Cu  Cu95  1  -0.00357464  0.00235027  0.49975828  1
  Cu  Cu96  1  0.50151699  0.82008161  0.24564295  1
  Cu  Cu97  1  -0.00639198  0.33116677  0.49459807  1
  Cu  Cu98  1  0.00084443  0.67512728  -0.00112904  1
  Cu  Cu99  1  0.50137729  0.16826300  0.24835673  1
  Cu  Cu100  1  0.66716355  0.33012615  0.50164600  1
  Cu  Cu101  1  -0.01059464  0.32407534  0.00593418  1
  Cu  Cu102  1  0.33088161  0.66428185  0.50424786  1
  Cu  Cu103  1  0.51820011  0.17149279  0.75431584  1
  Cu  Cu104  1  -0.00447761  -0.00388699  -0.00169741  1
  Cu  Cu105  1  0.16337618  0.15796038  0.74486376  1
  Cu  Cu106  1  0.83304876  0.49686961  0.25202910  1
  Cu  Cu107  1  0.50099443  0.50143741  0.75286335  1
  Cu  Cu108  1  -0.01341020  0.67291777  0.49764330  1
  Cu  Cu109  1  0.33462086  0.66894285  -0.00031339  1
  Cu  Cu110  1  0.16322466  0.83347914  0.24681289  1
  Cu  Cu111  1  0.82987944  0.16568764  0.25390864  1
  Cu  Cu112  1  0.16915535  0.50966111  0.24911695  1
  Cu  Cu113  1  0.16105320  0.50962909  0.75360973  1
  Cu  Cu114  1  0.34061966  0.33740930  0.00134508  1
  Se  Se115  1  0.06955431  0.07913475  0.06328017  1
  Se  Se116  1  0.08597299  0.08341614  0.54969628  1
  Se  Se117  1  0.07386714  0.40908538  0.05752610  1
  Se  Se118  1  0.07123899  0.41168807  0.55831152  1
  Se  Se119  1  0.08584143  0.75584620  0.05244718  1
  Se  Se120  1  0.07319194  0.74500308  0.55905915  1
  Se  Se121  1  0.40576246  0.08358063  0.04396953  1
  Se  Se122  1  0.42213853  0.08506737  0.55214209  1
  Se  Se123  1  0.42681654  0.42171396  0.04911908  1
  Se  Se124  1  0.40627967  0.40287729  0.56212553  1
  Se  Se125  1  0.41615852  0.74541289  0.06307345  1
  Se  Se126  1  0.41392845  0.74722292  0.55946337  1
  Se  Se127  1  0.73852635  0.07297736  0.04649891  1
  Se  Se128  1  0.75544630  0.08679984  0.55749995  1
  Se  Se129  1  0.74909395  0.41043067  0.06158999  1
  Se  Se130  1  0.74425845  0.41979588  0.55425682  1
  Se  Se131  1  0.75438631  0.74872902  0.05213823  1
  Se  Se132  1  0.74930325  0.76271758  0.54904374  1
  Se  Se133  1  0.25426792  0.26130126  0.06029850  1
  Se  Se134  1  0.24471084  0.24213317  0.54910094  1
  Se  Se135  1  0.25651429  0.58855820  0.06309857  1
  Se  Se136  1  0.24373459  0.59116829  0.56266185  1
  Se  Se137  1  0.25832234  0.93347712  0.04915405  1
  Se  Se138  1  0.25650799  0.93078838  0.56585596  1
  Se  Se139  1  0.58556922  0.25130965  0.05531477  1
  Se  Se140  1  0.58579731  0.24584831  0.55610361  1
  Se  Se141  1  0.58828490  0.58123133  0.05131821  1
  Se  Se142  1  0.59078801  0.59272268  0.56054017  1
  Se  Se143  1  0.58848073  0.92567757  0.05795507  1
  Se  Se144  1  0.59400859  0.92223700  0.56464648  1
  Se  Se145  1  0.90881313  0.24145541  0.06003786  1
  Se  Se146  1  0.90954274  0.24946408  0.54919155  1
  Se  Se147  1  0.92436118  0.58577606  0.05577820  1
  Se  Se148  1  0.90762051  0.58668846  0.55080518  1
  Se  Se149  1  0.91302657  0.91182911  0.05216037  1
  Se  Se150  1  0.91481299  0.91553955  0.55121068  1
  Se  Se151  1  0.07962356  0.24658633  0.44563861  1
  Se  Se152  1  0.07092807  0.24601132  0.94426360  1
  Se  Se153  1  0.07215274  0.59308106  0.43970154  1
  Se  Se154  1  0.07766826  0.58906645  0.94016846  1
  Se  Se155  1  0.07558447  0.91890782  0.43892954  1
  Se  Se156  1  0.08236250  0.91358376  0.94877895  1
  Se  Se157  1  0.42345624  0.24371147  0.44762303  1
  Se  Se158  1  0.42136904  0.24967377  0.95051246  1
  Se  Se159  1  0.41274825  0.58513987  0.44594407  1
  Se  Se160  1  0.42262580  0.58610840  0.95155423  1
  Se  Se161  1  0.40896805  0.92427458  0.43992039  1
  Se  Se162  1  0.41114232  0.92423360  0.93685340  1
  Se  Se163  1  0.74985247  0.24659963  0.44750953  1
  Se  Se164  1  0.75445621  0.24893073  0.94744088  1
  Se  Se165  1  0.75511226  0.58125599  0.44888205  1
  Se  Se166  1  0.74694219  0.59372417  0.93402716  1
  Se  Se167  1  0.74659864  0.92068230  0.44737491  1
  Se  Se168  1  0.74949135  0.91824004  0.95419163  1
  Se  Se169  1  0.24770898  0.08339933  0.44513966  1
  Se  Se170  1  0.25016673  0.07888330  0.93178187  1
  Se  Se171  1  0.25443915  0.40564897  0.43953893  1
  Se  Se172  1  0.25608343  0.40683358  0.93793216  1
  Se  Se173  1  0.25266937  0.74666313  0.44424314  1
  Se  Se174  1  0.24689278  0.74973638  0.94978763  1
  Se  Se175  1  0.58152947  0.08571447  0.45093188  1
  Se  Se176  1  0.57372315  0.10192524  0.94879286  1
  Se  Se177  1  0.59015660  0.41229093  0.43943280  1
  Se  Se178  1  0.59227835  0.42188356  0.94541052  1
  Se  Se179  1  0.58987051  0.73775845  0.44315178  1
  Se  Se180  1  0.59514810  0.75205262  0.93658204  1
  Se  Se181  1  0.91195012  0.08508670  0.44657413  1
  Se  Se182  1  0.91569916  0.08464891  0.94736798  1
  Se  Se183  1  0.90972723  0.41904510  0.44745191  1
  Se  Se184  1  0.92072569  0.40440249  0.93858183  1
  Se  Se185  1  0.90859842  0.75780687  0.44243517  1
  Se  Se186  1  0.90858437  0.74845560  0.94598315  1
  Se  Se187  1  0.24453306  0.23838030  0.30683323  1
  Se  Se188  1  0.24370443  0.24114788  0.80126904  1
  Se  Se189  1  0.25638851  0.59168523  0.29905907  1
  Se  Se190  1  0.25080507  0.58458278  0.80707932  1
  Se  Se191  1  0.24239814  0.91109997  0.31135822  1
  Se  Se192  1  0.24330363  0.90454669  0.80902381  1
  Se  Se193  1  0.58613831  0.24925990  0.30095148  1
  Se  Se194  1  0.59812325  0.25726895  0.80693104  1
  Se  Se195  1  0.58806300  0.58458633  0.30328658  1
  Se  Se196  1  0.58576427  0.58459641  0.80461576  1
  Se  Se197  1  0.57615803  0.90295323  0.30810992  1
  Se  Se198  1  0.58851781  0.92430670  0.80246144  1
  Se  Se199  1  0.91157333  0.25096331  0.30783849  1
  Se  Se200  1  0.90924849  0.23724104  0.80394611  1
  Se  Se201  1  0.91443239  0.58515296  0.30410443  1
  Se  Se202  1  0.89948964  0.56862145  0.79488192  1
  Se  Se203  1  0.91734906  0.91842573  0.29980421  1
  Se  Se204  1  0.91776072  0.91819294  0.81004624  1
  Se  Se205  1  0.07173034  0.08211058  0.30070163  1
  Se  Se206  1  0.07977012  0.07262957  0.79419748  1
  Se  Se207  1  0.08933278  0.42720903  0.30632259  1
  Se  Se208  1  0.08801825  0.42459816  0.81373574  1
  Se  Se209  1  0.08217299  0.74717487  0.30001634  1
  Se  Se210  1  0.06110874  0.73464396  0.80945599  1
  Se  Se211  1  0.42133965  0.08360722  0.30489716  1
  Se  Se212  1  0.42818854  0.09226876  0.80871976  1
  Se  Se213  1  0.42545643  0.42638960  0.31274791  1
  Se  Se214  1  0.42506360  0.41954435  0.81601488  1
  Se  Se215  1  0.41366056  0.74158316  0.29874980  1
  Se  Se216  1  0.42050464  0.74802230  0.80692037  1
  Se  Se217  1  0.75079937  0.08318055  0.31417334  1
  Se  Se218  1  0.74910921  0.07728259  0.80882363  1
  Se  Se219  1  0.74789445  0.41323784  0.30398430  1
  Se  Se220  1  0.77968247  0.43993285  0.80345743  1
  Se  Se221  1  0.75051514  0.74805836  0.30216519  1
  Se  Se222  1  0.74944411  0.75478612  0.80131624  1
  Se  Se223  1  0.23536187  0.09392445  0.19215016  1
  Se  Se224  1  0.25215047  0.08280328  0.68759630  1
  Se  Se225  1  0.24255827  0.42456122  0.18717951  1
  Se  Se226  1  0.23651906  0.42817192  0.69085076  1
  Se  Se227  1  0.25015713  0.75368821  0.19380479  1
  Se  Se228  1  0.26796510  0.73566981  0.70384492  1
  Se  Se229  1  0.57795684  0.08495401  0.18856200  1
  Se  Se230  1  0.59343027  0.08423814  0.69894554  1
  Se  Se231  1  0.58836447  0.41284683  0.19821259  1
  Se  Se232  1  0.58669288  0.41965493  0.70060883  1
  Se  Se233  1  0.59343636  0.74395134  0.19527207  1
  Se  Se234  1  0.58463290  0.75105161  0.70053985  1
  Se  Se235  1  0.90601943  0.07951503  0.19703402  1
  Se  Se236  1  0.93591908  0.06857507  0.68959496  1
  Se  Se237  1  0.91886063  0.41213161  0.20142275  1
  Se  Se238  1  0.91328957  0.41721504  0.68092767  1
  Se  Se239  1  0.92064435  0.74716305  0.19354571  1
  Se  Se240  1  0.91240872  0.75384780  0.69182383  1
  Se  Se241  1  0.07720093  0.25082462  0.20793753  1
  Se  Se242  1  0.08583910  0.24473836  0.68789472  1
  Se  Se243  1  0.07976078  0.58661726  0.19630980  1
  Se  Se244  1  0.07489012  0.58877152  0.70059660  1
  Se  Se245  1  0.08054243  0.91739127  0.19450505  1
  Se  Se246  1  0.11225876  0.88234775  0.68972255  1
  Se  Se247  1  0.41782730  0.24758031  0.18964891  1
  Se  Se248  1  0.42675898  0.24275699  0.69480025  1
  Se  Se249  1  0.42049132  0.58252683  0.19691962  1
  Se  Se250  1  0.41492643  0.58314046  0.70094002  1
  Se  Se251  1  0.42667070  0.90695502  0.18679787  1
  Se  Se252  1  0.42966602  0.91016574  0.69024378  1
  Se  Se253  1  0.74451422  0.24527482  0.19856638  1
  Se  Se254  1  0.74498566  0.26012350  0.69940108  1
  Se  Se255  1  0.75282839  0.58070685  0.19508086  1
  Se  Se256  1  0.73998343  0.60336989  0.69293307  1
  Se  Se257  1  0.76015851  0.90915863  0.18623808  1
  Se  Se258  1  0.75191090  0.92310126  0.69891144  1
