# generated using pymatgen
data_In86Cu29Se144
_symmetry_space_group_name_H-M   'P 1'
_cell_length_a   17.57735248
_cell_length_b   17.57946540
_cell_length_c   23.43756502
_cell_angle_alpha   89.97964969
_cell_angle_beta   90.00221331
_cell_angle_gamma   89.99411945
_symmetry_Int_Tables_number   1
_chemical_formula_structural   In86Cu29Se144
_chemical_formula_sum   'In86 Cu29 Se144'
_cell_volume   7242.21786550
_cell_formula_units_Z   1
loop_
 _symmetry_equiv_pos_site_id
 _symmetry_equiv_pos_as_xyz
  1  'x, y, z'
loop_
 _atom_site_type_symbol
 _atom_site_label
 _atom_site_symmetry_multiplicity
 _atom_site_fract_x
 _atom_site_fract_y
 _atom_site_fract_z
 _atom_site_occupancy
  In  In0  1  0.00464350  0.17420278  0.11954898  1
  In  In1  1  0.01905300  0.19067194  0.60225688  1
  In  In2  1  -0.01504162  0.49288789  0.12929141  1
  In  In3  1  0.00821211  0.48291280  0.64152709  1
  In  In4  1  -0.00307551  0.84629515  0.12047843  1
  In  In5  1  -0.02062659  0.83453441  0.62246441  1
  In  In6  1  0.32912594  0.16484312  0.11675430  1
  In  In7  1  0.33664177  0.17276560  0.63013064  1
  In  In8  1  0.34296558  0.50000174  0.11722055  1
  In  In9  1  0.32723294  0.48723358  0.61996353  1
  In  In10  1  0.34197958  0.82127837  0.11669918  1
  In  In11  1  0.34716109  0.83756126  0.63233175  1
  In  In12  1  0.66568404  0.16548018  0.12549307  1
  In  In13  1  0.65746805  0.16209297  0.62138710  1
  In  In14  1  0.65376795  0.50447530  0.13866057  1
  In  In15  1  0.66916577  0.51396258  0.62766026  1
  In  In16  1  0.66639823  0.83548058  0.12157107  1
  In  In17  1  0.67926048  0.83046589  0.63215144  1
  In  In18  1  0.17545754  0.00866217  0.37587447  1
  In  In19  1  0.18299304  0.00611400  0.87066313  1
  In  In20  1  0.16013688  0.32935949  0.38051311  1
  In  In21  1  0.16076349  0.32767029  0.86930160  1
  In  In22  1  0.15521521  0.66029570  0.37820411  1
  In  In23  1  0.16119954  0.67199378  0.86811396  1
  In  In24  1  0.51430122  -0.00008912  0.37161884  1
  In  In25  1  0.50203591  0.00306564  0.87753002  1
  In  In26  1  0.50220255  0.33132166  0.37859247  1
  In  In27  1  0.49332660  0.34375433  0.87920533  1
  In  In28  1  0.50489295  0.65216860  0.37476319  1
  In  In29  1  0.51179483  0.65218601  0.88710551  1
  In  In30  1  0.82263853  0.00788398  0.38011556  1
  In  In31  1  0.82184260  0.00778591  0.87927915  1
  In  In32  1  0.82783690  0.32581696  0.37418396  1
  In  In33  1  0.83050656  0.32139007  0.87189299  1
  In  In34  1  0.82715615  0.67597676  0.37893400  1
  In  In35  1  0.84001065  0.67396120  0.86730189  1
  In  In36  1  -0.00526527  0.17382273  0.38402631  1
  In  In37  1  -0.00736240  0.17394597  0.87710704  1
  In  In38  1  0.01220364  0.49090745  0.38404397  1
  In  In39  1  -0.00772082  0.49781924  0.85994541  1
  In  In40  1  -0.00717721  0.81806930  0.37736862  1
  In  In41  1  -0.00062297  0.82283454  0.87274720  1
  In  In42  1  0.32851051  0.17391520  0.38451035  1
  In  In43  1  0.33591122  0.17024066  0.87513899  1
  In  In44  1  0.33911483  0.48915839  0.38290810  1
  In  In45  1  0.36582862  0.49612897  0.87182816  1
  In  In46  1  0.33771333  0.84791631  0.37384631  1
  In  In47  1  0.33409437  0.84579727  0.87424765  1
  In  In48  1  0.66419729  0.16583882  0.37481145  1
  In  In49  1  0.67595954  0.16011829  0.88065696  1
  In  In50  1  0.65552709  0.49073068  0.36405231  1
  In  In51  1  0.64657059  0.50291776  0.86947155  1
  In  In52  1  0.67491319  0.83989517  0.36408425  1
  In  In53  1  0.66451434  0.83537285  0.87726963  1
  In  In54  1  0.15324704  0.00863500  0.12456295  1
  In  In55  1  0.16976298  0.01656047  0.62693471  1
  In  In56  1  0.16831574  0.31915321  0.13289730  1
  In  In57  1  0.16530213  0.33684313  0.62384374  1
  In  In58  1  0.17125017  0.66508907  0.12712844  1
  In  In59  1  0.16885731  0.64564220  0.62294629  1
  In  In60  1  0.50904221  0.01121938  0.11643229  1
  In  In61  1  0.49487113  0.01080788  0.63702655  1
  In  In62  1  0.51186289  0.33973358  0.12034543  1
  In  In63  1  0.49559742  0.32686142  0.62200126  1
  In  In64  1  0.50684840  0.67437271  0.11204217  1
  In  In65  1  0.51336679  0.66314518  0.62875648  1
  In  In66  1  0.82560431  -0.00989577  0.11690378  1
  In  In67  1  0.82873630  0.00192874  0.62158067  1
  In  In68  1  0.83886647  0.32363846  0.13248353  1
  In  In69  1  0.85490655  0.33466924  0.62457300  1
  In  In70  1  0.81942780  0.66370030  0.12317745  1
  In  In71  1  0.82130852  0.66742864  0.63585399  1
  In  In72  1  0.66768840  0.33799451  0.74904102  1
  In  In73  1  0.82405491  0.49456399  -0.00127991  1
  In  In74  1  -0.00568877  0.66034507  0.25923216  1
  In  In75  1  0.33415972  0.66722338  0.75238175  1
  In  In76  1  0.16604316  0.83368032  0.49601849  1
  In  In77  1  0.17137803  0.49542951  0.00041446  1
  In  In78  1  0.50858976  0.82994192  0.50860664  1
  In  In79  1  0.33374111  0.00181632  0.24201953  1
  In  In80  1  -0.00557876  0.00489455  0.25354589  1
  In  In81  1  0.16777822  0.84027319  -0.00370980  1
  In  In82  1  0.83504568  0.49825123  0.50729813  1
  In  In83  1  -0.00262503  0.00559917  0.74261463  1
  In  In84  1  0.33881434  0.66710385  0.24319015  1
  In  In85  1  0.34004144  0.33403982  0.25655376  1
  Cu  Cu86  1  -0.00484617  0.66132070  0.50384138  1
  Cu  Cu87  1  0.82818424  0.83064612  0.24547641  1
  Cu  Cu88  1  0.66654051  0.00210360  0.49772184  1
  Cu  Cu89  1  0.83020140  0.48958347  0.25335732  1
  Cu  Cu90  1  0.33126999  0.65652591  0.49856108  1
  Cu  Cu91  1  0.66403239  -0.00150476  0.00004387  1
  Cu  Cu92  1  0.50853256  0.82719718  0.24378025  1
  Cu  Cu93  1  -0.00172554  0.66860634  -0.00804795  1
  Cu  Cu94  1  0.16878217  0.49410319  0.74870018  1
  Cu  Cu95  1  0.82775903  0.83725579  0.75069262  1
  Cu  Cu96  1  0.66641764  0.33069761  0.49741391  1
  Cu  Cu97  1  0.50227927  0.16800362  0.75369552  1
  Cu  Cu98  1  0.33803714  0.00926707  0.50779536  1
  Cu  Cu99  1  0.17123854  0.17297678  0.74552653  1
  Cu  Cu100  1  0.83866854  0.16834394  0.74759792  1
  Cu  Cu101  1  -0.00600913  0.00059929  0.50275500  1
  Cu  Cu102  1  0.00217459  0.32722859  -0.00022344  1
  Cu  Cu103  1  0.66588164  0.33010246  0.00044691  1
  Cu  Cu104  1  0.16818014  0.49438616  0.25685903  1
  Cu  Cu105  1  0.66888250  0.66604692  0.50375243  1
  Cu  Cu106  1  0.33675785  0.00573846  -0.00383831  1
  Cu  Cu107  1  0.82689141  0.16206608  0.25228523  1
  Cu  Cu108  1  0.50520913  0.83993934  0.75501496  1
  Cu  Cu109  1  0.33314516  0.32981325  0.50284566  1
  Cu  Cu110  1  0.50192534  0.16601222  0.24951634  1
  Cu  Cu111  1  -0.00490998  0.00710102  -0.00252147  1
  Cu  Cu112  1  0.66919448  0.67018249  0.00076576  1
  Cu  Cu113  1  0.16258747  0.83350787  0.75068910  1
  Cu  Cu114  1  0.33553340  0.32983328  -0.00148522  1
  Se  Se115  1  0.08252356  0.08755871  0.04897945  1
  Se  Se116  1  0.08707270  0.07924187  0.54927607  1
  Se  Se117  1  0.07591338  0.41132984  0.06126718  1
  Se  Se118  1  0.07377788  0.41546343  0.55883743  1
  Se  Se119  1  0.07842343  0.74363028  0.05672376  1
  Se  Se120  1  0.07990080  0.74599148  0.56124889  1
  Se  Se121  1  0.41926471  0.08931720  0.05023831  1
  Se  Se122  1  0.42267967  0.09000892  0.56080397  1
  Se  Se123  1  0.42057224  0.41327618  0.05056615  1
  Se  Se124  1  0.41953814  0.41528626  0.55153162  1
  Se  Se125  1  0.41595897  0.74574353  0.04308374  1
  Se  Se126  1  0.40826816  0.73821044  0.55967059  1
  Se  Se127  1  0.74726439  0.08317024  0.05395118  1
  Se  Se128  1  0.74731357  0.08617776  0.55279442  1
  Se  Se129  1  0.74243928  0.40908941  0.06618238  1
  Se  Se130  1  0.74098056  0.40770863  0.56440422  1
  Se  Se131  1  0.75347188  0.75400582  0.05205635  1
  Se  Se132  1  0.75191689  0.74851922  0.55718087  1
  Se  Se133  1  0.24609022  0.25408526  0.05267178  1
  Se  Se134  1  0.25086045  0.24881904  0.55917607  1
  Se  Se135  1  0.25894010  0.59574782  0.05364682  1
  Se  Se136  1  0.24708003  0.57191075  0.54862678  1
  Se  Se137  1  0.25615935  0.92875287  0.06101246  1
  Se  Se138  1  0.25859888  0.91923307  0.56062418  1
  Se  Se139  1  0.58228338  0.24532795  0.05335606  1
  Se  Se140  1  0.58099482  0.24882203  0.55181405  1
  Se  Se141  1  0.59247036  0.57907862  0.05414670  1
  Se  Se142  1  0.58244931  0.58181025  0.55195340  1
  Se  Se143  1  0.57965726  0.91377813  0.05191855  1
  Se  Se144  1  0.59089709  0.92686560  0.56630383  1
  Se  Se145  1  0.91237296  0.25015913  0.05288047  1
  Se  Se146  1  0.90189514  0.24116339  0.54853636  1
  Se  Se147  1  0.92128971  0.58826083  0.05478186  1
  Se  Se148  1  0.92067846  0.58684473  0.57079623  1
  Se  Se149  1  0.91548150  0.91601661  0.04609084  1
  Se  Se150  1  0.90702895  0.91660749  0.54962613  1
  Se  Se151  1  0.08997067  0.24111677  0.45146804  1
  Se  Se152  1  0.08628589  0.24750448  0.94465569  1
  Se  Se153  1  0.08417488  0.58103643  0.45400840  1
  Se  Se154  1  0.07751556  0.58253209  0.93800198  1
  Se  Se155  1  0.07255270  0.92345902  0.43686672  1
  Se  Se156  1  0.07665027  0.92904233  0.93418498  1
  Se  Se157  1  0.42013870  0.24959130  0.44872573  1
  Se  Se158  1  0.42142757  0.24888099  0.94557825  1
  Se  Se159  1  0.42113086  0.57880562  0.44703260  1
  Se  Se160  1  0.41189890  0.58473435  0.95061934  1
  Se  Se161  1  0.41789664  0.92521159  0.44921902  1
  Se  Se162  1  0.41844331  0.91803897  0.94692349  1
  Se  Se163  1  0.74813070  0.24544507  0.44585377  1
  Se  Se164  1  0.75403233  0.24984430  0.94910402  1
  Se  Se165  1  0.74409566  0.58158501  0.44214906  1
  Se  Se166  1  0.74387834  0.58911771  0.93610827  1
  Se  Se167  1  0.74522342  0.91321918  0.44469306  1
  Se  Se168  1  0.74980827  0.91606227  0.94738246  1
  Se  Se169  1  0.25024333  0.08432262  0.45157895  1
  Se  Se170  1  0.24996141  0.08891257  0.94629502  1
  Se  Se171  1  0.24896707  0.41114380  0.44657832  1
  Se  Se172  1  0.25875088  0.41110894  0.93556362  1
  Se  Se173  1  0.26143512  0.74369420  0.43675209  1
  Se  Se174  1  0.25322577  0.74525845  0.93806087  1
  Se  Se175  1  0.58011481  0.08403718  0.44652490  1
  Se  Se176  1  0.58355042  0.08610876  0.94771042  1
  Se  Se177  1  0.58553679  0.41830535  0.44540458  1
  Se  Se178  1  0.58575021  0.41773284  0.94765942  1
  Se  Se179  1  0.59201569  0.74686985  0.43972699  1
  Se  Se180  1  0.58328074  0.75239040  0.94820472  1
  Se  Se181  1  0.91204862  0.08301502  0.44693951  1
  Se  Se182  1  0.91057211  0.08955235  0.94437463  1
  Se  Se183  1  0.91936011  0.40618057  0.44548809  1
  Se  Se184  1  0.92357587  0.41115105  0.94070909  1
  Se  Se185  1  0.91262458  0.74709723  0.45291270  1
  Se  Se186  1  0.91192085  0.75380817  0.94544316  1
  Se  Se187  1  0.24348433  0.24304072  0.30722636  1
  Se  Se188  1  0.25343659  0.25174372  0.80376213  1
  Se  Se189  1  0.24952408  0.57928111  0.31087289  1
  Se  Se190  1  0.24764841  0.57130386  0.81286849  1
  Se  Se191  1  0.24094603  0.91128915  0.30323190  1
  Se  Se192  1  0.25006990  0.91593883  0.79897057  1
  Se  Se193  1  0.58039868  0.24968223  0.30631668  1
  Se  Se194  1  0.58415498  0.24760401  0.81436536  1
  Se  Se195  1  0.59517267  0.59559255  0.30084221  1
  Se  Se196  1  0.57270004  0.58914299  0.79973902  1
  Se  Se197  1  0.58462283  0.91732889  0.29739779  1
  Se  Se198  1  0.58819974  0.92406445  0.80756781  1
  Se  Se199  1  0.91264185  0.24230977  0.30631945  1
  Se  Se200  1  0.92073867  0.25330766  0.79986695  1
  Se  Se201  1  0.90670596  0.56842437  0.31897212  1
  Se  Se202  1  0.91855069  0.59134846  0.79814835  1
  Se  Se203  1  0.90735192  0.90661874  0.31020635  1
  Se  Se204  1  0.91302110  0.91748505  0.80900672  1
  Se  Se205  1  0.08740701  0.09269781  0.31040582  1
  Se  Se206  1  0.08896805  0.09110400  0.80574936  1
  Se  Se207  1  0.08259771  0.41204329  0.30679535  1
  Se  Se208  1  0.08099468  0.41163399  0.79969264  1
  Se  Se209  1  0.09283332  0.75744540  0.30519250  1
  Se  Se210  1  0.07728919  0.74762662  0.79689937  1
  Se  Se211  1  0.41766741  0.08910994  0.30997523  1
  Se  Se212  1  0.41779302  0.08420604  0.80738344  1
  Se  Se213  1  0.43183954  0.43083560  0.30586555  1
  Se  Se214  1  0.42151014  0.40863293  0.79566987  1
  Se  Se215  1  0.42470926  0.75913488  0.30917105  1
  Se  Se216  1  0.42446004  0.75568223  0.81256656  1
  Se  Se217  1  0.74260258  0.07834981  0.30373578  1
  Se  Se218  1  0.75342125  0.08819588  0.80153941  1
  Se  Se219  1  0.74540916  0.40566373  0.30356787  1
  Se  Se220  1  0.75485671  0.42604141  0.81337994  1
  Se  Se221  1  0.74914918  0.74339264  0.29952993  1
  Se  Se222  1  0.74597046  0.75403287  0.80571167  1
  Se  Se223  1  0.23751015  0.09616767  0.19308839  1
  Se  Se224  1  0.25637234  0.08426015  0.69959493  1
  Se  Se225  1  0.25051557  0.42510547  0.19068382  1
  Se  Se226  1  0.25265728  0.41110748  0.69652378  1
  Se  Se227  1  0.24330964  0.76363536  0.19251749  1
  Se  Se228  1  0.24230961  0.75387517  0.68718098  1
  Se  Se229  1  0.58336639  0.08085470  0.19624374  1
  Se  Se230  1  0.58887234  0.08605030  0.70223167  1
  Se  Se231  1  0.58332875  0.40653122  0.20147061  1
  Se  Se232  1  0.57633498  0.42294750  0.68820032  1
  Se  Se233  1  0.58829633  0.74397184  0.18894181  1
  Se  Se234  1  0.58212549  0.75693391  0.69606116  1
  Se  Se235  1  0.90676586  0.08658225  0.18649371  1
  Se  Se236  1  0.91890052  0.09900047  0.67949080  1
  Se  Se237  1  0.91852989  0.40888364  0.20346861  1
  Se  Se238  1  0.89861629  0.42776061  0.70181265  1
  Se  Se239  1  0.91533135  0.75226983  0.18926050  1
  Se  Se240  1  0.91231917  0.75347493  0.69860765  1
  Se  Se241  1  0.07023291  0.25500560  0.19736817  1
  Se  Se242  1  0.08161419  0.24954090  0.69200017  1
  Se  Se243  1  0.08804330  0.57392660  0.19429489  1
  Se  Se244  1  0.08608804  0.58345855  0.70064341  1
  Se  Se245  1  0.08757416  0.91060452  0.19548338  1
  Se  Se246  1  0.08720219  0.91075589  0.68405960  1
  Se  Se247  1  0.41917744  0.24289714  0.18890594  1
  Se  Se248  1  0.42053937  0.25295059  0.70057406  1
  Se  Se249  1  0.43018363  0.57807992  0.18718786  1
  Se  Se250  1  0.41554744  0.57839179  0.68712836  1
  Se  Se251  1  0.42544694  0.90864072  0.18611251  1
  Se  Se252  1  0.41679389  0.92163755  0.70510453  1
  Se  Se253  1  0.74593108  0.24746386  0.19743979  1
  Se  Se254  1  0.75500336  0.24696286  0.68713759  1
  Se  Se255  1  0.75552655  0.57860283  0.19841344  1
  Se  Se256  1  0.73782324  0.58950187  0.70544994  1
  Se  Se257  1  0.74760346  0.91756763  0.19372796  1
  Se  Se258  1  0.75065969  0.92673320  0.69803883  1
