# generated using pymatgen
data_In86Cu29Se144
_symmetry_space_group_name_H-M   'P 1'
_cell_length_a   17.59007022
_cell_length_b   17.59060875
_cell_length_c   23.46051597
_cell_angle_alpha   90.02121895
_cell_angle_beta   89.98177750
_cell_angle_gamma   90.00568336
_symmetry_Int_Tables_number   1
_chemical_formula_structural   In86Cu29Se144
_chemical_formula_sum   'In86 Cu29 Se144'
_cell_volume   7259.15296159
_cell_formula_units_Z   1
loop_
 _symmetry_equiv_pos_site_id
 _symmetry_equiv_pos_as_xyz
  1  'x, y, z'
loop_
 _atom_site_type_symbol
 _atom_site_label
 _atom_site_symmetry_multiplicity
 _atom_site_fract_x
 _atom_site_fract_y
 _atom_site_fract_z
 _atom_site_occupancy
  In  In0  1  0.01632943  0.16778422  0.13391071  1
  In  In1  1  -0.00850085  0.16689984  0.61808086  1
  In  In2  1  0.00187740  0.49630397  0.13391510  1
  In  In3  1  0.01414461  0.49620721  0.62352740  1
  In  In4  1  0.00004985  0.83604713  0.11336500  1
  In  In5  1  0.01433116  0.82443673  0.63270849  1
  In  In6  1  0.33387092  0.16500760  0.13488314  1
  In  In7  1  0.33869250  0.16510072  0.62165213  1
  In  In8  1  0.33970154  0.49476572  0.12208295  1
  In  In9  1  0.32829222  0.50433378  0.63201732  1
  In  In10  1  0.33032190  0.83882746  0.11980845  1
  In  In11  1  0.32017233  0.84297415  0.63558876  1
  In  In12  1  0.65085486  0.16331346  0.13018963  1
  In  In13  1  0.67476007  0.17253647  0.61897391  1
  In  In14  1  0.66475590  0.52138895  0.12591984  1
  In  In15  1  0.66058336  0.50259545  0.63289278  1
  In  In16  1  0.66313522  0.83187376  0.12159851  1
  In  In17  1  0.65434594  0.83069298  0.63181859  1
  In  In18  1  0.17914556  -0.00632913  0.39235287  1
  In  In19  1  0.16374082  -0.00527775  0.86838822  1
  In  In20  1  0.17059843  0.32958291  0.37855319  1
  In  In21  1  0.17459450  0.32581656  0.87059811  1
  In  In22  1  0.18547341  0.65571898  0.38683076  1
  In  In23  1  0.18803599  0.68602538  0.86366691  1
  In  In24  1  0.50224564  0.00187254  0.37150271  1
  In  In25  1  0.47908697  -0.01230752  0.88015253  1
  In  In26  1  0.48716148  0.33674226  0.37479360  1
  In  In27  1  0.49798377  0.33520204  0.87064016  1
  In  In28  1  0.49006544  0.66095430  0.36302118  1
  In  In29  1  0.49172581  0.66518922  0.88144605  1
  In  In30  1  0.83427903  0.01086241  0.37671850  1
  In  In31  1  0.82980421  -0.01407155  0.87009488  1
  In  In32  1  0.83506364  0.31472354  0.37795370  1
  In  In33  1  0.83130741  0.34787854  0.87159425  1
  In  In34  1  0.82635765  0.67174284  0.37264573  1
  In  In35  1  0.84291579  0.67423083  0.86537719  1
  In  In36  1  0.00070945  0.17027396  0.38649499  1
  In  In37  1  0.01665584  0.16747290  0.86498489  1
  In  In38  1  0.02673770  0.49704728  0.38042098  1
  In  In39  1  -0.01217135  0.50502010  0.87219683  1
  In  In40  1  0.00634198  0.84509859  0.37724678  1
  In  In41  1  0.00321970  0.83077659  0.87188998  1
  In  In42  1  0.33300073  0.16753844  0.37967206  1
  In  In43  1  0.32989575  0.16203221  0.86501530  1
  In  In44  1  0.29890560  0.47487154  0.34140542  1
  In  In45  1  0.34227900  0.50436190  0.87528090  1
  In  In46  1  0.33114550  0.83140330  0.36871105  1
  In  In47  1  0.33030444  0.83134593  0.88445890  1
  In  In48  1  0.67385996  0.15646497  0.38263611  1
  In  In49  1  0.65840420  0.16738596  0.86792272  1
  In  In50  1  0.65516133  0.50581132  0.37060036  1
  In  In51  1  0.65355305  0.49454602  0.86773002  1
  In  In52  1  0.65455787  0.82652732  0.36306324  1
  In  In53  1  0.67525010  0.82540008  0.87970367  1
  In  In54  1  0.17548990  -0.00698587  0.12997066  1
  In  In55  1  0.17415686  -0.00389629  0.62385514  1
  In  In56  1  0.17931521  0.33124630  0.14135310  1
  In  In57  1  0.16924895  0.34940833  0.61447337  1
  In  In58  1  0.16675189  0.67672875  0.12352823  1
  In  In59  1  0.17083143  0.66520239  0.62731074  1
  In  In60  1  0.49829112  -0.00158831  0.13087735  1
  In  In61  1  0.47809452  0.00057462  0.62371143  1
  In  In62  1  0.47934168  0.33618417  0.12152483  1
  In  In63  1  0.50793009  0.32528273  0.63066807  1
  In  In64  1  0.49451215  0.67719286  0.11241278  1
  In  In65  1  0.49536395  0.67092031  0.63796828  1
  In  In66  1  0.82934827  -0.01771102  0.12188546  1
  In  In67  1  0.84176760  0.02456811  0.62683393  1
  In  In68  1  0.83973967  0.34674024  0.12955182  1
  In  In69  1  0.83416478  0.30532179  0.62809905  1
  In  In70  1  0.82470201  0.66661777  0.12181890  1
  In  In71  1  0.82945753  0.67377744  0.63266588  1
  In  In72  1  -0.00316448  0.33237401  0.74133343  1
  In  In73  1  0.17628101  0.15752699  0.00797934  1
  In  In74  1  0.48975620  0.83730156  0.49677555  1
  In  In75  1  0.49024346  0.50044352  0.49304826  1
  In  In76  1  0.82992240  0.50798707  -0.00161589  1
  In  In77  1  0.83578695  0.83923914  0.49686100  1
  In  In78  1  0.84162974  0.48935339  0.50669802  1
  In  In79  1  0.66857251  0.00260688  0.74906261  1
  In  In80  1  0.17179662  0.50477938  -0.00484448  1
  In  In81  1  0.49235020  0.15971056  0.00205598  1
  In  In82  1  0.66765456  0.33348604  0.25224953  1
  In  In83  1  0.00774982  0.66472738  0.24944184  1
  In  In84  1  0.83487155  0.16335249  -0.00673885  1
  In  In85  1  -0.00507340  0.00426506  0.25626471  1
  Cu  Cu86  1  0.33322903  0.33579496  0.49594086  1
  Cu  Cu87  1  0.01126409  0.67044136  0.50544108  1
  Cu  Cu88  1  0.17081714  0.83226105  0.75145160  1
  Cu  Cu89  1  0.49483023  0.83340921  0.24001810  1
  Cu  Cu90  1  0.84147802  0.83884842  0.74967760  1
  Cu  Cu91  1  0.49612328  0.16559271  0.74891860  1
  Cu  Cu92  1  -0.00109848  -0.00981905  -0.00697900  1
  Cu  Cu93  1  0.66280156  0.66226046  0.50025285  1
  Cu  Cu94  1  0.82017551  0.82626135  0.24525102  1
  Cu  Cu95  1  0.16479103  0.50142354  0.74784765  1
  Cu  Cu96  1  0.84416764  0.49703880  0.25155700  1
  Cu  Cu97  1  0.00301501  -0.00063049  0.50405988  1
  Cu  Cu98  1  0.32885179  0.66738872  0.50145027  1
  Cu  Cu99  1  0.17168103  0.83346700  0.25241406  1
  Cu  Cu100  1  0.83257200  0.16352097  0.25651995  1
  Cu  Cu101  1  0.50235528  0.51182864  0.24081916  1
  Cu  Cu102  1  0.66470811  0.67100268  -0.00189084  1
  Cu  Cu103  1  0.49814577  0.82656883  0.75857723  1
  Cu  Cu104  1  0.00354647  0.67201927  -0.00623956  1
  Cu  Cu105  1  0.17092244  0.17024744  0.25985152  1
  Cu  Cu106  1  0.00854446  0.32868880  0.00982290  1
  Cu  Cu107  1  0.49493547  0.16407191  0.25360387  1
  Cu  Cu108  1  0.49166139  0.50179251  0.75357174  1
  Cu  Cu109  1  0.17424735  0.16290523  0.74106437  1
  Cu  Cu110  1  0.66664071  -0.00479467  -0.00016353  1
  Cu  Cu111  1  0.66636647  0.32312396  0.50498115  1
  Cu  Cu112  1  0.65872821  0.34170554  -0.00537352  1
  Cu  Cu113  1  0.82523291  0.50424177  0.74811534  1
  Cu  Cu114  1  0.66422878  0.00353177  0.49833004  1
  Se  Se115  1  0.07165734  0.07048987  0.05903868  1
  Se  Se116  1  0.08404739  0.08100184  0.55980860  1
  Se  Se117  1  0.08852564  0.41218112  0.06432447  1
  Se  Se118  1  0.07468981  0.41560441  0.54560682  1
  Se  Se119  1  0.08586935  0.75229172  0.04985431  1
  Se  Se120  1  0.09465622  0.75411593  0.55647139  1
  Se  Se121  1  0.40112118  0.07206890  0.06022088  1
  Se  Se122  1  0.41076549  0.07980839  0.54803154  1
  Se  Se123  1  0.42028676  0.42241136  0.04644442  1
  Se  Se124  1  0.41246689  0.41232182  0.56178162  1
  Se  Se125  1  0.42657052  0.77701235  0.04702154  1
  Se  Se126  1  0.41007602  0.74493880  0.56230509  1
  Se  Se127  1  0.74129914  0.08282549  0.05837545  1
  Se  Se128  1  0.75172411  0.08279306  0.55095037  1
  Se  Se129  1  0.74156803  0.41386945  0.05890042  1
  Se  Se130  1  0.74064842  0.40905399  0.56463750  1
  Se  Se131  1  0.75095587  0.75169159  0.05167772  1
  Se  Se132  1  0.74035790  0.74923181  0.55587049  1
  Se  Se133  1  0.26033474  0.25789247  0.06155266  1
  Se  Se134  1  0.25589331  0.25675853  0.55688440  1
  Se  Se135  1  0.25731522  0.59293816  0.05751102  1
  Se  Se136  1  0.25063255  0.58018017  0.55633155  1
  Se  Se137  1  0.23571190  0.91199303  0.05279459  1
  Se  Se138  1  0.25562210  0.91371763  0.55421352  1
  Se  Se139  1  0.58625160  0.25706983  0.05668719  1
  Se  Se140  1  0.57623448  0.24293184  0.55379239  1
  Se  Se141  1  0.58242089  0.58616366  0.04992497  1
  Se  Se142  1  0.57802680  0.58862947  0.55947837  1
  Se  Se143  1  0.58126254  0.92255182  0.05815829  1
  Se  Se144  1  0.58704452  0.92239080  0.55843708  1
  Se  Se145  1  0.92143641  0.24990272  0.06330653  1
  Se  Se146  1  0.92419474  0.26166261  0.54967610  1
  Se  Se147  1  0.93043685  0.58915468  0.05865937  1
  Se  Se148  1  0.92075265  0.59556544  0.56128333  1
  Se  Se149  1  0.91031044  0.91282981  0.04620977  1
  Se  Se150  1  0.92194633  0.91953240  0.56503679  1
  Se  Se151  1  0.10812052  0.22984515  0.44819862  1
  Se  Se152  1  0.08386514  0.25096715  0.94636995  1
  Se  Se153  1  0.09254698  0.58366356  0.45437318  1
  Se  Se154  1  0.07917927  0.58991641  0.93354170  1
  Se  Se155  1  0.08564271  0.91287627  0.45396754  1
  Se  Se156  1  0.08754121  0.91251192  0.94129569  1
  Se  Se157  1  0.41897009  0.25080889  0.44764410  1
  Se  Se158  1  0.40847434  0.24848027  0.93856241  1
  Se  Se159  1  0.40095583  0.58838031  0.43484134  1
  Se  Se160  1  0.41614740  0.57830012  0.95161798  1
  Se  Se161  1  0.40273572  0.92946136  0.43995360  1
  Se  Se162  1  0.42465215  0.89833971  0.95727877  1
  Se  Se163  1  0.75236635  0.24329201  0.45130888  1
  Se  Se164  1  0.74143686  0.26001515  0.93949030  1
  Se  Se165  1  0.74682243  0.58183814  0.44510418  1
  Se  Se166  1  0.74301743  0.59159099  0.93381214  1
  Se  Se167  1  0.73624061  0.91806958  0.43590761  1
  Se  Se168  1  0.75354770  0.91561952  0.94752839  1
  Se  Se169  1  0.22377091  0.11449808  0.44653807  1
  Se  Se170  1  0.25768652  0.07281851  0.93979600  1
  Se  Se171  1  0.25595892  0.42277129  0.43986577  1
  Se  Se172  1  0.25721521  0.40536022  0.94131748  1
  Se  Se173  1  0.25361194  0.75871926  0.44761936  1
  Se  Se174  1  0.24470793  0.74822068  0.95143722  1
  Se  Se175  1  0.57712738  0.08349475  0.44616841  1
  Se  Se176  1  0.58732438  0.07404616  0.93898991  1
  Se  Se177  1  0.59254051  0.40758132  0.44327590  1
  Se  Se178  1  0.57371201  0.42100632  0.94292753  1
  Se  Se179  1  0.58123682  0.74015112  0.44038219  1
  Se  Se180  1  0.58086860  0.75292474  0.94449782  1
  Se  Se181  1  0.91724727  0.08077526  0.45038944  1
  Se  Se182  1  0.92907178  0.07869454  0.93355385  1
  Se  Se183  1  0.92474691  0.40942984  0.43672577  1
  Se  Se184  1  0.92719565  0.40826740  0.94926548  1
  Se  Se185  1  0.92738481  0.74139779  0.44152690  1
  Se  Se186  1  0.91515569  0.75170688  0.94222351  1
  Se  Se187  1  0.25902493  0.25398721  0.30742318  1
  Se  Se188  1  0.25195135  0.24951636  0.79661651  1
  Se  Se189  1  0.25813532  0.60368067  0.30055747  1
  Se  Se190  1  0.24950407  0.57658529  0.80615507  1
  Se  Se191  1  0.24515469  0.92378476  0.30784642  1
  Se  Se192  1  0.25578133  0.91229791  0.80727471  1
  Se  Se193  1  0.57915086  0.24407620  0.31292536  1
  Se  Se194  1  0.57944415  0.25109873  0.80052791  1
  Se  Se195  1  0.58739603  0.59013510  0.29677370  1
  Se  Se196  1  0.57417250  0.58747727  0.80649711  1
  Se  Se197  1  0.57565127  0.91502183  0.29893471  1
  Se  Se198  1  0.58096967  0.91353710  0.81281695  1
  Se  Se199  1  0.92187634  0.24133499  0.30723574  1
  Se  Se200  1  0.91125835  0.24871263  0.81034255  1
  Se  Se201  1  0.91876690  0.57805187  0.31561520  1
  Se  Se202  1  0.91673187  0.58352220  0.79628302  1
  Se  Se203  1  0.90084524  0.90451232  0.30788072  1
  Se  Se204  1  0.92530796  0.92061390  0.80237306  1
  Se  Se205  1  0.08993186  0.08433066  0.31654802  1
  Se  Se206  1  0.09007164  0.08195876  0.79574285  1
  Se  Se207  1  0.09631347  0.41674431  0.30697313  1
  Se  Se208  1  0.08466568  0.41986875  0.80906362  1
  Se  Se209  1  0.09129401  0.75514439  0.31384649  1
  Se  Se210  1  0.08286168  0.74718123  0.80097777  1
  Se  Se211  1  0.41088104  0.08305112  0.30817403  1
  Se  Se212  1  0.41960722  0.07700567  0.80373078  1
  Se  Se213  1  0.42778077  0.42681980  0.30022629  1
  Se  Se214  1  0.40961172  0.41298177  0.80287694  1
  Se  Se215  1  0.41357176  0.75229465  0.29825429  1
  Se  Se216  1  0.41026060  0.74900193  0.81168402  1
  Se  Se217  1  0.74607853  0.07923212  0.30396472  1
  Se  Se218  1  0.76105887  0.09267555  0.80714597  1
  Se  Se219  1  0.75976026  0.42216942  0.31388054  1
  Se  Se220  1  0.74503892  0.41778788  0.80050372  1
  Se  Se221  1  0.74144107  0.74044761  0.29948094  1
  Se  Se222  1  0.75385841  0.75668500  0.80085411  1
  Se  Se223  1  0.24381395  0.08496907  0.19947408  1
  Se  Se224  1  0.25998190  0.07823581  0.69224389  1
  Se  Se225  1  0.26138336  0.42286607  0.19974468  1
  Se  Se226  1  0.24569735  0.41463770  0.69619769  1
  Se  Se227  1  0.25086502  0.75536763  0.19284699  1
  Se  Se228  1  0.25291661  0.74356853  0.70034489  1
  Se  Se229  1  0.58027563  0.08051413  0.20265465  1
  Se  Se230  1  0.57591812  0.08551160  0.68665348  1
  Se  Se231  1  0.58193531  0.42036084  0.18674924  1
  Se  Se232  1  0.57699078  0.41990818  0.69903854  1
  Se  Se233  1  0.57968934  0.74841823  0.18904893  1
  Se  Se234  1  0.58584622  0.74695779  0.70572522  1
  Se  Se235  1  0.90644839  0.08675788  0.18714839  1
  Se  Se236  1  0.92259617  0.09503079  0.69975323  1
  Se  Se237  1  0.92723138  0.40937611  0.20456311  1
  Se  Se238  1  0.90381661  0.42433866  0.68428137  1
  Se  Se239  1  0.91428298  0.75537620  0.18979110  1
  Se  Se240  1  0.92069124  0.74954269  0.69808556  1
  Se  Se241  1  0.08659235  0.25242354  0.20565218  1
  Se  Se242  1  0.09349432  0.24776859  0.68464176  1
  Se  Se243  1  0.10106071  0.57437774  0.19415602  1
  Se  Se244  1  0.08153047  0.58469517  0.69561886  1
  Se  Se245  1  0.07947791  0.90797931  0.19655312  1
  Se  Se246  1  0.09020305  0.91753230  0.69692381  1
  Se  Se247  1  0.41770643  0.25196255  0.19958272  1
  Se  Se248  1  0.41421120  0.24987274  0.69519520  1
  Se  Se249  1  0.41950953  0.58957975  0.18404412  1
  Se  Se250  1  0.40926076  0.58716080  0.70154581  1
  Se  Se251  1  0.40671734  0.92039165  0.19556439  1
  Se  Se252  1  0.42107720  0.91051505  0.70016738  1
  Se  Se253  1  0.75793726  0.24323652  0.18988658  1
  Se  Se254  1  0.73801430  0.25051712  0.69886006  1
  Se  Se255  1  0.76111877  0.57999076  0.19779202  1
  Se  Se256  1  0.74227778  0.59099370  0.69733867  1
  Se  Se257  1  0.74227622  0.91653930  0.19493830  1
  Se  Se258  1  0.75970814  0.91402602  0.68596034  1
