# generated using pymatgen
data_In86Cu29Se144
_symmetry_space_group_name_H-M   'P 1'
_cell_length_a   17.59155688
_cell_length_b   17.58906664
_cell_length_c   23.45430309
_cell_angle_alpha   89.98761542
_cell_angle_beta   90.01498274
_cell_angle_gamma   89.97396091
_symmetry_Int_Tables_number   1
_chemical_formula_structural   In86Cu29Se144
_chemical_formula_sum   'In86 Cu29 Se144'
_cell_volume   7257.20739468
_cell_formula_units_Z   1
loop_
 _symmetry_equiv_pos_site_id
 _symmetry_equiv_pos_as_xyz
  1  'x, y, z'
loop_
 _atom_site_type_symbol
 _atom_site_label
 _atom_site_symmetry_multiplicity
 _atom_site_fract_x
 _atom_site_fract_y
 _atom_site_fract_z
 _atom_site_occupancy
  In  In0  1  0.00640782  0.15169389  0.12153006  1
  In  In1  1  0.01332488  0.17562364  0.62945265  1
  In  In2  1  0.00011913  0.51223623  0.12004438  1
  In  In3  1  0.00643962  0.49794796  0.62979022  1
  In  In4  1  -0.01239408  0.82558456  0.11737645  1
  In  In5  1  -0.00655348  0.81987345  0.61234877  1
  In  In6  1  0.33067112  0.17512137  0.13982661  1
  In  In7  1  0.33399827  0.17074629  0.62164878  1
  In  In8  1  0.32949273  0.50082831  0.13528549  1
  In  In9  1  0.33369478  0.50178058  0.62258956  1
  In  In10  1  0.34342491  0.82391194  0.14108207  1
  In  In11  1  0.32003794  0.83273917  0.61960028  1
  In  In12  1  0.66192717  0.16113089  0.12440720  1
  In  In13  1  0.65850099  0.17497670  0.63290995  1
  In  In14  1  0.68328868  0.50734341  0.11855365  1
  In  In15  1  0.66225878  0.50310757  0.62864631  1
  In  In16  1  0.65556204  0.82353267  0.11914246  1
  In  In17  1  0.67176521  0.82069256  0.63097643  1
  In  In18  1  0.17534077  -0.00978775  0.38009970  1
  In  In19  1  0.17930324  0.01043874  0.87283488  1
  In  In20  1  0.18267401  0.32423721  0.38911706  1
  In  In21  1  0.15320779  0.31836695  0.85610495  1
  In  In22  1  0.16988346  0.66153817  0.37911705  1
  In  In23  1  0.15839704  0.65838502  0.86385291  1
  In  In24  1  0.50029618  0.01129849  0.37696882  1
  In  In25  1  0.49800055  -0.01740037  0.87562029  1
  In  In26  1  0.48758082  0.33668498  0.38195481  1
  In  In27  1  0.49719590  0.33263114  0.86266605  1
  In  In28  1  0.48825375  0.66243996  0.36623394  1
  In  In29  1  0.50608036  0.67108774  0.86973057  1
  In  In30  1  0.82353811  -0.02258438  0.37488988  1
  In  In31  1  0.81872148  -0.00113989  0.87345482  1
  In  In32  1  0.83337508  0.33608144  0.37953753  1
  In  In33  1  0.84798943  0.34844820  0.86394670  1
  In  In34  1  0.84625807  0.67820192  0.36888402  1
  In  In35  1  0.83518384  0.67015416  0.87881281  1
  In  In36  1  0.00386508  0.17877690  0.37988896  1
  In  In37  1  0.00851935  0.18284996  0.87280617  1
  In  In38  1  0.00802524  0.52510977  0.37794640  1
  In  In39  1  -0.00908568  0.49568563  0.87444800  1
  In  In40  1  0.02080735  0.80713922  0.39761281  1
  In  In41  1  -0.00397302  0.81618974  0.87403950  1
  In  In42  1  0.33468801  0.16560848  0.37581813  1
  In  In43  1  0.32184819  0.17491940  0.87457792  1
  In  In44  1  0.33367779  0.49947933  0.37829510  1
  In  In45  1  0.32692361  0.49631705  0.86548366  1
  In  In46  1  0.32900749  0.82032098  0.36060490  1
  In  In47  1  0.34304853  0.83480225  0.87564808  1
  In  In48  1  0.64189075  0.15096416  0.38132451  1
  In  In49  1  0.66348542  0.16393692  0.86306972  1
  In  In50  1  0.64949406  0.50196400  0.38219420  1
  In  In51  1  0.68065547  0.51548524  0.86404262  1
  In  In52  1  0.68135415  0.83746597  0.37944199  1
  In  In53  1  0.66618219  0.83009827  0.87487348  1
  In  In54  1  0.17028062  0.00979737  0.12494854  1
  In  In55  1  0.17136692  0.00585408  0.61451050  1
  In  In56  1  0.18051993  0.33741215  0.12650717  1
  In  In57  1  0.16644718  0.33527194  0.62882524  1
  In  In58  1  0.16496242  0.66371472  0.13332817  1
  In  In59  1  0.16729521  0.66965924  0.62207350  1
  In  In60  1  0.50253766  -0.01293497  0.13500669  1
  In  In61  1  0.50215822  0.00999061  0.62006092  1
  In  In62  1  0.49379701  0.32619609  0.12797121  1
  In  In63  1  0.49513702  0.33352089  0.62443995  1
  In  In64  1  0.49416572  0.68117302  0.13617126  1
  In  In65  1  0.50968947  0.65657141  0.62686434  1
  In  In66  1  0.84515461  -0.01150479  0.12017612  1
  In  In67  1  0.82840386  -0.01662777  0.62581724  1
  In  In68  1  0.82753817  0.33868361  0.11495832  1
  In  In69  1  0.83457534  0.33641601  0.63581098  1
  In  In70  1  0.82988253  0.66875629  0.12425667  1
  In  In71  1  0.83290730  0.66735652  0.62868346  1
  In  In72  1  0.16467147  0.83032508  0.00337468  1
  In  In73  1  0.00340964  -0.00666625  0.24734210  1
  In  In74  1  0.00142142  -0.00019004  0.74577996  1
  In  In75  1  0.84076269  0.16946273  -0.00755584  1
  In  In76  1  0.83510989  0.50129394  0.50801115  1
  In  In77  1  0.83169892  0.16056252  0.50261784  1
  In  In78  1  0.33761879  0.00163368  0.74288237  1
  In  In79  1  0.65746796  0.34468181  0.25636627  1
  In  In80  1  0.50355372  0.50486711  -0.00468927  1
  In  In81  1  0.16044901  0.49183613  -0.00779136  1
  In  In82  1  0.00913455  0.34550377  0.24660210  1
  In  In83  1  0.50112768  0.16136810  0.00892969  1
  In  In84  1  0.50054449  0.83194060  0.49365575  1
  In  In85  1  0.66110361  -0.00173470  0.25168063  1
  Cu  Cu86  1  0.83382702  0.50613608  0.75048100  1
  Cu  Cu87  1  0.65553401  0.32405587  0.50188663  1
  Cu  Cu88  1  0.49908164  0.50381380  0.25320340  1
  Cu  Cu89  1  0.50338265  0.82805760  0.75070065  1
  Cu  Cu90  1  -0.00284034  0.00354536  0.50524860  1
  Cu  Cu91  1  0.83011347  0.82551127  0.74984699  1
  Cu  Cu92  1  0.16244839  0.82709292  0.25493525  1
  Cu  Cu93  1  0.17078238  0.50100613  0.25699122  1
  Cu  Cu94  1  0.01020282  0.33879700  0.50471870  1
  Cu  Cu95  1  0.00683601  -0.00370315  -0.00281694  1
  Cu  Cu96  1  0.33125235  0.33639471  0.50409345  1
  Cu  Cu97  1  0.17290228  0.16594032  0.25599564  1
  Cu  Cu98  1  0.33015956  0.00248612  0.49685700  1
  Cu  Cu99  1  0.17260531  0.50681771  0.74384561  1
  Cu  Cu100  1  0.33164872  0.32722699  0.00454789  1
  Cu  Cu101  1  0.49682749  0.49760613  0.74575434  1
  Cu  Cu102  1  0.16380532  0.82825451  0.74321095  1
  Cu  Cu103  1  0.66734835  -0.00744535  -0.00037310  1
  Cu  Cu104  1  0.83109561  0.51401580  0.24839785  1
  Cu  Cu105  1  0.49745933  0.16509633  0.74463075  1
  Cu  Cu106  1  0.82406525  0.17181536  0.25149004  1
  Cu  Cu107  1  0.67009518  0.66430459  0.50410619  1
  Cu  Cu108  1  0.83015085  0.16520078  0.75128862  1
  Cu  Cu109  1  0.67372452  0.34085766  -0.01099653  1
  Cu  Cu110  1  0.33344758  -0.00066193  -0.00084368  1
  Cu  Cu111  1  0.83506981  0.82726531  0.24873559  1
  Cu  Cu112  1  0.33120317  0.66903804  0.00394633  1
  Cu  Cu113  1  0.33269665  0.66518371  0.49544494  1
  Cu  Cu114  1  0.66746392  0.67390500  -0.00339725  1
  Se  Se115  1  0.08948508  0.08068449  0.04794405  1
  Se  Se116  1  0.07970786  0.09063526  0.55392793  1
  Se  Se117  1  0.07807846  0.40658014  0.06192651  1
  Se  Se118  1  0.09031441  0.42346690  0.55731375  1
  Se  Se119  1  0.07651995  0.73280500  0.05616678  1
  Se  Se120  1  0.10109598  0.76381395  0.55180309  1
  Se  Se121  1  0.40838882  0.07527903  0.06702419  1
  Se  Se122  1  0.41204992  0.08301725  0.55288836  1
  Se  Se123  1  0.41075437  0.41597156  0.05790230  1
  Se  Se124  1  0.41848259  0.41947020  0.55376750  1
  Se  Se125  1  0.41228521  0.75057582  0.05913819  1
  Se  Se126  1  0.41401281  0.74331670  0.55803046  1
  Se  Se127  1  0.74911492  0.07765346  0.05600345  1
  Se  Se128  1  0.74166397  0.07923734  0.56584687  1
  Se  Se129  1  0.75415814  0.42347734  0.04366883  1
  Se  Se130  1  0.74194372  0.40339915  0.55856086  1
  Se  Se131  1  0.75109125  0.75477819  0.05297476  1
  Se  Se132  1  0.75299523  0.74743733  0.55578923  1
  Se  Se133  1  0.25242294  0.24365111  0.05957941  1
  Se  Se134  1  0.24656450  0.25264986  0.55635545  1
  Se  Se135  1  0.25097353  0.58287949  0.05770462  1
  Se  Se136  1  0.25106924  0.58518359  0.55342436  1
  Se  Se137  1  0.25778559  0.91687315  0.06223114  1
  Se  Se138  1  0.24709280  0.91616684  0.54686926  1
  Se  Se139  1  0.59666177  0.26446672  0.05458534  1
  Se  Se140  1  0.57440449  0.24236045  0.55686119  1
  Se  Se141  1  0.58599758  0.59528262  0.05924022  1
  Se  Se142  1  0.58516486  0.57790409  0.55132998  1
  Se  Se143  1  0.57924903  0.91895597  0.05541637  1
  Se  Se144  1  0.58719559  0.91169867  0.56234854  1
  Se  Se145  1  0.92782380  0.25224815  0.05940685  1
  Se  Se146  1  0.91876615  0.26007291  0.55795395  1
  Se  Se147  1  0.90221331  0.57626933  0.05630923  1
  Se  Se148  1  0.92894967  0.59248764  0.55947470  1
  Se  Se149  1  0.91855942  0.91296931  0.04371082  1
  Se  Se150  1  0.91328059  0.91591595  0.55205149  1
  Se  Se151  1  0.08732212  0.24809266  0.45314754  1
  Se  Se152  1  0.09495217  0.25221107  0.94353555  1
  Se  Se153  1  0.08474285  0.59262340  0.45434193  1
  Se  Se154  1  0.07335975  0.59224644  0.94211402  1
  Se  Se155  1  0.08055914  0.92292255  0.44889289  1
  Se  Se156  1  0.08555048  0.91987175  0.93281446  1
  Se  Se157  1  0.41147208  0.24863093  0.45018998  1
  Se  Se158  1  0.41918445  0.25459461  0.94433625  1
  Se  Se159  1  0.42073939  0.58376716  0.44495394  1
  Se  Se160  1  0.40528994  0.58913598  0.93876560  1
  Se  Se161  1  0.40481591  0.91779181  0.43594849  1
  Se  Se162  1  0.41740841  0.91247037  0.95174652  1
  Se  Se163  1  0.73928687  0.25096869  0.43991973  1
  Se  Se164  1  0.74739450  0.25340072  0.93117322  1
  Se  Se165  1  0.75046750  0.58613108  0.43996061  1
  Se  Se166  1  0.74856438  0.58521833  0.94622219  1
  Se  Se167  1  0.74155641  0.92527232  0.45555110  1
  Se  Se168  1  0.75076132  0.91171724  0.94577480  1
  Se  Se169  1  0.24540299  0.08761848  0.44494252  1
  Se  Se170  1  0.25397374  0.08720077  0.94867386  1
  Se  Se171  1  0.24974364  0.42471777  0.45213181  1
  Se  Se172  1  0.25771089  0.40466876  0.93873323  1
  Se  Se173  1  0.25479188  0.75338936  0.44195972  1
  Se  Se174  1  0.25088443  0.74225598  0.93802236  1
  Se  Se175  1  0.57982702  0.07096321  0.45876104  1
  Se  Se176  1  0.58900108  0.07741277  0.94159687  1
  Se  Se177  1  0.57699353  0.41367838  0.45064194  1
  Se  Se178  1  0.58795444  0.41567462  0.93096755  1
  Se  Se179  1  0.59110666  0.73802538  0.43751229  1
  Se  Se180  1  0.57755937  0.75248549  0.94520305  1
  Se  Se181  1  0.91945911  0.07543387  0.43561150  1
  Se  Se182  1  0.92782966  0.07499660  0.93259187  1
  Se  Se183  1  0.92812005  0.41492114  0.44277142  1
  Se  Se184  1  0.92481369  0.40534753  0.94618129  1
  Se  Se185  1  0.90299366  0.75713485  0.45050509  1
  Se  Se186  1  0.91327989  0.75399165  0.94973438  1
  Se  Se187  1  0.25191716  0.25395117  0.30757891  1
  Se  Se188  1  0.26245779  0.25858602  0.79758740  1
  Se  Se189  1  0.25526380  0.58551634  0.30760764  1
  Se  Se190  1  0.25562323  0.59024652  0.79864785  1
  Se  Se191  1  0.24555010  0.91615088  0.30114308  1
  Se  Se192  1  0.24472081  0.90899791  0.80352183  1
  Se  Se193  1  0.57400684  0.24657244  0.31127486  1
  Se  Se194  1  0.58224213  0.24967199  0.79708355  1
  Se  Se195  1  0.58646519  0.58401135  0.30428908  1
  Se  Se196  1  0.57896157  0.58149546  0.80093609  1
  Se  Se197  1  0.57797518  0.90872263  0.31495782  1
  Se  Se198  1  0.58451734  0.91415264  0.80339637  1
  Se  Se199  1  0.91161657  0.25136890  0.30443542  1
  Se  Se200  1  0.91768148  0.24775121  0.80068809  1
  Se  Se201  1  0.92234674  0.58799947  0.30125993  1
  Se  Se202  1  0.91598495  0.58691524  0.80732238  1
  Se  Se203  1  0.91893135  0.90302259  0.30939750  1
  Se  Se204  1  0.91077607  0.91156521  0.80728860  1
  Se  Se205  1  0.08485024  0.08855780  0.31091773  1
  Se  Se206  1  0.09204313  0.09100643  0.80351801  1
  Se  Se207  1  0.09244787  0.42121272  0.31966749  1
  Se  Se208  1  0.08930829  0.43122483  0.80497543  1
  Se  Se209  1  0.08181985  0.74389209  0.30965165  1
  Se  Se210  1  0.07922038  0.74889219  0.79832309  1
  Se  Se211  1  0.41377449  0.08121520  0.30663038  1
  Se  Se212  1  0.42238424  0.08740727  0.81262159  1
  Se  Se213  1  0.41762675  0.41926007  0.30645067  1
  Se  Se214  1  0.41172801  0.41507822  0.79794030  1
  Se  Se215  1  0.42584575  0.75487144  0.29471901  1
  Se  Se216  1  0.41473573  0.74988917  0.80348531  1
  Se  Se217  1  0.75245462  0.08968956  0.31377048  1
  Se  Se218  1  0.74608197  0.07710947  0.79764982  1
  Se  Se219  1  0.75833331  0.43106854  0.31214307  1
  Se  Se220  1  0.74921389  0.41678738  0.79935229  1
  Se  Se221  1  0.74857192  0.75054899  0.30476389  1
  Se  Se222  1  0.74779069  0.74499149  0.80672897  1
  Se  Se223  1  0.25057787  0.07934813  0.20107479  1
  Se  Se224  1  0.24023340  0.09143442  0.69255183  1
  Se  Se225  1  0.25138555  0.41398025  0.20391768  1
  Se  Se226  1  0.25402583  0.41916461  0.69407221  1
  Se  Se227  1  0.24796764  0.74381565  0.20152491  1
  Se  Se228  1  0.25432243  0.74798923  0.69456120  1
  Se  Se229  1  0.57102921  0.09726342  0.19766564  1
  Se  Se230  1  0.58231262  0.07821422  0.69756931  1
  Se  Se231  1  0.57742670  0.43109985  0.18439583  1
  Se  Se232  1  0.58205144  0.41389887  0.69363661  1
  Se  Se233  1  0.58604524  0.75745242  0.20071337  1
  Se  Se234  1  0.58529403  0.74148717  0.69867320  1
  Se  Se235  1  0.90535963  0.08944547  0.19406542  1
  Se  Se236  1  0.90878473  0.08950975  0.68604344  1
  Se  Se237  1  0.90411419  0.42323413  0.19087008  1
  Se  Se238  1  0.91902095  0.42139049  0.69945697  1
  Se  Se239  1  0.91944538  0.74612088  0.19449538  1
  Se  Se240  1  0.91953713  0.75182634  0.69439629  1
  Se  Se241  1  0.08975735  0.23980744  0.19215002  1
  Se  Se242  1  0.07600376  0.26531038  0.70052212  1
  Se  Se243  1  0.08365711  0.57487488  0.19855142  1
  Se  Se244  1  0.08512042  0.58974921  0.69454383  1
  Se  Se245  1  0.09056140  0.90284911  0.18421227  1
  Se  Se246  1  0.08949985  0.91319742  0.68303526  1
  Se  Se247  1  0.41709548  0.25794928  0.20371358  1
  Se  Se248  1  0.41317715  0.24932072  0.69471877  1
  Se  Se249  1  0.41519557  0.58582844  0.19789483  1
  Se  Se250  1  0.41600142  0.58460823  0.69344499  1
  Se  Se251  1  0.40869375  0.92522716  0.20406661  1
  Se  Se252  1  0.42553392  0.90625728  0.68587283  1
  Se  Se253  1  0.74762017  0.25201738  0.19119981  1
  Se  Se254  1  0.74813932  0.25251583  0.69978601  1
  Se  Se255  1  0.74294442  0.59201227  0.19663213  1
  Se  Se256  1  0.74820003  0.58474930  0.69521902  1
  Se  Se257  1  0.75668000  0.91213946  0.19050552  1
  Se  Se258  1  0.74644852  0.91201975  0.70035994  1
