# generated using pymatgen
data_In86Cu29Se144
_symmetry_space_group_name_H-M   'P 1'
_cell_length_a   17.62443623
_cell_length_b   17.62146470
_cell_length_c   23.48155732
_cell_angle_alpha   89.97987240
_cell_angle_beta   90.00512604
_cell_angle_gamma   89.99768540
_symmetry_Int_Tables_number   1
_chemical_formula_structural   In86Cu29Se144
_chemical_formula_sum   'In86 Cu29 Se144'
_cell_volume   7292.62875186
_cell_formula_units_Z   1
loop_
 _symmetry_equiv_pos_site_id
 _symmetry_equiv_pos_as_xyz
  1  'x, y, z'
loop_
 _atom_site_type_symbol
 _atom_site_label
 _atom_site_symmetry_multiplicity
 _atom_site_fract_x
 _atom_site_fract_y
 _atom_site_fract_z
 _atom_site_occupancy
  In  In0  1  -0.01568097  0.18411876  0.13534768  1
  In  In1  1  0.01523758  0.16288389  0.64314399  1
  In  In2  1  -0.01589809  0.50450700  0.13072198  1
  In  In3  1  -0.00903085  0.48837748  0.61829707  1
  In  In4  1  -0.00756116  0.83303558  0.12951126  1
  In  In5  1  0.01301464  0.84112513  0.62610446  1
  In  In6  1  0.33557561  0.16827899  0.14127946  1
  In  In7  1  0.33391574  0.16398928  0.62165073  1
  In  In8  1  0.34432351  0.48924950  0.13830243  1
  In  In9  1  0.32606280  0.50571040  0.61679464  1
  In  In10  1  0.33304592  0.83065447  0.13392864  1
  In  In11  1  0.34214134  0.83215705  0.61652016  1
  In  In12  1  0.67434063  0.15039781  0.13717367  1
  In  In13  1  0.66577050  0.17995204  0.62043009  1
  In  In14  1  0.71719923  0.46496642  0.17557376  1
  In  In15  1  0.66999143  0.47487808  0.61676210  1
  In  In16  1  0.68472386  0.81728785  0.13980548  1
  In  In17  1  0.66260240  0.84316525  0.62012247  1
  In  In18  1  0.17632089  0.01307370  0.37491255  1
  In  In19  1  0.17170281  0.01145321  0.86319455  1
  In  In20  1  0.16428078  0.32623230  0.38191779  1
  In  In21  1  0.15289692  0.32047774  0.85328164  1
  In  In22  1  0.14942348  0.65156899  0.36492546  1
  In  In23  1  0.16980274  0.66227098  0.87542648  1
  In  In24  1  0.48980246  0.00330652  0.38172679  1
  In  In25  1  0.50164390  0.01029052  0.87111399  1
  In  In26  1  0.48382561  0.30396289  0.35182412  1
  In  In27  1  0.49760734  0.32778296  0.86004502  1
  In  In28  1  0.50498843  0.68035901  0.37150072  1
  In  In29  1  0.49982805  0.65661747  0.87756998  1
  In  In30  1  0.83394653  0.00534505  0.36359183  1
  In  In31  1  0.84371358  -0.00921199  0.88664455  1
  In  In32  1  0.83637343  0.34283180  0.36154019  1
  In  In33  1  0.83343389  0.33822421  0.88075072  1
  In  In34  1  0.82559543  0.64572829  0.35433187  1
  In  In35  1  0.84009559  0.66271982  0.89866154  1
  In  In36  1  0.00569979  0.17571384  0.37181071  1
  In  In37  1  -0.00401896  0.16331839  0.87412473  1
  In  In38  1  -0.00120915  0.49359938  0.37190688  1
  In  In39  1  -0.00426023  0.49474554  0.87903010  1
  In  In40  1  -0.00276927  0.82870027  0.36680504  1
  In  In41  1  -0.00745427  0.83884024  0.88056221  1
  In  In42  1  0.33051395  0.15713950  0.38602608  1
  In  In43  1  0.32759612  0.16982959  0.85517278  1
  In  In44  1  0.31913332  0.48543602  0.37247057  1
  In  In45  1  0.33216821  0.47923573  0.87400559  1
  In  In46  1  0.34149539  0.84905812  0.37473909  1
  In  In47  1  0.32526847  0.83697228  0.87514241  1
  In  In48  1  0.64129330  0.15514234  0.34852171  1
  In  In49  1  0.66743072  0.17952457  0.87897283  1
  In  In50  1  0.66623932  0.50189575  0.36534733  1
  In  In51  1  0.67179105  0.49595748  0.87633424  1
  In  In52  1  0.65299313  0.83068691  0.37138524  1
  In  In53  1  0.67322706  0.83899577  0.88237491  1
  In  In54  1  0.16846012  -0.00025748  0.13254091  1
  In  In55  1  0.16648169  0.01416638  0.62684410  1
  In  In56  1  0.16520879  0.33300087  0.13221250  1
  In  In57  1  0.16285339  0.33534562  0.62180875  1
  In  In58  1  0.16325529  0.66527003  0.13710778  1
  In  In59  1  0.17181744  0.66732733  0.61447699  1
  In  In60  1  0.50073428  0.00671361  0.14120573  1
  In  In61  1  0.48059278  -0.01049185  0.60451906  1
  In  In62  1  0.50545329  0.32387453  0.14248124  1
  In  In63  1  0.51328522  0.32218641  0.62392781  1
  In  In64  1  0.50818772  0.65669102  0.13892753  1
  In  In65  1  0.49445156  0.66600323  0.61256280  1
  In  In66  1  0.83882438  -0.00011399  0.12766682  1
  In  In67  1  0.83639594  0.01367792  0.62805195  1
  In  In68  1  0.84260203  0.32739071  0.11633450  1
  In  In69  1  0.82761510  0.33345046  0.62737234  1
  In  In70  1  0.83319475  0.65793505  0.12540446  1
  In  In71  1  0.84560322  0.65942972  0.62585235  1
  In  In72  1  0.50633022  0.17088763  -0.00096985  1
  In  In73  1  0.15650228  0.49979460  0.00558378  1
  In  In74  1  0.66658394  0.00734390  0.74998418  1
  In  In75  1  0.66818699  0.66517008  0.75896665  1
  In  In76  1  0.15743939  0.83761630  0.01335769  1
  In  In77  1  0.50511793  0.49436111  0.48936780  1
  In  In78  1  0.33925189  0.66662750  0.73608889  1
  In  In79  1  0.50838315  0.83451802  0.01799888  1
  In  In80  1  0.50200597  0.49699806  0.00633495  1
  In  In81  1  0.82909223  0.82667397  0.48884187  1
  In  In82  1  0.16536162  0.83196973  0.49292765  1
  In  In83  1  0.16293674  0.16861203  -0.00830780  1
  In  In84  1  0.83041305  0.18045014  0.49238381  1
  In  In85  1  0.00194468  0.66710684  0.75950811  1
  Cu  Cu86  1  0.83301103  0.83601860  0.24864458  1
  Cu  Cu87  1  0.83716934  0.16999487  0.75463424  1
  Cu  Cu88  1  0.16686210  0.50567163  0.74221439  1
  Cu  Cu89  1  0.16875287  0.84942427  0.74845546  1
  Cu  Cu90  1  0.49681824  0.51069573  0.25546179  1
  Cu  Cu91  1  0.32612248  0.66160537  0.00801205  1
  Cu  Cu92  1  -0.00082200  0.33020589  0.49948442  1
  Cu  Cu93  1  0.49763860  0.15988204  0.74008402  1
  Cu  Cu94  1  0.00114768  0.00807875  0.00386121  1
  Cu  Cu95  1  0.67791267  0.66181599  0.48932561  1
  Cu  Cu96  1  0.33270354  0.32996892  0.49820047  1
  Cu  Cu97  1  -0.00558899  0.65039521  0.49234623  1
  Cu  Cu98  1  0.67866993  -0.00381602  0.00969126  1
  Cu  Cu99  1  0.66760624  0.66805943  0.00899707  1
  Cu  Cu100  1  0.65841193  0.00552548  0.49416112  1
  Cu  Cu101  1  -0.00343142  0.00046491  0.50486209  1
  Cu  Cu102  1  0.82385451  0.49428425  0.75139217  1
  Cu  Cu103  1  0.49682395  0.83061654  0.74339243  1
  Cu  Cu104  1  0.83653806  0.16658120  0.24802323  1
  Cu  Cu105  1  0.67312493  0.33177874  0.48727910  1
  Cu  Cu106  1  0.16446961  0.16218044  0.25664404  1
  Cu  Cu107  1  0.67128607  0.33835246  0.00766259  1
  Cu  Cu108  1  0.34595981  0.00225404  -0.00214174  1
  Cu  Cu109  1  0.83983736  0.83865180  0.75835634  1
  Cu  Cu110  1  0.32976099  0.66735269  0.49249723  1
  Cu  Cu111  1  0.32884040  0.32718321  -0.00196976  1
  Cu  Cu112  1  0.49118958  0.84323207  0.25419231  1
  Cu  Cu113  1  0.16836333  0.48756807  0.25233140  1
  Cu  Cu114  1  0.16790915  0.83169411  0.25412514  1
  Se  Se115  1  0.08351516  0.08437842  0.06316773  1
  Se  Se116  1  0.07451276  0.08636360  0.55861820  1
  Se  Se117  1  0.07189769  0.40702632  0.06354065  1
  Se  Se118  1  0.08211909  0.41857182  0.54978332  1
  Se  Se119  1  0.07377371  0.73545684  0.06230539  1
  Se  Se120  1  0.06758119  0.74044000  0.55088355  1
  Se  Se121  1  0.41649334  0.08434167  0.06127216  1
  Se  Se122  1  0.43254358  0.10532203  0.55127696  1
  Se  Se123  1  0.41263173  0.39961566  0.06025568  1
  Se  Se124  1  0.41567214  0.41284360  0.55605876  1
  Se  Se125  1  0.41213625  0.73784050  0.06327346  1
  Se  Se126  1  0.41643657  0.74926459  0.54316468  1
  Se  Se127  1  0.75702305  0.08657179  0.05890861  1
  Se  Se128  1  0.74504183  0.07977711  0.55328432  1
  Se  Se129  1  0.74150173  0.42031397  0.07027932  1
  Se  Se130  1  0.75799624  0.40817397  0.54459647  1
  Se  Se131  1  0.75418907  0.75178182  0.05690166  1
  Se  Se132  1  0.74598506  0.74120329  0.56069669  1
  Se  Se133  1  0.25453514  0.24708341  0.06091923  1
  Se  Se134  1  0.24926087  0.25195049  0.55633894  1
  Se  Se135  1  0.25516946  0.57757996  0.06849128  1
  Se  Se136  1  0.24613787  0.58336574  0.54367777  1
  Se  Se137  1  0.26386490  0.92622818  0.05822124  1
  Se  Se138  1  0.24824801  0.91971547  0.55781768  1
  Se  Se139  1  0.59229729  0.25411462  0.06539667  1
  Se  Se140  1  0.58838798  0.25250546  0.54376095  1
  Se  Se141  1  0.59084801  0.58359956  0.06536511  1
  Se  Se142  1  0.59619888  0.58345029  0.55305645  1
  Se  Se143  1  0.59639708  0.92767585  0.07383258  1
  Se  Se144  1  0.58270816  0.91430934  0.54625562  1
  Se  Se145  1  0.92106288  0.24171730  0.04764497  1
  Se  Se146  1  0.92281196  0.24919575  0.56283015  1
  Se  Se147  1  0.91140381  0.57840507  0.05300843  1
  Se  Se148  1  0.90933460  0.57555322  0.55065759  1
  Se  Se149  1  0.92181701  0.91967174  0.05619230  1
  Se  Se150  1  0.91368470  0.91638577  0.55822871  1
  Se  Se151  1  0.08265065  0.24129921  0.45202608  1
  Se  Se152  1  0.07450442  0.26582801  0.94008094  1
  Se  Se153  1  0.08491759  0.57167901  0.44431918  1
  Se  Se154  1  0.07420319  0.59647103  0.94384823  1
  Se  Se155  1  0.06968585  0.92209640  0.43912585  1
  Se  Se156  1  0.08727379  0.93331993  0.94224165  1
  Se  Se157  1  0.41847502  0.25272922  0.44322585  1
  Se  Se158  1  0.41034132  0.25105621  0.93645066  1
  Se  Se159  1  0.41160248  0.58573823  0.43354747  1
  Se  Se160  1  0.40178546  0.58291146  0.94475167  1
  Se  Se161  1  0.41519199  0.91785496  0.45317641  1
  Se  Se162  1  0.42353484  0.91605419  0.94346333  1
  Se  Se163  1  0.74225415  0.25056856  0.42055274  1
  Se  Se164  1  0.74943526  0.25404326  0.95039523  1
  Se  Se165  1  0.75448714  0.57622067  0.43699082  1
  Se  Se166  1  0.73985966  0.58049107  0.95044403  1
  Se  Se167  1  0.74410776  0.92791788  0.43684987  1
  Se  Se168  1  0.75626261  0.91081121  0.95423629  1
  Se  Se169  1  0.24371869  0.08124219  0.45592586  1
  Se  Se170  1  0.26597057  0.08147186  0.93856563  1
  Se  Se171  1  0.24490723  0.41391046  0.45090892  1
  Se  Se172  1  0.24305152  0.40627816  0.94412847  1
  Se  Se173  1  0.24773922  0.74170450  0.42908490  1
  Se  Se174  1  0.25235540  0.74672141  0.94933348  1
  Se  Se175  1  0.58375436  0.09346047  0.43952423  1
  Se  Se176  1  0.59771692  0.07089419  0.94585580  1
  Se  Se177  1  0.58499223  0.40214621  0.42613933  1
  Se  Se178  1  0.58309771  0.40265541  0.94219228  1
  Se  Se179  1  0.58739663  0.74804317  0.44905040  1
  Se  Se180  1  0.58668406  0.74273228  0.94572468  1
  Se  Se181  1  0.91825146  0.07830749  0.44176255  1
  Se  Se182  1  0.91663421  0.08797936  0.94907751  1
  Se  Se183  1  0.91705905  0.40825501  0.44113353  1
  Se  Se184  1  0.90053919  0.43570293  0.94758002  1
  Se  Se185  1  0.91752733  0.73316942  0.43367350  1
  Se  Se186  1  0.92267639  0.75753034  0.95299146  1
  Se  Se187  1  0.24701025  0.24141631  0.31513789  1
  Se  Se188  1  0.26974734  0.27778071  0.79735120  1
  Se  Se189  1  0.24754608  0.57699483  0.30317816  1
  Se  Se190  1  0.25076639  0.58099634  0.80319594  1
  Se  Se191  1  0.24709309  0.91902514  0.30691820  1
  Se  Se192  1  0.25961110  0.92302947  0.80204817  1
  Se  Se193  1  0.60987395  0.28190656  0.29857641  1
  Se  Se194  1  0.58210039  0.23686916  0.79990003  1
  Se  Se195  1  0.58415263  0.59380659  0.30358359  1
  Se  Se196  1  0.57218552  0.56959907  0.80617551  1
  Se  Se197  1  0.57581388  0.92371666  0.30907870  1
  Se  Se198  1  0.57926203  0.90546521  0.80700025  1
  Se  Se199  1  0.91904828  0.24944137  0.30170785  1
  Se  Se200  1  0.91448240  0.25455356  0.81091403  1
  Se  Se201  1  0.93600431  0.58680260  0.29928104  1
  Se  Se202  1  0.89985094  0.58202988  0.81012897  1
  Se  Se203  1  0.91865271  0.91812079  0.30069461  1
  Se  Se204  1  0.92354253  0.92460471  0.80697241  1
  Se  Se205  1  0.07849981  0.07875705  0.30745436  1
  Se  Se206  1  0.09787703  0.10913703  0.80533598  1
  Se  Se207  1  0.08533699  0.40603940  0.30793571  1
  Se  Se208  1  0.08285048  0.43235523  0.80330101  1
  Se  Se209  1  0.07869915  0.74615761  0.29830226  1
  Se  Se210  1  0.09724064  0.76392006  0.81083051  1
  Se  Se211  1  0.41837503  0.09130329  0.31127093  1
  Se  Se212  1  0.41783454  0.07913259  0.79840798  1
  Se  Se213  1  0.41772778  0.42098187  0.30512400  1
  Se  Se214  1  0.41900499  0.42081707  0.79999144  1
  Se  Se215  1  0.41156758  0.75494615  0.30626851  1
  Se  Se216  1  0.42228102  0.75329286  0.80918853  1
  Se  Se217  1  0.74763852  0.08167657  0.29441409  1
  Se  Se218  1  0.75784314  0.08760829  0.81549371  1
  Se  Se219  1  0.75730194  0.43151824  0.29421015  1
  Se  Se220  1  0.74475450  0.40993515  0.80629119  1
  Se  Se221  1  0.75168186  0.75848905  0.30864794  1
  Se  Se222  1  0.76387773  0.75425713  0.81590285  1
  Se  Se223  1  0.24945768  0.08055571  0.20226873  1
  Se  Se224  1  0.25460432  0.08609770  0.69489770  1
  Se  Se225  1  0.25560578  0.40566144  0.20088457  1
  Se  Se226  1  0.24788680  0.42467346  0.68713794  1
  Se  Se227  1  0.25080619  0.74748159  0.20112030  1
  Se  Se228  1  0.23981013  0.76183026  0.68793931  1
  Se  Se229  1  0.56357519  0.10906878  0.20244609  1
  Se  Se230  1  0.57878862  0.08100763  0.67982543  1
  Se  Se231  1  0.56763314  0.44598600  0.18145256  1
  Se  Se232  1  0.58820050  0.41194832  0.69190270  1
  Se  Se233  1  0.57409405  0.76113753  0.19908277  1
  Se  Se234  1  0.58077412  0.75041697  0.68844807  1
  Se  Se235  1  0.92244829  0.07982271  0.19831474  1
  Se  Se236  1  0.91745992  0.08243625  0.70233129  1
  Se  Se237  1  0.91233364  0.40841383  0.19331690  1
  Se  Se238  1  0.91076776  0.41860440  0.69519440  1
  Se  Se239  1  0.91139995  0.74709567  0.19547168  1
  Se  Se240  1  0.91532942  0.75993371  0.69429359  1
  Se  Se241  1  0.08633836  0.24728713  0.20024967  1
  Se  Se242  1  0.07037644  0.27644502  0.69625826  1
  Se  Se243  1  0.08605889  0.56942638  0.19681466  1
  Se  Se244  1  0.08452019  0.58690295  0.68590960  1
  Se  Se245  1  0.08573983  0.91032844  0.19452221  1
  Se  Se246  1  0.08251532  0.92816143  0.69585862  1
  Se  Se247  1  0.40863310  0.25866462  0.20677502  1
  Se  Se248  1  0.41938788  0.24975184  0.68935672  1
  Se  Se249  1  0.40723712  0.59152770  0.20265429  1
  Se  Se250  1  0.43156868  0.57163335  0.68549615  1
  Se  Se251  1  0.40704298  0.92345300  0.19956021  1
  Se  Se252  1  0.41788843  0.91461686  0.68869801  1
  Se  Se253  1  0.75760321  0.24864067  0.19013037  1
  Se  Se254  1  0.75110930  0.24461162  0.69618117  1
  Se  Se255  1  0.72914327  0.60805487  0.19406120  1
  Se  Se256  1  0.74996622  0.57910883  0.68996896  1
  Se  Se257  1  0.74979468  0.92371500  0.19823765  1
  Se  Se258  1  0.75806360  0.90991479  0.69363507  1
