# generated using pymatgen
data_In86Cu29Se144
_symmetry_space_group_name_H-M   'P 1'
_cell_length_a   17.72716470
_cell_length_b   17.73286885
_cell_length_c   23.56952458
_cell_angle_alpha   90.03624301
_cell_angle_beta   89.99091607
_cell_angle_gamma   90.01591816
_symmetry_Int_Tables_number   1
_chemical_formula_structural   In86Cu29Se144
_chemical_formula_sum   'In86 Cu29 Se144'
_cell_volume   7409.16037336
_cell_formula_units_Z   1
loop_
 _symmetry_equiv_pos_site_id
 _symmetry_equiv_pos_as_xyz
  1  'x, y, z'
loop_
 _atom_site_type_symbol
 _atom_site_label
 _atom_site_symmetry_multiplicity
 _atom_site_fract_x
 _atom_site_fract_y
 _atom_site_fract_z
 _atom_site_occupancy
  In  In0  1  0.00068773  0.15617934  0.12517590  1
  In  In1  1  0.01179155  0.15106123  0.63851720  1
  In  In2  1  0.01783313  0.50325531  0.12039012  1
  In  In3  1  -0.00077966  0.49483302  0.63619106  1
  In  In4  1  0.00128606  0.83505545  0.12216527  1
  In  In5  1  -0.00790193  0.84007415  0.63529963  1
  In  In6  1  0.31589682  0.16689194  0.11746255  1
  In  In7  1  0.33222311  0.16697801  0.63368217  1
  In  In8  1  0.32084831  0.50687260  0.12140987  1
  In  In9  1  0.31672854  0.50229002  0.64833400  1
  In  In10  1  0.33852528  0.84750213  0.11149209  1
  In  In11  1  0.32640985  0.84116315  0.64051503  1
  In  In12  1  0.66751939  0.16508175  0.13671923  1
  In  In13  1  0.66397709  0.18507500  0.61642257  1
  In  In14  1  0.66910247  0.49277785  0.13277757  1
  In  In15  1  0.67965281  0.48565678  0.62235646  1
  In  In16  1  0.67246860  0.84557143  0.12031727  1
  In  In17  1  0.67060945  0.82671783  0.61671832  1
  In  In18  1  0.17337273  0.00382005  0.36497886  1
  In  In19  1  0.15941451  0.00513646  0.87537022  1
  In  In20  1  0.16862423  0.33318902  0.38806968  1
  In  In21  1  0.15987344  0.34787405  0.87394788  1
  In  In22  1  0.15964244  0.66426595  0.37686292  1
  In  In23  1  0.17138178  0.66690248  0.87871069  1
  In  In24  1  0.49997237  0.00262578  0.37101816  1
  In  In25  1  0.48101719  0.00867175  0.87094664  1
  In  In26  1  0.49999022  0.31699397  0.38280973  1
  In  In27  1  0.45940938  0.28209942  0.82043592  1
  In  In28  1  0.49074622  0.65435688  0.37847930  1
  In  In29  1  0.49783763  0.67663823  0.87951982  1
  In  In30  1  0.83390912  -0.00545324  0.37095376  1
  In  In31  1  0.83772859  -0.00786583  0.87921427  1
  In  In32  1  0.83554142  0.34584562  0.38199177  1
  In  In33  1  0.87608576  0.37841048  0.82237876  1
  In  In34  1  0.84976116  0.65557980  0.38361235  1
  In  In35  1  0.84899714  0.67309750  0.86628075  1
  In  In36  1  0.01268978  0.16566739  0.37830954  1
  In  In37  1  0.03499230  0.19457318  0.82471527  1
  In  In38  1  0.00349619  0.50124696  0.38339151  1
  In  In39  1  0.03252415  0.54647951  0.82670432  1
  In  In40  1  0.00141725  0.82540601  0.36700060  1
  In  In41  1  0.00338445  0.83908263  0.88085191  1
  In  In42  1  0.33865529  0.16276530  0.38410129  1
  In  In43  1  0.29011100  0.14344436  0.82202340  1
  In  In44  1  0.33486609  0.48678476  0.38835889  1
  In  In45  1  0.31514539  0.48431796  0.85778782  1
  In  In46  1  0.31829115  0.83479338  0.37343790  1
  In  In47  1  0.32889296  0.83438648  0.88018696  1
  In  In48  1  0.66289195  0.15991182  0.37257909  1
  In  In49  1  0.66586673  0.18094999  0.87129637  1
  In  In50  1  0.67931551  0.50690074  0.37287907  1
  In  In51  1  0.67224374  0.48606614  0.87325045  1
  In  In52  1  0.67128355  0.84409156  0.36901389  1
  In  In53  1  0.66420819  0.83587696  0.88875176  1
  In  In54  1  0.16739240  0.00191607  0.12100452  1
  In  In55  1  0.16130962  0.01503786  0.64505064  1
  In  In56  1  0.16610396  0.33547818  0.11363566  1
  In  In57  1  0.16348662  0.32576028  0.64154793  1
  In  In58  1  0.15227118  0.66268692  0.11595934  1
  In  In59  1  0.16316660  0.66091162  0.64232942  1
  In  In60  1  0.50146546  0.00032499  0.12894624  1
  In  In61  1  0.48429669  0.00277390  0.62508431  1
  In  In62  1  0.50216901  0.33821392  0.12491124  1
  In  In63  1  0.50544569  0.32577335  0.63307464  1
  In  In64  1  0.48665217  0.66791558  0.12053559  1
  In  In65  1  0.49481373  0.65714771  0.62775539  1
  In  In66  1  0.83966027  -0.00519195  0.13362668  1
  In  In67  1  0.84922003  0.00039642  0.61473535  1
  In  In68  1  0.83497833  0.32281385  0.12890725  1
  In  In69  1  0.83928609  0.33764208  0.63333777  1
  In  In70  1  0.84273855  0.68184812  0.12143730  1
  In  In71  1  0.84463474  0.67220174  0.61958419  1
  In  In72  1  0.16108442  0.83790076  0.50241620  1
  In  In73  1  0.50081452  0.83292398  0.49177757  1
  In  In74  1  0.67403477  0.67216232  0.24071260  1
  In  In75  1  0.49724717  0.50205683  -0.00518102  1
  In  In76  1  0.83801870  0.49876854  -0.01534146  1
  In  In77  1  0.00152062  0.33370757  0.26065589  1
  In  In78  1  0.32360107  0.66772810  0.24614139  1
  In  In79  1  0.67091243  0.66721703  0.73790138  1
  In  In80  1  0.83567551  0.16361457  -0.00753650  1
  In  In81  1  0.33291695  0.32781533  0.24499817  1
  In  In82  1  0.50048590  0.48464732  0.51397119  1
  In  In83  1  0.83803236  0.17000251  0.49988845  1
  In  In84  1  0.65999529  -0.00164977  0.73909253  1
  In  In85  1  0.49418062  0.17268651  -0.01230230  1
  Cu  Cu86  1  0.66671643  0.66724307  0.00221767  1
  Cu  Cu87  1  0.82640814  0.16461230  0.25312504  1
  Cu  Cu88  1  0.32250780  0.00866889  0.50355182  1
  Cu  Cu89  1  0.32732762  0.66603200  0.51903852  1
  Cu  Cu90  1  0.00382829  0.32509391  -0.01526986  1
  Cu  Cu91  1  0.66607577  0.00113119  0.49080251  1
  Cu  Cu92  1  0.16695091  0.16579777  0.24849591  1
  Cu  Cu93  1  0.16628143  0.83617971  0.24284044  1
  Cu  Cu94  1  0.49679069  0.16091180  0.25552554  1
  Cu  Cu95  1  0.50104635  0.50894092  0.75312623  1
  Cu  Cu96  1  0.32007386  0.33005244  0.51429937  1
  Cu  Cu97  1  0.49421494  0.83617672  0.75731185  1
  Cu  Cu98  1  0.66516712  0.00428926  0.00380218  1
  Cu  Cu99  1  0.00839361  0.66199372  0.50461771  1
  Cu  Cu100  1  0.32614999  0.33575633  -0.01119628  1
  Cu  Cu101  1  0.50422706  0.49050678  0.25167009  1
  Cu  Cu102  1  0.32553068  0.66849436  0.00066256  1
  Cu  Cu103  1  -0.00032488  0.66726710  -0.00989799  1
  Cu  Cu104  1  0.00409345  -0.00087046  0.00454273  1
  Cu  Cu105  1  0.67545030  0.66533429  0.49735871  1
  Cu  Cu106  1  0.84658494  0.49923004  0.25689349  1
  Cu  Cu107  1  0.49078347  0.83632737  0.24586803  1
  Cu  Cu108  1  0.16696569  0.83002322  0.76036820  1
  Cu  Cu109  1  0.32808634  0.01065325  -0.01233728  1
  Cu  Cu110  1  0.82906997  0.16034664  0.75043576  1
  Cu  Cu111  1  0.66731819  0.33412751  0.00283152  1
  Cu  Cu112  1  0.83905292  0.83231030  0.24815414  1
  Cu  Cu113  1  0.83515955  0.83259475  0.75095313  1
  Cu  Cu114  1  0.00964084  0.33148220  0.51172722  1
  Se  Se115  1  0.08640205  0.08849011  0.05267045  1
  Se  Se116  1  0.07899710  0.06707901  0.56441379  1
  Se  Se117  1  0.07648670  0.41092320  0.04678781  1
  Se  Se118  1  0.08713289  0.41216743  0.57098661  1
  Se  Se119  1  0.07673411  0.75031280  0.04906850  1
  Se  Se120  1  0.08202279  0.74461082  0.56682964  1
  Se  Se121  1  0.41059456  0.08291066  0.05372042  1
  Se  Se122  1  0.40915692  0.08773413  0.55645646  1
  Se  Se123  1  0.40406116  0.40952423  0.05722898  1
  Se  Se124  1  0.39949399  0.41222200  0.57411149  1
  Se  Se125  1  0.41417166  0.75002049  0.04946825  1
  Se  Se126  1  0.41334232  0.75394940  0.56405308  1
  Se  Se127  1  0.74696023  0.08194592  0.06279075  1
  Se  Se128  1  0.74241344  0.07805861  0.55673946  1
  Se  Se129  1  0.75174506  0.41287601  0.05895546  1
  Se  Se130  1  0.76422685  0.40931609  0.55555690  1
  Se  Se131  1  0.74739713  0.75041354  0.05666341  1
  Se  Se132  1  0.75613289  0.74912614  0.55038448  1
  Se  Se133  1  0.24636224  0.25224292  0.04521782  1
  Se  Se134  1  0.24159894  0.24442274  0.56796492  1
  Se  Se135  1  0.24193905  0.58249105  0.04993889  1
  Se  Se136  1  0.24668656  0.58260814  0.57127346  1
  Se  Se137  1  0.25096905  0.92796234  0.04694625  1
  Se  Se138  1  0.25155513  0.92364076  0.56454922  1
  Se  Se139  1  0.58893635  0.25006509  0.05925356  1
  Se  Se140  1  0.57951291  0.26420848  0.55055538  1
  Se  Se141  1  0.59103705  0.58499070  0.06309757  1
  Se  Se142  1  0.59313113  0.58981727  0.55896640  1
  Se  Se143  1  0.58039390  0.92235938  0.05612273  1
  Se  Se144  1  0.58605201  0.92399528  0.55542891  1
  Se  Se145  1  0.92778140  0.25625971  0.05602615  1
  Se  Se146  1  0.93009312  0.24612962  0.56736129  1
  Se  Se147  1  0.92189645  0.58653687  0.05379165  1
  Se  Se148  1  0.92766349  0.57912041  0.56074481  1
  Se  Se149  1  0.91561341  0.92112856  0.05735952  1
  Se  Se150  1  0.91552916  0.90121294  0.55385739  1
  Se  Se151  1  0.08425973  0.24831983  0.45171856  1
  Se  Se152  1  0.08083954  0.24304970  0.92558718  1
  Se  Se153  1  0.09140331  0.58053291  0.45094636  1
  Se  Se154  1  0.07141911  0.58027086  0.93132457  1
  Se  Se155  1  0.08187230  0.92073824  0.43285616  1
  Se  Se156  1  0.08780261  0.91904879  0.94929377  1
  Se  Se157  1  0.40487024  0.25733280  0.45296673  1
  Se  Se158  1  0.41332064  0.26560371  0.93023940  1
  Se  Se159  1  0.40891042  0.58627997  0.45810993  1
  Se  Se160  1  0.40406348  0.58908585  0.93924247  1
  Se  Se161  1  0.40060240  0.92366116  0.44325714  1
  Se  Se162  1  0.41556274  0.92279662  0.94411813  1
  Se  Se163  1  0.74468502  0.25352561  0.44009592  1
  Se  Se164  1  0.74850002  0.26012335  0.94163007  1
  Se  Se165  1  0.75782906  0.57858115  0.44793653  1
  Se  Se166  1  0.74169907  0.59394612  0.93568830  1
  Se  Se167  1  0.75102145  0.91608603  0.44347731  1
  Se  Se168  1  0.74958332  0.92130010  0.95109004  1
  Se  Se169  1  0.24206039  0.08397123  0.44297763  1
  Se  Se170  1  0.25908694  0.09483157  0.92444329  1
  Se  Se171  1  0.24646275  0.41765803  0.45807255  1
  Se  Se172  1  0.24428126  0.42681092  0.94417102  1
  Se  Se173  1  0.25678143  0.74162523  0.44927896  1
  Se  Se174  1  0.24460595  0.75422402  0.94933425  1
  Se  Se175  1  0.57796371  0.08249793  0.44322566  1
  Se  Se176  1  0.59099493  0.07880377  0.93645750  1
  Se  Se177  1  0.58582501  0.41995206  0.43634748  1
  Se  Se178  1  0.58588915  0.40862498  0.94259810  1
  Se  Se179  1  0.59192130  0.73752981  0.43496480  1
  Se  Se180  1  0.58024712  0.75033414  0.95268181  1
  Se  Se181  1  0.92273513  0.07678320  0.44075307  1
  Se  Se182  1  0.92949762  0.07672868  0.93968028  1
  Se  Se183  1  0.93011172  0.40957493  0.45051618  1
  Se  Se184  1  0.92037924  0.40447282  0.92993318  1
  Se  Se185  1  0.93216885  0.74517232  0.44509201  1
  Se  Se186  1  0.91306377  0.75284832  0.94428932  1
  Se  Se187  1  0.24422740  0.24557543  0.31080882  1
  Se  Se188  1  0.26295080  0.28672856  0.80430864  1
  Se  Se189  1  0.25530420  0.57478768  0.31680422  1
  Se  Se190  1  0.25237835  0.59287056  0.80434883  1
  Se  Se191  1  0.25177979  0.91504426  0.29750765  1
  Se  Se192  1  0.24764568  0.91727557  0.81159280  1
  Se  Se193  1  0.57869438  0.24650491  0.30668334  1
  Se  Se194  1  0.60337640  0.26858130  0.79850261  1
  Se  Se195  1  0.57954762  0.58286670  0.30351231  1
  Se  Se196  1  0.58666506  0.58993859  0.81043231  1
  Se  Se197  1  0.57504123  0.91154262  0.30438968  1
  Se  Se198  1  0.57903369  0.91475033  0.81292207  1
  Se  Se199  1  0.90749763  0.24190079  0.31519515  1
  Se  Se200  1  0.89167454  0.22934194  0.82525295  1
  Se  Se201  1  0.92879125  0.58220705  0.30848864  1
  Se  Se202  1  0.88592572  0.55329707  0.81202053  1
  Se  Se203  1  0.92015855  0.91520666  0.30294715  1
  Se  Se204  1  0.91580059  0.91221865  0.80753373  1
  Se  Se205  1  0.08167861  0.08552586  0.30159025  1
  Se  Se206  1  0.05805484  0.05373256  0.80376016  1
  Se  Se207  1  0.09698158  0.42162518  0.31362167  1
  Se  Se208  1  0.06337583  0.40703907  0.80223912  1
  Se  Se209  1  0.09471904  0.74935804  0.30196953  1
  Se  Se210  1  0.08159497  0.75070673  0.81356170  1
  Se  Se211  1  0.40929403  0.08294431  0.30761440  1
  Se  Se212  1  0.43614033  0.11729675  0.80722997  1
  Se  Se213  1  0.42105889  0.41572254  0.31133160  1
  Se  Se214  1  0.44469265  0.43210655  0.82618064  1
  Se  Se215  1  0.41965830  0.75271688  0.30938523  1
  Se  Se216  1  0.41391882  0.75309307  0.81010799  1
  Se  Se217  1  0.74751260  0.07816807  0.30624490  1
  Se  Se218  1  0.74698856  0.07715764  0.80879758  1
  Se  Se219  1  0.75745420  0.41975094  0.30561965  1
  Se  Se220  1  0.73362153  0.40206111  0.79756953  1
  Se  Se221  1  0.76128984  0.74966922  0.30998606  1
  Se  Se222  1  0.74694378  0.75923866  0.80892208  1
  Se  Se223  1  0.24881591  0.08489259  0.19253784  1
  Se  Se224  1  0.25840199  0.08459279  0.71020268  1
  Se  Se225  1  0.24061168  0.42041794  0.19149492  1
  Se  Se226  1  0.25354937  0.40028080  0.71180950  1
  Se  Se227  1  0.24628633  0.75817079  0.17990538  1
  Se  Se228  1  0.24938675  0.74996102  0.70344883  1
  Se  Se229  1  0.58134031  0.08121454  0.19934275  1
  Se  Se230  1  0.57657230  0.09440773  0.68339819  1
  Se  Se231  1  0.58635893  0.40886401  0.19827463  1
  Se  Se232  1  0.57537943  0.43311481  0.68860629  1
  Se  Se233  1  0.57242047  0.75622099  0.18726661  1
  Se  Se234  1  0.57183550  0.76345047  0.68980676  1
  Se  Se235  1  0.91405946  0.08899690  0.19799643  1
  Se  Se236  1  0.90914220  0.07641925  0.69686672  1
  Se  Se237  1  0.91909901  0.41983558  0.19018041  1
  Se  Se238  1  0.93444967  0.39507693  0.70544539  1
  Se  Se239  1  0.92389373  0.75111186  0.19542029  1
  Se  Se240  1  0.91620311  0.74571414  0.69969676  1
  Se  Se241  1  0.08786483  0.24976042  0.19092865  1
  Se  Se242  1  0.08827810  0.23314912  0.70991653  1
  Se  Se243  1  0.09012136  0.58127334  0.19408924  1
  Se  Se244  1  0.07133024  0.58461454  0.70805153  1
  Se  Se245  1  0.08445096  0.91950053  0.18936364  1
  Se  Se246  1  0.08942064  0.90922970  0.69980441  1
  Se  Se247  1  0.42358363  0.23681090  0.18642981  1
  Se  Se248  1  0.41446860  0.25520472  0.70027198  1
  Se  Se249  1  0.42190675  0.57068934  0.19334732  1
  Se  Se250  1  0.41428686  0.58870393  0.70252665  1
  Se  Se251  1  0.41040036  0.91893557  0.19192742  1
  Se  Se252  1  0.41676491  0.92327971  0.70274680  1
  Se  Se253  1  0.74929468  0.25344158  0.20093636  1
  Se  Se254  1  0.75614807  0.24182497  0.69009992  1
  Se  Se255  1  0.76965429  0.57619265  0.19017899  1
  Se  Se256  1  0.76444526  0.57596686  0.68718162  1
  Se  Se257  1  0.75043173  0.91364109  0.19852914  1
  Se  Se258  1  0.75701816  0.90764298  0.68690427  1
