# generated using pymatgen
data_In86Cu29Se144
_symmetry_space_group_name_H-M   'P 1'
_cell_length_a   17.57285262
_cell_length_b   17.57723064
_cell_length_c   23.42037436
_cell_angle_alpha   89.98763861
_cell_angle_beta   90.02323173
_cell_angle_gamma   90.01324041
_symmetry_Int_Tables_number   1
_chemical_formula_structural   In86Cu29Se144
_chemical_formula_sum   'In86 Cu29 Se144'
_cell_volume   7234.13307219
_cell_formula_units_Z   1
loop_
 _symmetry_equiv_pos_site_id
 _symmetry_equiv_pos_as_xyz
  1  'x, y, z'
loop_
 _atom_site_type_symbol
 _atom_site_label
 _atom_site_symmetry_multiplicity
 _atom_site_fract_x
 _atom_site_fract_y
 _atom_site_fract_z
 _atom_site_occupancy
  In  In0  1  -0.01038501  0.18171914  0.13312960  1
  In  In1  1  -0.00306413  0.16561771  0.61128841  1
  In  In2  1  -0.00505608  0.49999229  0.12712579  1
  In  In3  1  0.00771237  0.50092171  0.62357929  1
  In  In4  1  -0.02328459  0.84886166  0.14963099  1
  In  In5  1  -0.01594018  0.83633397  0.62298353  1
  In  In6  1  0.33467861  0.15632740  0.12877518  1
  In  In7  1  0.32417692  0.16998339  0.62229063  1
  In  In8  1  0.33908540  0.52621718  0.12589001  1
  In  In9  1  0.33020725  0.49524493  0.61325871  1
  In  In10  1  0.33764863  0.83134569  0.13260207  1
  In  In11  1  0.34849177  0.83499993  0.62749616  1
  In  In12  1  0.66969131  0.16098372  0.12880648  1
  In  In13  1  0.68117429  0.16383684  0.62261137  1
  In  In14  1  0.67515780  0.48757869  0.13586557  1
  In  In15  1  0.66017544  0.50959092  0.62685589  1
  In  In16  1  0.67675385  0.83602881  0.13512138  1
  In  In17  1  0.66546276  0.82815150  0.62302088  1
  In  In18  1  0.16923653  0.00586286  0.37207245  1
  In  In19  1  0.17557728  -0.00771350  0.87792245  1
  In  In20  1  0.15967600  0.34078172  0.37877387  1
  In  In21  1  0.17480432  0.34107466  0.88003765  1
  In  In22  1  0.16431302  0.66145025  0.37229112  1
  In  In23  1  0.14970473  0.66895008  0.87815677  1
  In  In24  1  0.51382390  -0.00307734  0.35780695  1
  In  In25  1  0.48663158  -0.00217766  0.87964547  1
  In  In26  1  0.51584014  0.33942919  0.37095962  1
  In  In27  1  0.51362412  0.32271916  0.87436992  1
  In  In28  1  0.50245756  0.66305699  0.36130551  1
  In  In29  1  0.52031906  0.66606297  0.88083598  1
  In  In30  1  0.83462456  -0.00299465  0.36911541  1
  In  In31  1  0.82937769  0.00216388  0.89330805  1
  In  In32  1  0.82522906  0.32167783  0.36777593  1
  In  In33  1  0.81201508  0.35170428  0.89214673  1
  In  In34  1  0.83229927  0.67774213  0.35837568  1
  In  In35  1  0.83025864  0.66680392  0.87964924  1
  In  In36  1  -0.00238307  0.16558355  0.37253634  1
  In  In37  1  -0.01317649  0.15922330  0.87681625  1
  In  In38  1  0.01251057  0.50846336  0.36755118  1
  In  In39  1  -0.01357795  0.50964915  0.88467109  1
  In  In40  1  -0.02094477  0.82341862  0.35827343  1
  In  In41  1  0.00030828  0.82044494  0.87844409  1
  In  In42  1  0.33310568  0.14942854  0.37521020  1
  In  In43  1  0.34870946  0.15560294  0.87776071  1
  In  In44  1  0.33160014  0.50733606  0.37796340  1
  In  In45  1  0.32995567  0.49196294  0.88272481  1
  In  In46  1  0.35126669  0.83426228  0.35510376  1
  In  In47  1  0.33816933  0.84918755  0.87920645  1
  In  In48  1  0.67382937  0.17014741  0.37203214  1
  In  In49  1  0.66632332  0.17764504  0.87487687  1
  In  In50  1  0.66042261  0.49422546  0.36510851  1
  In  In51  1  0.67013783  0.50941027  0.87338676  1
  In  In52  1  0.69410628  0.85947541  0.33475426  1
  In  In53  1  0.67704108  0.82327618  0.88842499  1
  In  In54  1  0.17210711  -0.00975300  0.13385136  1
  In  In55  1  0.16541639  0.00960693  0.62101386  1
  In  In56  1  0.15057035  0.33495614  0.12677638  1
  In  In57  1  0.16537899  0.33297832  0.61394176  1
  In  In58  1  0.16161799  0.66396134  0.12869363  1
  In  In59  1  0.16410576  0.65501769  0.62173275  1
  In  In60  1  0.50484817  -0.01147893  0.13773572  1
  In  In61  1  0.50074797  -0.01191857  0.62549807  1
  In  In62  1  0.52530829  0.33986037  0.12645792  1
  In  In63  1  0.49642680  0.34687448  0.62285785  1
  In  In64  1  0.50007517  0.68553685  0.14459133  1
  In  In65  1  0.51691003  0.67263592  0.62216271  1
  In  In66  1  0.82948719  0.00049372  0.12998644  1
  In  In67  1  0.82665480  0.00121581  0.60812024  1
  In  In68  1  0.82672501  0.33905798  0.12363558  1
  In  In69  1  0.83445331  0.32302497  0.62399375  1
  In  In70  1  0.83707041  0.66686621  0.13247737  1
  In  In71  1  0.82464040  0.67358602  0.63042696  1
  In  In72  1  0.66286245  0.00005631  0.74801523  1
  In  In73  1  0.33711745  0.66669202  0.74773546  1
  In  In74  1  0.50422196  0.16714045  0.48931215  1
  In  In75  1  0.16305413  0.83220269  0.48893557  1
  In  In76  1  0.51152042  0.83038886  0.48918030  1
  In  In77  1  -0.00134734  0.33374716  0.74727836  1
  In  In78  1  0.50502589  0.50915193  0.00840299  1
  In  In79  1  0.16173551  0.82631059  0.00864144  1
  In  In80  1  0.33885266  0.33243477  0.75170937  1
  In  In81  1  0.33409057  0.33128495  0.25115876  1
  In  In82  1  0.50721772  0.16374352  0.00451327  1
  In  In83  1  0.83545844  0.50001270  0.49274990  1
  In  In84  1  0.15776228  0.16918233  -0.00333157  1
  In  In85  1  -0.00161047  -0.00173228  0.74934784  1
  Cu  Cu86  1  0.66934676  0.66935969  0.49532300  1
  Cu  Cu87  1  0.82775990  0.50348781  0.75874514  1
  Cu  Cu88  1  0.17393820  0.16154397  0.74572876  1
  Cu  Cu89  1  0.16872848  0.83302060  0.75700866  1
  Cu  Cu90  1  0.16731891  0.49658387  0.24892345  1
  Cu  Cu91  1  0.16516578  0.83089550  0.25454031  1
  Cu  Cu92  1  0.83378139  0.82855211  0.75433225  1
  Cu  Cu93  1  0.67055637  0.67035124  0.01079444  1
  Cu  Cu94  1  0.33137507  0.33654152  0.49592758  1
  Cu  Cu95  1  0.33489180  0.66094110  0.49198115  1
  Cu  Cu96  1  0.16171913  0.50457435  0.74884749  1
  Cu  Cu97  1  0.16113128  0.16259928  0.24938674  1
  Cu  Cu98  1  0.50653717  0.16714393  0.25121084  1
  Cu  Cu99  1  0.50441817  0.83364202  0.75228735  1
  Cu  Cu100  1  0.83727896  0.49411169  0.25037478  1
  Cu  Cu101  1  0.66759461  0.33599920  0.49413980  1
  Cu  Cu102  1  0.32984741  0.33960275  0.00711600  1
  Cu  Cu103  1  0.83122551  0.16919838  0.74780483  1
  Cu  Cu104  1  -0.00569441  -0.00166520  0.49242524  1
  Cu  Cu105  1  -0.00003687  0.33163881  0.49457542  1
  Cu  Cu106  1  0.33208952  0.67245370  0.00975341  1
  Cu  Cu107  1  -0.00820222  0.66571388  0.00610872  1
  Cu  Cu108  1  0.50949237  0.50360764  0.74730461  1
  Cu  Cu109  1  0.33345459  -0.00207126  0.49652008  1
  Cu  Cu110  1  0.66574393  -0.00588906  0.01148723  1
  Cu  Cu111  1  -0.00108887  -0.00138123  0.01434712  1
  Cu  Cu112  1  -0.00539979  0.66959138  0.48877805  1
  Cu  Cu113  1  0.83228524  0.16598961  0.24839585  1
  Cu  Cu114  1  -0.00871166  0.33992961  0.00733729  1
  Se  Se115  1  0.08167813  0.08163604  0.06806104  1
  Se  Se116  1  0.08030759  0.07816715  0.54722783  1
  Se  Se117  1  0.08144974  0.42117521  0.05444793  1
  Se  Se118  1  0.07955239  0.41756928  0.55010867  1
  Se  Se119  1  0.06317030  0.75071440  0.06899807  1
  Se  Se120  1  0.07496127  0.74611255  0.55511095  1
  Se  Se121  1  0.41712586  0.07222521  0.06013253  1
  Se  Se122  1  0.41595599  0.07824017  0.55592436  1
  Se  Se123  1  0.41435094  0.41380996  0.06685747  1
  Se  Se124  1  0.41911220  0.41894033  0.54574890  1
  Se  Se125  1  0.41916973  0.74924121  0.06269643  1
  Se  Se126  1  0.41403744  0.74320011  0.55261445  1
  Se  Se127  1  0.75079196  0.08232485  0.05692419  1
  Se  Se128  1  0.74955539  0.09044742  0.54412641  1
  Se  Se129  1  0.74089112  0.41705472  0.05401529  1
  Se  Se130  1  0.74674908  0.41481474  0.55806894  1
  Se  Se131  1  0.75551659  0.75269368  0.06347310  1
  Se  Se132  1  0.75033267  0.75024158  0.55305637  1
  Se  Se133  1  0.25217069  0.25239101  0.06260152  1
  Se  Se134  1  0.25009244  0.24949325  0.54796607  1
  Se  Se135  1  0.24399669  0.58682955  0.05415742  1
  Se  Se136  1  0.24902291  0.58457681  0.54875092  1
  Se  Se137  1  0.25679202  0.92041331  0.05699203  1
  Se  Se138  1  0.25634145  0.91461797  0.55681136  1
  Se  Se139  1  0.60228491  0.25891004  0.05230575  1
  Se  Se140  1  0.58642483  0.25658535  0.55654702  1
  Se  Se141  1  0.58865352  0.59592962  0.07404209  1
  Se  Se142  1  0.58570849  0.58615201  0.54912999  1
  Se  Se143  1  0.58511671  0.91077988  0.06511842  1
  Se  Se144  1  0.59523060  0.92533049  0.55252460  1
  Se  Se145  1  0.91077959  0.25074934  0.05575516  1
  Se  Se146  1  0.91277333  0.25172415  0.54720732  1
  Se  Se147  1  0.90935010  0.58000036  0.05785565  1
  Se  Se148  1  0.91965635  0.59096188  0.55699682  1
  Se  Se149  1  0.91347484  0.91292279  0.06196661  1
  Se  Se150  1  0.91285051  0.91331149  0.54631873  1
  Se  Se151  1  0.08362073  0.24640162  0.44310118  1
  Se  Se152  1  0.06677110  0.26420162  0.93852676  1
  Se  Se153  1  0.08451617  0.58369647  0.44696488  1
  Se  Se154  1  0.07933235  0.58564814  0.95166476  1
  Se  Se155  1  0.06881366  0.91658759  0.42993056  1
  Se  Se156  1  0.07491193  0.92395571  0.94598719  1
  Se  Se157  1  0.40999797  0.25870854  0.43268230  1
  Se  Se158  1  0.41091900  0.25990826  0.94699120  1
  Se  Se159  1  0.42666956  0.58616926  0.44050195  1
  Se  Se160  1  0.41029734  0.59386075  0.94359963  1
  Se  Se161  1  0.41617343  0.92431840  0.43533170  1
  Se  Se162  1  0.42372408  0.91122257  0.95393601  1
  Se  Se163  1  0.75125702  0.24887751  0.44719041  1
  Se  Se164  1  0.76616778  0.23082781  0.94317359  1
  Se  Se165  1  0.74688997  0.58888170  0.43264356  1
  Se  Se166  1  0.74513889  0.58660095  0.94965535  1
  Se  Se167  1  0.74737238  0.90646400  0.42928977  1
  Se  Se168  1  0.75225902  0.91171902  0.95772239  1
  Se  Se169  1  0.24596138  0.08251640  0.44951738  1
  Se  Se170  1  0.25840890  0.07721692  0.94888968  1
  Se  Se171  1  0.24753306  0.42181275  0.44448604  1
  Se  Se172  1  0.24436209  0.42256823  0.95627629  1
  Se  Se173  1  0.26411180  0.75050850  0.43306803  1
  Se  Se174  1  0.25450429  0.74527335  0.93998752  1
  Se  Se175  1  0.59283150  0.07042994  0.43679098  1
  Se  Se176  1  0.59459482  0.07185043  0.94140190  1
  Se  Se177  1  0.58475640  0.42302542  0.44630404  1
  Se  Se178  1  0.58550308  0.41698115  0.94288475  1
  Se  Se179  1  0.59707277  0.74496836  0.42691667  1
  Se  Se180  1  0.58352418  0.75093132  0.95711477  1
  Se  Se181  1  0.91151866  0.08387819  0.44067374  1
  Se  Se182  1  0.92035761  0.08355734  0.95678855  1
  Se  Se183  1  0.92343223  0.41093309  0.43156169  1
  Se  Se184  1  0.90854489  0.42550240  0.95420329  1
  Se  Se185  1  0.90734968  0.74975839  0.43860691  1
  Se  Se186  1  0.91304887  0.75114180  0.94956769  1
  Se  Se187  1  0.24409081  0.24102678  0.31109459  1
  Se  Se188  1  0.24569589  0.24163740  0.81181814  1
  Se  Se189  1  0.24843129  0.57998860  0.30336893  1
  Se  Se190  1  0.24670649  0.57842753  0.81058063  1
  Se  Se191  1  0.24915970  0.91753829  0.30473605  1
  Se  Se192  1  0.25456843  0.91873908  0.80295174  1
  Se  Se193  1  0.58974987  0.25166546  0.30242228  1
  Se  Se194  1  0.57609405  0.23697758  0.80047384  1
  Se  Se195  1  0.58602242  0.57796694  0.29479648  1
  Se  Se196  1  0.58788513  0.58973495  0.80151435  1
  Se  Se197  1  0.55788855  0.88518065  0.29469987  1
  Se  Se198  1  0.58455702  0.90975507  0.81598549  1
  Se  Se199  1  0.91823455  0.24909877  0.30086441  1
  Se  Se200  1  0.90757048  0.25009848  0.81000838  1
  Se  Se201  1  0.91778200  0.58134856  0.30257766  1
  Se  Se202  1  0.91482037  0.58687869  0.80747125  1
  Se  Se203  1  0.90795828  0.91612179  0.29226727  1
  Se  Se204  1  0.90846045  0.91423249  0.81437099  1
  Se  Se205  1  0.07845201  0.07913880  0.30337685  1
  Se  Se206  1  0.09159881  0.08879828  0.81012593  1
  Se  Se207  1  0.08323022  0.41249433  0.30038064  1
  Se  Se208  1  0.08539122  0.42344892  0.81149643  1
  Se  Se209  1  0.08188799  0.74444069  0.30391703  1
  Se  Se210  1  0.07984487  0.74916392  0.80149802  1
  Se  Se211  1  0.42002021  0.08387182  0.30118468  1
  Se  Se212  1  0.42100979  0.08060096  0.80286250  1
  Se  Se213  1  0.42116041  0.42323030  0.30873093  1
  Se  Se214  1  0.42867982  0.42740677  0.81089852  1
  Se  Se215  1  0.39890490  0.72294983  0.29384691  1
  Se  Se216  1  0.42436952  0.75234611  0.81335579  1
  Se  Se217  1  0.74867855  0.08331808  0.30213063  1
  Se  Se218  1  0.76074588  0.08137092  0.80903114  1
  Se  Se219  1  0.74933424  0.41123439  0.30097145  1
  Se  Se220  1  0.74443494  0.41467862  0.80616062  1
  Se  Se221  1  0.73081378  0.73128768  0.28748367  1
  Se  Se222  1  0.74755325  0.74939324  0.80828411  1
  Se  Se223  1  0.25019991  0.08241634  0.19972805  1
  Se  Se224  1  0.25539624  0.07772533  0.69307222  1
  Se  Se225  1  0.25020233  0.42192421  0.18614124  1
  Se  Se226  1  0.24211630  0.42103208  0.69140790  1
  Se  Se227  1  0.24412696  0.75039787  0.19454955  1
  Se  Se228  1  0.24347757  0.75633447  0.68826148  1
  Se  Se229  1  0.58843141  0.07986370  0.19944662  1
  Se  Se230  1  0.57727247  0.09073308  0.68602567  1
  Se  Se231  1  0.57546525  0.42668672  0.20474582  1
  Se  Se232  1  0.58670970  0.41515805  0.69414196  1
  Se  Se233  1  0.59451730  0.75895625  0.21119372  1
  Se  Se234  1  0.58817897  0.75136602  0.69866261  1
  Se  Se235  1  0.91833592  0.08375167  0.19616573  1
  Se  Se236  1  0.91001593  0.08817718  0.68699645  1
  Se  Se237  1  0.91789903  0.40974043  0.19499892  1
  Se  Se238  1  0.90552786  0.42779438  0.69130877  1
  Se  Se239  1  0.92866008  0.73283762  0.20497786  1
  Se  Se240  1  0.91764144  0.74992892  0.69740872  1
  Se  Se241  1  0.08116340  0.25401767  0.20235031  1
  Se  Se242  1  0.08989051  0.23974999  0.68777581  1
  Se  Se243  1  0.08094675  0.57922436  0.19732525  1
  Se  Se244  1  0.07838836  0.58753998  0.69696775  1
  Se  Se245  1  0.08363223  0.91997271  0.20484705  1
  Se  Se246  1  0.09074699  0.90875861  0.68927344  1
  Se  Se247  1  0.42926114  0.24644685  0.18793268  1
  Se  Se248  1  0.42355714  0.24444665  0.68776639  1
  Se  Se249  1  0.41563434  0.59214069  0.20428315  1
  Se  Se250  1  0.42288565  0.57544960  0.68508448  1
  Se  Se251  1  0.39857607  0.93025811  0.20035276  1
  Se  Se252  1  0.41929788  0.91712175  0.70179272  1
  Se  Se253  1  0.74912725  0.25077240  0.19457896  1
  Se  Se254  1  0.74731412  0.25315886  0.69669933  1
  Se  Se255  1  0.75386209  0.57957834  0.19930126  1
  Se  Se256  1  0.74800337  0.58396874  0.69728375  1
  Se  Se257  1  0.75806447  0.91769375  0.20576319  1
  Se  Se258  1  0.76105493  0.91289364  0.69024242  1
