# generated using pymatgen
data_In86Cu29Se144
_symmetry_space_group_name_H-M   'P 1'
_cell_length_a   17.65258870
_cell_length_b   17.65606394
_cell_length_c   23.52078094
_cell_angle_alpha   90.01447119
_cell_angle_beta   89.96843770
_cell_angle_gamma   89.99076522
_symmetry_Int_Tables_number   1
_chemical_formula_structural   In86Cu29Se144
_chemical_formula_sum   'In86 Cu29 Se144'
_cell_volume   7330.84348172
_cell_formula_units_Z   1
loop_
 _symmetry_equiv_pos_site_id
 _symmetry_equiv_pos_as_xyz
  1  'x, y, z'
loop_
 _atom_site_type_symbol
 _atom_site_label
 _atom_site_symmetry_multiplicity
 _atom_site_fract_x
 _atom_site_fract_y
 _atom_site_fract_z
 _atom_site_occupancy
  In  In0  1  -0.00456710  0.16480476  0.11653738  1
  In  In1  1  -0.01062176  0.16014500  0.61857480  1
  In  In2  1  0.00313513  0.49681296  0.11797141  1
  In  In3  1  -0.00184640  0.51624302  0.62975744  1
  In  In4  1  0.00050433  0.82778865  0.11114487  1
  In  In5  1  -0.00331141  0.83309893  0.63985957  1
  In  In6  1  0.33397345  0.17981321  0.12573706  1
  In  In7  1  0.34760927  0.18055241  0.61077556  1
  In  In8  1  0.32111081  0.50654319  0.13954197  1
  In  In9  1  0.33427071  0.49226425  0.63089399  1
  In  In10  1  0.32453850  0.82313673  0.11560053  1
  In  In11  1  0.32575224  0.82947406  0.62985258  1
  In  In12  1  0.66823550  0.15783685  0.13512623  1
  In  In13  1  0.67393087  0.16726950  0.61868720  1
  In  In14  1  0.65687171  0.49765152  0.12731206  1
  In  In15  1  0.65869347  0.49764819  0.62112493  1
  In  In16  1  0.67807086  0.84382955  0.11560415  1
  In  In17  1  0.67179028  0.82181140  0.62848216  1
  In  In18  1  0.17567209  0.00518670  0.37428999  1
  In  In19  1  0.15795265  0.00919189  0.87925853  1
  In  In20  1  0.16282866  0.33086888  0.37291883  1
  In  In21  1  0.17137218  0.33036045  0.88074417  1
  In  In22  1  0.17833387  0.65699655  0.37406273  1
  In  In23  1  0.17031739  0.66347285  0.88167548  1
  In  In24  1  0.52081061  -0.00135371  0.37741333  1
  In  In25  1  0.49048814  -0.00081406  0.87572260  1
  In  In26  1  0.49843096  0.33633118  0.37888482  1
  In  In27  1  0.50836599  0.33564425  0.86189760  1
  In  In28  1  0.48127332  0.65990277  0.37838944  1
  In  In29  1  0.51367224  0.67527185  0.86473007  1
  In  In30  1  0.78997558  0.03018910  0.41386852  1
  In  In31  1  0.84920271  -0.01104192  0.87791837  1
  In  In32  1  0.82558295  0.34260956  0.38488362  1
  In  In33  1  0.82392184  0.33910822  0.87361011  1
  In  In34  1  0.83299976  0.67764138  0.39068054  1
  In  In35  1  0.86210753  0.71623376  0.81779176  1
  In  In36  1  0.00054789  0.16190389  0.38404121  1
  In  In37  1  0.00491693  0.15810448  0.87603259  1
  In  In38  1  0.00171959  0.49663622  0.38025743  1
  In  In39  1  -0.00245126  0.53672884  0.87690429  1
  In  In40  1  -0.01967185  0.83219539  0.37185655  1
  In  In41  1  0.00339572  0.83327273  0.87771082  1
  In  In42  1  0.32505616  0.18036129  0.38375187  1
  In  In43  1  0.32991446  0.16844456  0.87188401  1
  In  In44  1  0.34269167  0.51509987  0.36743451  1
  In  In45  1  0.33173635  0.49241732  0.87193003  1
  In  In46  1  0.33978980  0.82190062  0.37216252  1
  In  In47  1  0.34584525  0.82347937  0.88230365  1
  In  In48  1  0.65799509  0.17458579  0.38077282  1
  In  In49  1  0.67569900  0.18117285  0.87202123  1
  In  In50  1  0.67602697  0.49177719  0.38370143  1
  In  In51  1  0.67171380  0.50245997  0.86352232  1
  In  In52  1  0.66875617  0.84157815  0.37659882  1
  In  In53  1  0.67925629  0.82686749  0.87900577  1
  In  In54  1  0.15995323  -0.00341418  0.11514043  1
  In  In55  1  0.15400471  -0.00062655  0.63027781  1
  In  In56  1  0.17458423  0.33873238  0.11539793  1
  In  In57  1  0.18043248  0.33372356  0.62714762  1
  In  In58  1  0.16980961  0.66913894  0.11373938  1
  In  In59  1  0.16744514  0.66299210  0.64250224  1
  In  In60  1  0.51311045  0.00149553  0.12574628  1
  In  In61  1  0.50746989  0.00699783  0.61472676  1
  In  In62  1  0.49704468  0.33188798  0.13746259  1
  In  In63  1  0.49565904  0.32989019  0.62752710  1
  In  In64  1  0.49111206  0.65996596  0.12181243  1
  In  In65  1  0.49703777  0.66092750  0.62651660  1
  In  In66  1  0.82867116  -0.00237305  0.12132783  1
  In  In67  1  0.83694028  0.00007106  0.62435221  1
  In  In68  1  0.83227942  0.32059300  0.12850890  1
  In  In69  1  0.81915931  0.32345913  0.61578358  1
  In  In70  1  0.82628055  0.67168338  0.11967705  1
  In  In71  1  0.83431541  0.66063544  0.62297542  1
  In  In72  1  0.15817509  0.83624550  0.50367957  1
  In  In73  1  0.33016945  0.00371047  0.75192466  1
  In  In74  1  0.34065886  0.00190782  0.24936987  1
  In  In75  1  0.00132668  0.33857190  0.75040949  1
  In  In76  1  0.50391241  0.83319030  0.50441472  1
  In  In77  1  0.16570685  0.49856618  0.50535255  1
  In  In78  1  0.65970006  0.66384686  0.24769322  1
  In  In79  1  -0.00563948  -0.00526023  0.24179922  1
  In  In80  1  0.49894870  0.49826680  0.00093369  1
  In  In81  1  0.83300982  0.50665936  -0.00847599  1
  In  In82  1  0.00096333  0.33199310  0.25676894  1
  In  In83  1  0.49984119  0.16282223  0.00173875  1
  In  In84  1  0.66990462  0.00033983  0.74325590  1
  In  In85  1  0.00297108  0.66663370  0.24386342  1
  Cu  Cu86  1  0.66371546  0.66376480  0.50552843  1
  Cu  Cu87  1  0.33497423  0.33789294  0.50129049  1
  Cu  Cu88  1  0.16860078  0.16913616  0.75298034  1
  Cu  Cu89  1  0.33698969  0.66316565  -0.00030060  1
  Cu  Cu90  1  0.32783054  -0.00318960  -0.00415665  1
  Cu  Cu91  1  -0.00207957  0.33263447  0.49970353  1
  Cu  Cu92  1  0.83541400  0.16339687  0.74368352  1
  Cu  Cu93  1  0.65867080  0.33588642  0.50244705  1
  Cu  Cu94  1  0.16638307  0.16932717  0.24804337  1
  Cu  Cu95  1  0.50185579  0.48972176  0.25444778  1
  Cu  Cu96  1  0.17114686  0.83006626  0.75754089  1
  Cu  Cu97  1  0.67253822  0.00364504  0.00050947  1
  Cu  Cu98  1  -0.00089528  -0.00472621  0.50653487  1
  Cu  Cu99  1  0.50080796  0.16780243  0.25885979  1
  Cu  Cu100  1  0.82027402  0.16710078  0.25901854  1
  Cu  Cu101  1  0.66898699  0.33027698  0.00123407  1
  Cu  Cu102  1  0.81886948  0.49308320  0.74325769  1
  Cu  Cu103  1  0.33297901  0.00633237  0.49666763  1
  Cu  Cu104  1  0.49599785  0.49828336  0.74470793  1
  Cu  Cu105  1  0.83647593  0.49842073  0.25970783  1
  Cu  Cu106  1  -0.00247574  0.00271557  -0.00242679  1
  Cu  Cu107  1  0.49902519  0.83664378  0.74857597  1
  Cu  Cu108  1  0.16669479  0.50209409  0.75713035  1
  Cu  Cu109  1  0.00133242  0.33033084  -0.00373627  1
  Cu  Cu110  1  0.50100203  0.82952553  0.25063106  1
  Cu  Cu111  1  0.33370812  0.33328019  0.00053131  1
  Cu  Cu112  1  0.82555491  0.84321332  0.24939837  1
  Cu  Cu113  1  0.67233964  0.67762508  -0.01067415  1
  Cu  Cu114  1  0.17289982  0.81828047  0.24446576  1
  Se  Se115  1  0.08276589  0.08615314  0.05007930  1
  Se  Se116  1  0.08387420  0.08138271  0.55515677  1
  Se  Se117  1  0.08284824  0.41409806  0.04986576  1
  Se  Se118  1  0.07480989  0.40866938  0.56553666  1
  Se  Se119  1  0.07887569  0.74122799  0.04735892  1
  Se  Se120  1  0.08228255  0.74406979  0.56961718  1
  Se  Se121  1  0.40664871  0.07384305  0.06142957  1
  Se  Se122  1  0.42176123  0.08498664  0.54714731  1
  Se  Se123  1  0.41203687  0.41075654  0.06363476  1
  Se  Se124  1  0.41617164  0.41749431  0.55793986  1
  Se  Se125  1  0.42049247  0.74781204  0.05168360  1
  Se  Se126  1  0.40583061  0.74681923  0.55767972  1
  Se  Se127  1  0.74827229  0.08937002  0.05751478  1
  Se  Se128  1  0.75473444  0.07875713  0.55445582  1
  Se  Se129  1  0.74724929  0.41608431  0.05887036  1
  Se  Se130  1  0.74639120  0.41902577  0.55192865  1
  Se  Se131  1  0.75498477  0.75565486  0.04759773  1
  Se  Se132  1  0.75064049  0.74656602  0.55432149  1
  Se  Se133  1  0.25072178  0.24513117  0.04968820  1
  Se  Se134  1  0.24692857  0.25277975  0.54947295  1
  Se  Se135  1  0.25888250  0.57789059  0.05520365  1
  Se  Se136  1  0.25164251  0.58933504  0.56606331  1
  Se  Se137  1  0.24631002  0.91367306  0.05100046  1
  Se  Se138  1  0.25639908  0.92681813  0.55928974  1
  Se  Se139  1  0.58626779  0.25547517  0.06262447  1
  Se  Se140  1  0.58158072  0.24980803  0.55767962  1
  Se  Se141  1  0.59690581  0.59404722  0.05220869  1
  Se  Se142  1  0.57519626  0.58262325  0.55315451  1
  Se  Se143  1  0.58536157  0.92136128  0.05089145  1
  Se  Se144  1  0.60196491  0.92060531  0.55674475  1
  Se  Se145  1  0.91469062  0.25431252  0.05224748  1
  Se  Se146  1  0.91330561  0.24814498  0.55103426  1
  Se  Se147  1  0.92189286  0.59267967  0.05619783  1
  Se  Se148  1  0.92018413  0.58264229  0.55337583  1
  Se  Se149  1  0.91570567  0.92004748  0.05332940  1
  Se  Se150  1  0.92222388  0.90972435  0.56218832  1
  Se  Se151  1  0.08305027  0.25284406  0.44531412  1
  Se  Se152  1  0.08390506  0.24569722  0.94354076  1
  Se  Se153  1  0.08088262  0.59319069  0.44438592  1
  Se  Se154  1  0.09392534  0.57617998  0.95120343  1
  Se  Se155  1  0.07520546  0.92537619  0.43575396  1
  Se  Se156  1  0.08336852  0.91954221  0.94675755  1
  Se  Se157  1  0.41864719  0.25178697  0.44945128  1
  Se  Se158  1  0.41851911  0.25867154  0.94026059  1
  Se  Se159  1  0.40815944  0.58095198  0.45156120  1
  Se  Se160  1  0.41910314  0.58924295  0.93602974  1
  Se  Se161  1  0.41168058  0.92104411  0.43906128  1
  Se  Se162  1  0.41968306  0.91725876  0.94936269  1
  Se  Se163  1  0.74565327  0.25441666  0.44936283  1
  Se  Se164  1  0.75579220  0.25213029  0.94832211  1
  Se  Se165  1  0.74970906  0.58526048  0.44932968  1
  Se  Se166  1  0.74740223  0.59399635  0.93018099  1
  Se  Se167  1  0.77040893  0.89200187  0.44437227  1
  Se  Se168  1  0.75303027  0.91965401  0.94483799  1
  Se  Se169  1  0.24483511  0.08796312  0.44755352  1
  Se  Se170  1  0.25297244  0.08645587  0.94281072  1
  Se  Se171  1  0.25312828  0.41473922  0.43970534  1
  Se  Se172  1  0.25278931  0.41777283  0.94723145  1
  Se  Se173  1  0.25349668  0.74807128  0.44592260  1
  Se  Se174  1  0.25448620  0.74951495  0.94869890  1
  Se  Se175  1  0.59476315  0.07626082  0.44990068  1
  Se  Se176  1  0.59254243  0.08073218  0.93775052  1
  Se  Se177  1  0.57907519  0.42118234  0.44796333  1
  Se  Se178  1  0.59203991  0.41181054  0.94091334  1
  Se  Se179  1  0.58667801  0.74075138  0.43848018  1
  Se  Se180  1  0.57923047  0.75655387  0.94302184  1
  Se  Se181  1  0.91862375  0.08168317  0.45292299  1
  Se  Se182  1  0.91401143  0.08719377  0.94576246  1
  Se  Se183  1  0.91738526  0.42050925  0.44934509  1
  Se  Se184  1  0.92692434  0.41516113  0.93455530  1
  Se  Se185  1  0.93539984  0.74308866  0.45017842  1
  Se  Se186  1  0.90675303  0.73657271  0.92145106  1
  Se  Se187  1  0.24689637  0.24856127  0.30495618  1
  Se  Se188  1  0.24944119  0.25398890  0.80477495  1
  Se  Se189  1  0.25016047  0.58342495  0.29862904  1
  Se  Se190  1  0.25246610  0.58430702  0.80884218  1
  Se  Se191  1  0.24571139  0.90635202  0.30447786  1
  Se  Se192  1  0.25008694  0.91305482  0.81718611  1
  Se  Se193  1  0.58204776  0.25596889  0.30789974  1
  Se  Se194  1  0.58602247  0.24365113  0.80128048  1
  Se  Se195  1  0.57869144  0.57549334  0.31401014  1
  Se  Se196  1  0.58118103  0.57924295  0.79837742  1
  Se  Se197  1  0.58511027  0.91198136  0.30203456  1
  Se  Se198  1  0.57859744  0.91614622  0.80862099  1
  Se  Se199  1  0.90905095  0.24219353  0.31508537  1
  Se  Se200  1  0.91153297  0.24506340  0.80778731  1
  Se  Se201  1  0.91335530  0.58548976  0.31296873  1
  Se  Se202  1  0.90017873  0.57229199  0.80108397  1
  Se  Se203  1  0.90077367  0.92496613  0.30952641  1
  Se  Se204  1  0.92600725  0.91539122  0.80457709  1
  Se  Se205  1  0.08549505  0.08593231  0.30413428  1
  Se  Se206  1  0.08422906  0.08327010  0.80089898  1
  Se  Se207  1  0.09218965  0.43123900  0.30474907  1
  Se  Se208  1  0.08271230  0.42555896  0.81737325  1
  Se  Se209  1  0.08735807  0.75552178  0.31082607  1
  Se  Se210  1  0.08966945  0.74708162  0.81161003  1
  Se  Se211  1  0.42078136  0.08702813  0.31870836  1
  Se  Se212  1  0.42736813  0.09472271  0.80400641  1
  Se  Se213  1  0.41329136  0.41338048  0.30754610  1
  Se  Se214  1  0.41567130  0.41505197  0.80137703  1
  Se  Se215  1  0.41800968  0.74383818  0.29977719  1
  Se  Se216  1  0.41762701  0.75223596  0.80203265  1
  Se  Se217  1  0.74388767  0.08376896  0.31672683  1
  Se  Se218  1  0.75987510  0.08415757  0.80932324  1
  Se  Se219  1  0.74964070  0.41447958  0.30646119  1
  Se  Se220  1  0.74167089  0.40585439  0.79733280  1
  Se  Se221  1  0.75548767  0.74933042  0.30590820  1
  Se  Se222  1  0.72228437  0.74367342  0.79516961  1
  Se  Se223  1  0.24186674  0.08356885  0.18907161  1
  Se  Se224  1  0.24620861  0.09181569  0.68786055  1
  Se  Se225  1  0.25781751  0.39685176  0.19373792  1
  Se  Se226  1  0.24638135  0.41794727  0.70222832  1
  Se  Se227  1  0.25446124  0.73874352  0.18977330  1
  Se  Se228  1  0.25570581  0.74897066  0.70473545  1
  Se  Se229  1  0.57897935  0.08229791  0.20318596  1
  Se  Se230  1  0.57699222  0.09200877  0.68987721  1
  Se  Se231  1  0.58875582  0.41271783  0.20029671  1
  Se  Se232  1  0.58076621  0.41508830  0.69307351  1
  Se  Se233  1  0.57973645  0.75620291  0.18368210  1
  Se  Se234  1  0.57613757  0.75076800  0.69266433  1
  Se  Se235  1  0.90382520  0.09661902  0.19369136  1
  Se  Se236  1  0.92081309  0.07952231  0.69539139  1
  Se  Se237  1  0.91208694  0.42244547  0.19300609  1
  Se  Se238  1  0.90722918  0.41680935  0.68570364  1
  Se  Se239  1  0.90676974  0.76172680  0.19068492  1
  Se  Se240  1  0.91459416  0.73855979  0.69885444  1
  Se  Se241  1  0.08297547  0.24517225  0.18832366  1
  Se  Se242  1  0.08654907  0.24495549  0.68945318  1
  Se  Se243  1  0.09125012  0.57498901  0.18713732  1
  Se  Se244  1  0.07819821  0.58319441  0.70781055  1
  Se  Se245  1  0.09045669  0.90121180  0.18895157  1
  Se  Se246  1  0.08763952  0.91431189  0.70453523  1
  Se  Se247  1  0.41529842  0.24481441  0.20291274  1
  Se  Se248  1  0.40405997  0.25312033  0.69368995  1
  Se  Se249  1  0.42603410  0.57643735  0.19751846  1
  Se  Se250  1  0.41118820  0.58446139  0.69665667  1
  Se  Se251  1  0.42179064  0.90769821  0.18723560  1
  Se  Se252  1  0.42421096  0.91871935  0.68716753  1
  Se  Se253  1  0.74498039  0.25137033  0.20017387  1
  Se  Se254  1  0.75003319  0.24612580  0.69424096  1
  Se  Se255  1  0.75948478  0.57447963  0.19275082  1
  Se  Se256  1  0.74320315  0.58141184  0.68880548  1
  Se  Se257  1  0.74376793  0.92459219  0.19440442  1
  Se  Se258  1  0.76280072  0.90426093  0.69499596  1
