# generated using pymatgen
data_In86Cu29Se144
_symmetry_space_group_name_H-M   'P 1'
_cell_length_a   17.57855789
_cell_length_b   17.58245342
_cell_length_c   23.43240924
_cell_angle_alpha   90.00393547
_cell_angle_beta   89.97788746
_cell_angle_gamma   89.99854339
_symmetry_Int_Tables_number   1
_chemical_formula_structural   In86Cu29Se144
_chemical_formula_sum   'In86 Cu29 Se144'
_cell_volume   7242.35200021
_cell_formula_units_Z   1
loop_
 _symmetry_equiv_pos_site_id
 _symmetry_equiv_pos_as_xyz
  1  'x, y, z'
loop_
 _atom_site_type_symbol
 _atom_site_label
 _atom_site_symmetry_multiplicity
 _atom_site_fract_x
 _atom_site_fract_y
 _atom_site_fract_z
 _atom_site_occupancy
  In  In0  1  0.01463489  0.15615353  0.12275686  1
  In  In1  1  0.00424551  0.17219662  0.64004145  1
  In  In2  1  -0.00111880  0.48326746  0.12774801  1
  In  In3  1  0.00934089  0.49564810  0.63576418  1
  In  In4  1  -0.00015549  0.84540827  0.12393737  1
  In  In5  1  0.00072533  0.83012958  0.62470388  1
  In  In6  1  0.32739771  0.16391614  0.12090243  1
  In  In7  1  0.32081613  0.15435741  0.62994769  1
  In  In8  1  0.33208284  0.49656211  0.12523693  1
  In  In9  1  0.33674800  0.51101861  0.60885797  1
  In  In10  1  0.33175306  0.83286812  0.14123018  1
  In  In11  1  0.34205240  0.83618686  0.61178701  1
  In  In12  1  0.65242075  0.17037531  0.12319084  1
  In  In13  1  0.67707566  0.15669679  0.63739651  1
  In  In14  1  0.64447665  0.50348179  0.12435336  1
  In  In15  1  0.65657874  0.50024378  0.63393757  1
  In  In16  1  0.68047107  0.83066051  0.12259207  1
  In  In17  1  0.67191939  0.83587541  0.61188781  1
  In  In18  1  0.16114297  -0.00615486  0.37149884  1
  In  In19  1  0.17651729  0.01677179  0.85749488  1
  In  In20  1  0.17600134  0.33614473  0.36601355  1
  In  In21  1  0.17125599  0.34051725  0.89004796  1
  In  In22  1  0.19036452  0.65123832  0.39725027  1
  In  In23  1  0.15399737  0.66274202  0.87179318  1
  In  In24  1  0.49319339  -0.00793913  0.36649256  1
  In  In25  1  0.50752475  0.01208018  0.86858162  1
  In  In26  1  0.49433325  0.34513444  0.37518892  1
  In  In27  1  0.49665074  0.33068061  0.88250002  1
  In  In28  1  0.47057721  0.68901548  0.40565340  1
  In  In29  1  0.48985997  0.66191682  0.87284784  1
  In  In30  1  0.83090614  -0.01135475  0.36695277  1
  In  In31  1  0.83324490  -0.00687238  0.86802721  1
  In  In32  1  0.83627425  0.32169812  0.37407139  1
  In  In33  1  0.83665848  0.35459247  0.85894856  1
  In  In34  1  0.84099925  0.67613271  0.37949737  1
  In  In35  1  0.85169056  0.66909130  0.86417809  1
  In  In36  1  0.00823284  0.16744242  0.36810276  1
  In  In37  1  0.01774732  0.18088758  0.86042861  1
  In  In38  1  0.01338145  0.49905731  0.37617657  1
  In  In39  1  0.01166350  0.50562167  0.86800334  1
  In  In40  1  -0.00090994  0.84016485  0.38294351  1
  In  In41  1  -0.00763277  0.83333655  0.86281327  1
  In  In42  1  0.32852278  0.16245241  0.36168380  1
  In  In43  1  0.34077798  0.16783028  0.88799684  1
  In  In44  1  0.33430437  0.49987962  0.37108277  1
  In  In45  1  0.33562460  0.48691989  0.89166159  1
  In  In46  1  0.33107311  0.83692826  0.37824575  1
  In  In47  1  0.31971491  0.83805419  0.87121697  1
  In  In48  1  0.68098107  0.15951936  0.37053097  1
  In  In49  1  0.65881247  0.16688080  0.87558055  1
  In  In50  1  0.64314461  0.50286017  0.38200290  1
  In  In51  1  0.66271476  0.49160764  0.86574816  1
  In  In52  1  0.65406109  0.83518951  0.38812091  1
  In  In53  1  0.66969609  0.85350679  0.86789171  1
  In  In54  1  0.16076419  -0.00002980  0.12884910  1
  In  In55  1  0.17716540  -0.00206229  0.63426549  1
  In  In56  1  0.17047815  0.32971894  0.12060539  1
  In  In57  1  0.15553822  0.33463503  0.63043140  1
  In  In58  1  0.18022948  0.67057305  0.12962121  1
  In  In59  1  0.16302918  0.65842528  0.61426222  1
  In  In60  1  0.48997501  0.00858871  0.13311098  1
  In  In61  1  0.51168486  -0.00892560  0.63154787  1
  In  In62  1  0.46555908  0.30986031  0.09493188  1
  In  In63  1  0.49932407  0.34903211  0.62955313  1
  In  In64  1  0.49323320  0.65412196  0.12463200  1
  In  In65  1  0.50062472  0.66217464  0.60626700  1
  In  In66  1  0.84313749  -0.00545495  0.12493698  1
  In  In67  1  0.85325354  -0.03588390  0.65267734  1
  In  In68  1  0.83887994  0.34187291  0.12425021  1
  In  In69  1  0.83759304  0.33676733  0.64631368  1
  In  In70  1  0.81870594  0.66797029  0.12046964  1
  In  In71  1  0.83013939  0.68998338  0.62685782  1
  In  In72  1  0.66588275  0.33044089  0.25018095  1
  In  In73  1  0.33359494  0.33160184  0.75516722  1
  In  In74  1  0.83097227  0.50303831  -0.00917356  1
  In  In75  1  0.83037596  0.50841345  0.50939637  1
  In  In76  1  0.00647968  0.67303607  0.25851189  1
  In  In77  1  0.33083811  0.66266024  0.73702746  1
  In  In78  1  0.50209232  0.83595244  0.00106482  1
  In  In79  1  0.83890490  0.15955401  0.51245817  1
  In  In80  1  0.66903654  0.67119096  0.74210288  1
  In  In81  1  0.50156151  0.16728181  0.49857957  1
  In  In82  1  0.15984594  0.83432992  0.00069927  1
  In  In83  1  0.66027670  0.66900049  0.25504389  1
  In  In84  1  0.83182271  0.16473768  -0.01263761  1
  In  In85  1  0.16243933  0.16640881  0.50493403  1
  Cu  Cu86  1  0.17120900  0.83144884  0.25817407  1
  Cu  Cu87  1  0.00268222  0.34379041  0.50537749  1
  Cu  Cu88  1  0.83169129  0.49200136  0.25104833  1
  Cu  Cu89  1  0.32892229  0.34145750  0.49609586  1
  Cu  Cu90  1  0.16828449  0.49676450  0.25161312  1
  Cu  Cu91  1  0.49666277  0.16925965  0.75669252  1
  Cu  Cu92  1  0.49427911  0.83739993  0.74196404  1
  Cu  Cu93  1  0.49818044  0.16841312  0.24297084  1
  Cu  Cu94  1  0.50222267  0.82971543  0.25973773  1
  Cu  Cu95  1  0.66183034  0.33878377  -0.00590387  1
  Cu  Cu96  1  0.17297304  0.49907256  0.75147817  1
  Cu  Cu97  1  0.33466863  -0.00340694  0.49969533  1
  Cu  Cu98  1  0.16088015  0.83531291  0.74709170  1
  Cu  Cu99  1  0.66606552  0.00409187  -0.00500077  1
  Cu  Cu100  1  0.00282921  -0.00278143  -0.00386727  1
  Cu  Cu101  1  0.33040663  0.65827999  0.00331608  1
  Cu  Cu102  1  0.16831230  0.16627111  0.24292989  1
  Cu  Cu103  1  0.83768912  0.84007215  0.24905970  1
  Cu  Cu104  1  0.82343709  0.16679979  0.75872151  1
  Cu  Cu105  1  0.67170015  0.67783237  -0.00506828  1
  Cu  Cu106  1  0.66648828  -0.00765273  0.50045530  1
  Cu  Cu107  1  0.66419043  0.33120625  0.50868539  1
  Cu  Cu108  1  0.48594593  0.49595646  0.24743133  1
  Cu  Cu109  1  0.00674067  0.32609047  0.00064483  1
  Cu  Cu110  1  -0.00652851  -0.00294975  0.50290611  1
  Cu  Cu111  1  -0.00147752  0.66184953  -0.00710958  1
  Cu  Cu112  1  0.33299537  0.00173487  -0.00033272  1
  Cu  Cu113  1  0.00014828  0.67431402  0.50232016  1
  Cu  Cu114  1  0.84473045  0.16031404  0.24737486  1
  Se  Se115  1  0.09053644  0.07605548  0.04891652  1
  Se  Se116  1  0.07138248  0.07831193  0.56436422  1
  Se  Se117  1  0.08309231  0.41569357  0.05404732  1
  Se  Se118  1  0.08862742  0.42363044  0.55730869  1
  Se  Se119  1  0.07347287  0.73898459  0.06137122  1
  Se  Se120  1  0.08716656  0.75661106  0.55270239  1
  Se  Se121  1  0.41837018  0.08163717  0.05389629  1
  Se  Se122  1  0.41256787  0.07812884  0.56028836  1
  Se  Se123  1  0.44592406  0.44726266  0.06358500  1
  Se  Se124  1  0.41953542  0.41470040  0.55067562  1
  Se  Se125  1  0.40554281  0.74916346  0.05959969  1
  Se  Se126  1  0.40671269  0.73909997  0.54470875  1
  Se  Se127  1  0.74670963  0.08295615  0.05789758  1
  Se  Se128  1  0.74631613  0.06666284  0.56384030  1
  Se  Se129  1  0.73982683  0.41653294  0.05797845  1
  Se  Se130  1  0.75122851  0.40532145  0.56604074  1
  Se  Se131  1  0.75874273  0.75773170  0.04541042  1
  Se  Se132  1  0.74729960  0.74409705  0.54681233  1
  Se  Se133  1  0.25839806  0.25556389  0.05089900  1
  Se  Se134  1  0.25682831  0.25906602  0.56059903  1
  Se  Se135  1  0.24439242  0.58054185  0.05748482  1
  Se  Se136  1  0.25077973  0.58823085  0.54266835  1
  Se  Se137  1  0.25921360  0.91553190  0.06043951  1
  Se  Se138  1  0.24574937  0.92157520  0.55445901  1
  Se  Se139  1  0.58419510  0.24889404  0.04583238  1
  Se  Se140  1  0.58859969  0.24690848  0.56762888  1
  Se  Se141  1  0.58854237  0.59718401  0.05039880  1
  Se  Se142  1  0.59683121  0.57645716  0.55319566  1
  Se  Se143  1  0.59039296  0.92581107  0.06172099  1
  Se  Se144  1  0.57410365  0.91372944  0.54956984  1
  Se  Se145  1  0.91846807  0.24997097  0.05685282  1
  Se  Se146  1  0.92482228  0.26161529  0.56474529  1
  Se  Se147  1  0.92032289  0.58548760  0.05985109  1
  Se  Se148  1  0.92729025  0.59190587  0.56725350  1
  Se  Se149  1  0.91769387  0.91543837  0.04842417  1
  Se  Se150  1  0.91119005  0.91484138  0.55804799  1
  Se  Se151  1  0.07774696  0.25988033  0.44318072  1
  Se  Se152  1  0.08688976  0.24159992  0.94673376  1
  Se  Se153  1  0.07839351  0.58413447  0.45077333  1
  Se  Se154  1  0.08715113  0.57774966  0.94751761  1
  Se  Se155  1  0.08543288  0.92256426  0.45020925  1
  Se  Se156  1  0.08198654  0.92004784  0.93155036  1
  Se  Se157  1  0.40378162  0.25120035  0.43938243  1
  Se  Se158  1  0.40935762  0.26228796  0.95531826  1
  Se  Se159  1  0.43383084  0.55644250  0.44112256  1
  Se  Se160  1  0.41966473  0.58362721  0.94916787  1
  Se  Se161  1  0.42189364  0.91825443  0.44567500  1
  Se  Se162  1  0.41081121  0.92104379  0.93794592  1
  Se  Se163  1  0.74472303  0.25121612  0.44919658  1
  Se  Se164  1  0.74958606  0.26848673  0.93376395  1
  Se  Se165  1  0.74646244  0.58664270  0.43744039  1
  Se  Se166  1  0.74338668  0.59425050  0.93085344  1
  Se  Se167  1  0.75444123  0.91611052  0.44422994  1
  Se  Se168  1  0.75133349  0.92046991  0.94545889  1
  Se  Se169  1  0.25554086  0.08129346  0.44201357  1
  Se  Se170  1  0.24611610  0.07830099  0.94420615  1
  Se  Se171  1  0.24453385  0.41974800  0.44091806  1
  Se  Se172  1  0.25606961  0.41109708  0.96314510  1
  Se  Se173  1  0.24708876  0.76362110  0.45145555  1
  Se  Se174  1  0.25291005  0.74048582  0.94244491  1
  Se  Se175  1  0.59232089  0.07672796  0.43889458  1
  Se  Se176  1  0.57785940  0.08767959  0.94833446  1
  Se  Se177  1  0.58023570  0.40806171  0.45239769  1
  Se  Se178  1  0.58099208  0.42562995  0.94311800  1
  Se  Se179  1  0.59474582  0.73397825  0.45268973  1
  Se  Se180  1  0.58762455  0.75137205  0.93270703  1
  Se  Se181  1  0.92225343  0.08035612  0.43890701  1
  Se  Se182  1  0.92785162  0.07856446  0.93261429  1
  Se  Se183  1  0.91588083  0.41442740  0.44366387  1
  Se  Se184  1  0.92727563  0.40938961  0.94107886  1
  Se  Se185  1  0.91512654  0.75768399  0.45185615  1
  Se  Se186  1  0.92154718  0.75010777  0.94071721  1
  Se  Se187  1  0.25160044  0.25099868  0.29536305  1
  Se  Se188  1  0.24697135  0.24669312  0.81824545  1
  Se  Se189  1  0.24517080  0.58401223  0.30714281  1
  Se  Se190  1  0.25485647  0.57740915  0.81262462  1
  Se  Se191  1  0.25534023  0.92126841  0.30498376  1
  Se  Se192  1  0.25067319  0.91755640  0.79552569  1
  Se  Se193  1  0.57535464  0.24051061  0.31269319  1
  Se  Se194  1  0.57832519  0.25465161  0.80892319  1
  Se  Se195  1  0.56474027  0.57909521  0.30670260  1
  Se  Se196  1  0.57416163  0.58351212  0.80141945  1
  Se  Se197  1  0.59138524  0.91321757  0.30622892  1
  Se  Se198  1  0.57575710  0.91915924  0.79854239  1
  Se  Se199  1  0.92006136  0.24923078  0.30212319  1
  Se  Se200  1  0.91301971  0.25215226  0.80336140  1
  Se  Se201  1  0.90989656  0.57599123  0.30982082  1
  Se  Se202  1  0.91303068  0.56763220  0.80156365  1
  Se  Se203  1  0.92805535  0.91601471  0.30249941  1
  Se  Se204  1  0.91081128  0.91537299  0.79392369  1
  Se  Se205  1  0.08801524  0.08268919  0.30072708  1
  Se  Se206  1  0.05982524  0.06417295  0.80202265  1
  Se  Se207  1  0.08085891  0.41378000  0.30200386  1
  Se  Se208  1  0.09760079  0.41324204  0.80934037  1
  Se  Se209  1  0.09685565  0.75219993  0.32314865  1
  Se  Se210  1  0.08235722  0.74767303  0.80037257  1
  Se  Se211  1  0.41855585  0.08207461  0.29857501  1
  Se  Se212  1  0.40936493  0.08811971  0.80820752  1
  Se  Se213  1  0.40739945  0.40749260  0.30002634  1
  Se  Se214  1  0.42140942  0.42677157  0.81060809  1
  Se  Se215  1  0.41739080  0.74850570  0.31313802  1
  Se  Se216  1  0.41604927  0.75755159  0.80308330  1
  Se  Se217  1  0.75592135  0.07933924  0.29799954  1
  Se  Se218  1  0.74176837  0.08138636  0.80954098  1
  Se  Se219  1  0.74850639  0.42266078  0.31656756  1
  Se  Se220  1  0.74681371  0.42621099  0.79117662  1
  Se  Se221  1  0.75655365  0.75954574  0.30874962  1
  Se  Se222  1  0.75502476  0.75884473  0.80620282  1
  Se  Se223  1  0.25222500  0.07877018  0.19318445  1
  Se  Se224  1  0.23440813  0.09611368  0.70492505  1
  Se  Se225  1  0.24758845  0.41461060  0.19345133  1
  Se  Se226  1  0.25537618  0.42649447  0.68743796  1
  Se  Se227  1  0.25323913  0.74405323  0.20767756  1
  Se  Se228  1  0.24232818  0.75854240  0.68354106  1
  Se  Se229  1  0.58721429  0.08336742  0.19744563  1
  Se  Se230  1  0.57839612  0.08521633  0.70065429  1
  Se  Se231  1  0.56939222  0.41250200  0.19189271  1
  Se  Se232  1  0.58795248  0.40919408  0.70343160  1
  Se  Se233  1  0.57512509  0.75728362  0.18741463  1
  Se  Se234  1  0.57084213  0.75405249  0.68256612  1
  Se  Se235  1  0.92689027  0.07808394  0.19144425  1
  Se  Se236  1  0.90098311  0.09356112  0.69330037  1
  Se  Se237  1  0.91811413  0.40912125  0.20253833  1
  Se  Se238  1  0.93411606  0.41082529  0.70583098  1
  Se  Se239  1  0.91028219  0.74986041  0.19049553  1
  Se  Se240  1  0.91315478  0.76132145  0.69872271  1
  Se  Se241  1  0.08361175  0.25005035  0.19065050  1
  Se  Se242  1  0.09377786  0.24882725  0.70521175  1
  Se  Se243  1  0.08554690  0.57846757  0.19241654  1
  Se  Se244  1  0.09445591  0.58707927  0.69740210  1
  Se  Se245  1  0.08802539  0.90839522  0.19829533  1
  Se  Se246  1  0.07958521  0.91966189  0.69355386  1
  Se  Se247  1  0.41490552  0.24946484  0.18810932  1
  Se  Se248  1  0.42027502  0.24198371  0.68860010  1
  Se  Se249  1  0.40656769  0.58712926  0.19785104  1
  Se  Se250  1  0.42911019  0.57481032  0.68565144  1
  Se  Se251  1  0.42204315  0.91459367  0.20267883  1
  Se  Se252  1  0.40746448  0.91931088  0.69030813  1
  Se  Se253  1  0.76013664  0.24133167  0.18881833  1
  Se  Se254  1  0.74315397  0.25357166  0.70470659  1
  Se  Se255  1  0.75016849  0.57237805  0.19352820  1
  Se  Se256  1  0.76357091  0.57962732  0.68793004  1
  Se  Se257  1  0.75240965  0.91821737  0.19327839  1
  Se  Se258  1  0.72486704  0.92043967  0.69269754  1
