# generated using pymatgen
data_In86Cu29Se144
_symmetry_space_group_name_H-M   'P 1'
_cell_length_a   17.58370030
_cell_length_b   17.58219794
_cell_length_c   23.43720811
_cell_angle_alpha   90.00182624
_cell_angle_beta   89.98237586
_cell_angle_gamma   89.99764959
_symmetry_Int_Tables_number   1
_chemical_formula_structural   In86Cu29Se144
_chemical_formula_sum   'In86 Cu29 Se144'
_cell_volume   7245.84923219
_cell_formula_units_Z   1
loop_
 _symmetry_equiv_pos_site_id
 _symmetry_equiv_pos_as_xyz
  1  'x, y, z'
loop_
 _atom_site_type_symbol
 _atom_site_label
 _atom_site_symmetry_multiplicity
 _atom_site_fract_x
 _atom_site_fract_y
 _atom_site_fract_z
 _atom_site_occupancy
  In  In0  1  -0.01299422  0.16013626  0.12515062  1
  In  In1  1  0.00759513  0.17112106  0.61677371  1
  In  In2  1  -0.00212404  0.50958712  0.12189095  1
  In  In3  1  -0.00213132  0.50255275  0.62232710  1
  In  In4  1  0.01068406  0.84412218  0.11567922  1
  In  In5  1  0.00141533  0.82221835  0.61446887  1
  In  In6  1  0.33609704  0.15446305  0.12163831  1
  In  In7  1  0.33126611  0.18103991  0.62896789  1
  In  In8  1  0.34503801  0.50134441  0.12372554  1
  In  In9  1  0.33612324  0.49740783  0.63141414  1
  In  In10  1  0.32364893  0.82462351  0.12042094  1
  In  In11  1  0.32004896  0.81533568  0.62050079  1
  In  In12  1  0.66934979  0.16570779  0.11937378  1
  In  In13  1  0.67774548  0.16572278  0.62809011  1
  In  In14  1  0.66732206  0.49819186  0.11601573  1
  In  In15  1  0.65915607  0.49465848  0.62374814  1
  In  In16  1  0.67434235  0.83896284  0.11596380  1
  In  In17  1  0.66973838  0.83547708  0.61847815  1
  In  In18  1  0.14492446  0.01685906  0.39908944  1
  In  In19  1  0.15655797  -0.01678984  0.87660343  1
  In  In20  1  0.16516440  0.33954676  0.38908887  1
  In  In21  1  0.17265070  0.33830128  0.85807965  1
  In  In22  1  0.17295196  0.66694044  0.38853434  1
  In  In23  1  0.16856135  0.68289131  0.85925804  1
  In  In24  1  0.48897740  -0.00067111  0.37253390  1
  In  In25  1  0.50176163  -0.00169188  0.88063027  1
  In  In26  1  0.50893665  0.33891573  0.37582249  1
  In  In27  1  0.50454996  0.33254375  0.87065241  1
  In  In28  1  0.48724844  0.67931693  0.38093925  1
  In  In29  1  0.48981906  0.67549034  0.87954889  1
  In  In30  1  0.84412230  -0.00165068  0.38075969  1
  In  In31  1  0.84600990  0.00296553  0.88702581  1
  In  In32  1  0.83721981  0.32956260  0.38741537  1
  In  In33  1  0.83266267  0.33488704  0.87001967  1
  In  In34  1  0.83606356  0.66633013  0.38763195  1
  In  In35  1  0.83570824  0.65752980  0.87304342  1
  In  In36  1  -0.00523356  0.16456521  0.38261249  1
  In  In37  1  -0.01072976  0.16188162  0.87477985  1
  In  In38  1  0.00270609  0.51517717  0.40139389  1
  In  In39  1  -0.00510812  0.49583845  0.86225266  1
  In  In40  1  -0.01459839  0.84794434  0.40107309  1
  In  In41  1  0.00610162  0.82542549  0.88672424  1
  In  In42  1  0.32787824  0.15714347  0.37629674  1
  In  In43  1  0.33964048  0.17705415  0.86847236  1
  In  In44  1  0.32285087  0.51357621  0.38767505  1
  In  In45  1  0.33751072  0.51203727  0.86839448  1
  In  In46  1  0.33619562  0.83374711  0.37909205  1
  In  In47  1  0.33399271  0.82983991  0.87592581  1
  In  In48  1  0.67042929  0.17857669  0.37237075  1
  In  In49  1  0.65960771  0.18103286  0.87919950  1
  In  In50  1  0.66388746  0.49586214  0.38510238  1
  In  In51  1  0.67467099  0.48666715  0.87499894  1
  In  In52  1  0.67086533  0.83050121  0.38020052  1
  In  In53  1  0.66871453  0.83376685  0.87932466  1
  In  In54  1  0.17132492  -0.01513650  0.12718012  1
  In  In55  1  0.15065178  -0.00828569  0.60531696  1
  In  In56  1  0.16542946  0.32980281  0.12522877  1
  In  In57  1  0.16504413  0.33471546  0.62551158  1
  In  In58  1  0.16160917  0.68394658  0.12896496  1
  In  In59  1  0.17211545  0.66379006  0.62745493  1
  In  In60  1  0.50735057  0.00347070  0.11368285  1
  In  In61  1  0.51294829  -0.00378115  0.62390094  1
  In  In62  1  0.50398892  0.33538347  0.11420133  1
  In  In63  1  0.48680212  0.33775807  0.64135924  1
  In  In64  1  0.49273175  0.65998378  0.11881988  1
  In  In65  1  0.48904320  0.65543762  0.62407894  1
  In  In66  1  0.85183507  0.01236077  0.11341660  1
  In  In67  1  0.85075766  0.00287959  0.60744853  1
  In  In68  1  0.82905089  0.32774891  0.11560039  1
  In  In69  1  0.83291898  0.33498814  0.62738649  1
  In  In70  1  0.83669980  0.66613661  0.11711840  1
  In  In71  1  0.84856869  0.67446959  0.60921238  1
  In  In72  1  0.67129964  0.00163052  0.24366349  1
  In  In73  1  0.16966914  0.16292315  -0.00726342  1
  In  In74  1  0.16577283  0.50692038  -0.00934780  1
  In  In75  1  0.49800738  0.16940640  0.49715496  1
  In  In76  1  0.33174118  -0.00634225  0.25192836  1
  In  In77  1  0.66800350  0.65980573  0.74932875  1
  In  In78  1  0.66528340  0.33041686  0.23995406  1
  In  In79  1  0.32962021  0.00182814  0.75002170  1
  In  In80  1  0.33318895  0.33666292  0.24414208  1
  In  In81  1  0.00009514  0.67297802  0.26750196  1
  In  In82  1  0.00011830  0.33551886  0.26543795  1
  In  In83  1  0.66360765  0.66581150  0.24903091  1
  In  In84  1  0.67120491  0.00358276  0.75267122  1
  In  In85  1  0.00315979  -0.00554025  0.74053547  1
  Cu  Cu86  1  0.33714653  -0.00541016  -0.00151637  1
  Cu  Cu87  1  0.83430591  0.49091071  0.25175242  1
  Cu  Cu88  1  0.49821396  0.49772905  0.75176497  1
  Cu  Cu89  1  -0.00765925  0.66626006  -0.00327141  1
  Cu  Cu90  1  0.66368265  0.33278887  0.50477887  1
  Cu  Cu91  1  0.83989627  0.83539219  0.74222092  1
  Cu  Cu92  1  0.15771441  0.16416670  0.26131149  1
  Cu  Cu93  1  0.83282134  0.17460545  0.75197837  1
  Cu  Cu94  1  0.66570178  0.66510676  0.50396358  1
  Cu  Cu95  1  0.67051369  0.33315698  -0.00571213  1
  Cu  Cu96  1  -0.00182434  0.33342275  0.50759834  1
  Cu  Cu97  1  0.34398222  0.66494728  0.50745751  1
  Cu  Cu98  1  0.48832666  0.51058720  0.25116184  1
  Cu  Cu99  1  0.16936835  0.51149744  0.26058644  1
  Cu  Cu100  1  0.49016792  0.82607800  0.74766137  1
  Cu  Cu101  1  0.49686201  0.83151131  0.24935279  1
  Cu  Cu102  1  0.67058142  -0.00112271  -0.00213982  1
  Cu  Cu103  1  0.16553197  0.16500887  0.74254967  1
  Cu  Cu104  1  0.83914550  0.50149625  0.74502471  1
  Cu  Cu105  1  0.66123396  0.66312089  -0.00523536  1
  Cu  Cu106  1  0.16524838  0.83844654  0.25623841  1
  Cu  Cu107  1  0.32955012  0.66879761  -0.00378628  1
  Cu  Cu108  1  0.84692563  0.83369555  0.25315047  1
  Cu  Cu109  1  0.34549920  0.33350590  -0.00631252  1
  Cu  Cu110  1  0.67010999  -0.00349019  0.49850610  1
  Cu  Cu111  1  0.33485488  -0.00290415  0.49969019  1
  Cu  Cu112  1  0.33234692  0.34025624  0.50941211  1
  Cu  Cu113  1  0.16346896  0.49676478  0.74263642  1
  Cu  Cu114  1  -0.00398312  0.33539087  -0.00916358  1
  Se  Se115  1  0.08837573  0.08112416  0.06309900  1
  Se  Se116  1  0.07105065  0.08080279  0.54330572  1
  Se  Se117  1  0.07873548  0.41094092  0.05414566  1
  Se  Se118  1  0.08534312  0.41822872  0.55541765  1
  Se  Se119  1  0.08097675  0.74619011  0.04984746  1
  Se  Se120  1  0.07973170  0.72566933  0.55205432  1
  Se  Se121  1  0.41830622  0.08414962  0.04755756  1
  Se  Se122  1  0.41276580  0.07922342  0.56169846  1
  Se  Se123  1  0.41970767  0.42189241  0.04972551  1
  Se  Se124  1  0.42249461  0.41640011  0.56105687  1
  Se  Se125  1  0.41402270  0.74983632  0.05244059  1
  Se  Se126  1  0.42617775  0.75538652  0.55678873  1
  Se  Se127  1  0.75241908  0.08434542  0.05146027  1
  Se  Se128  1  0.74778437  0.08222718  0.55372292  1
  Se  Se129  1  0.75311120  0.41760481  0.04938326  1
  Se  Se130  1  0.74806045  0.41565525  0.55697461  1
  Se  Se131  1  0.74584130  0.74221433  0.05167231  1
  Se  Se132  1  0.75090046  0.75341390  0.54968956  1
  Se  Se133  1  0.26046141  0.25765737  0.05464943  1
  Se  Se134  1  0.24818908  0.25068717  0.55468389  1
  Se  Se135  1  0.25021284  0.59053858  0.06107220  1
  Se  Se136  1  0.25934535  0.58124962  0.55963798  1
  Se  Se137  1  0.24945714  0.91410103  0.05032465  1
  Se  Se138  1  0.25300183  0.91180951  0.55194755  1
  Se  Se139  1  0.58848031  0.24977400  0.05075398  1
  Se  Se140  1  0.58219021  0.25299577  0.56488173  1
  Se  Se141  1  0.58043277  0.58076625  0.05189576  1
  Se  Se142  1  0.58067056  0.58247972  0.55598634  1
  Se  Se143  1  0.58448520  0.91395800  0.04815699  1
  Se  Se144  1  0.58344761  0.91450033  0.54915852  1
  Se  Se145  1  0.92312490  0.25110753  0.05203301  1
  Se  Se146  1  0.91057171  0.24921816  0.55611199  1
  Se  Se147  1  0.91326716  0.57696845  0.04812375  1
  Se  Se148  1  0.90205840  0.56327763  0.55061585  1
  Se  Se149  1  0.89467743  0.89247459  0.06004516  1
  Se  Se150  1  0.92316542  0.90826212  0.54566742  1
  Se  Se151  1  0.07839194  0.25213747  0.44830655  1
  Se  Se152  1  0.08521375  0.26074405  0.93434468  1
  Se  Se153  1  0.08486250  0.60200789  0.46455837  1
  Se  Se154  1  0.07457163  0.59283504  0.93169735  1
  Se  Se155  1  0.10246063  0.89953123  0.45513101  1
  Se  Se156  1  0.06661509  0.92873763  0.95124792  1
  Se  Se157  1  0.40473427  0.26227572  0.43926789  1
  Se  Se158  1  0.42468193  0.24585597  0.94241653  1
  Se  Se159  1  0.42449837  0.58164566  0.44999340  1
  Se  Se160  1  0.41413857  0.58291561  0.94706179  1
  Se  Se161  1  0.42189272  0.91692482  0.44750696  1
  Se  Se162  1  0.41931511  0.91020936  0.94452947  1
  Se  Se163  1  0.74571802  0.24818404  0.45080941  1
  Se  Se164  1  0.75822786  0.25008093  0.94403253  1
  Se  Se165  1  0.74771506  0.58055850  0.44939275  1
  Se  Se166  1  0.74698622  0.58146158  0.94141822  1
  Se  Se167  1  0.75466271  0.91429470  0.44513231  1
  Se  Se168  1  0.75415051  0.91586943  0.94526432  1
  Se  Se169  1  0.25198713  0.08942295  0.45452155  1
  Se  Se170  1  0.26050297  0.07234089  0.93238138  1
  Se  Se171  1  0.24782778  0.42360637  0.45514320  1
  Se  Se172  1  0.25655558  0.40988769  0.93796796  1
  Se  Se173  1  0.26285591  0.74939759  0.45218232  1
  Se  Se174  1  0.24412406  0.74862847  0.94188248  1
  Se  Se175  1  0.59007607  0.07744668  0.43706205  1
  Se  Se176  1  0.58808603  0.08284805  0.94420138  1
  Se  Se177  1  0.57784020  0.41603573  0.45354602  1
  Se  Se178  1  0.58283916  0.41560699  0.94394139  1
  Se  Se179  1  0.58547579  0.74855080  0.44589752  1
  Se  Se180  1  0.58133944  0.75247410  0.94489430  1
  Se  Se181  1  0.91288312  0.08599058  0.45322927  1
  Se  Se182  1  0.92870695  0.08448358  0.95489666  1
  Se  Se183  1  0.91540964  0.41785099  0.45350803  1
  Se  Se184  1  0.91612205  0.42149380  0.93840476  1
  Se  Se185  1  0.92354919  0.73759132  0.45624007  1
  Se  Se186  1  0.90611865  0.74789704  0.94433222  1
  Se  Se187  1  0.24168716  0.25132509  0.31104465  1
  Se  Se188  1  0.25198891  0.24517490  0.79573000  1
  Se  Se189  1  0.25341843  0.59448051  0.31068770  1
  Se  Se190  1  0.24176420  0.57990190  0.80150875  1
  Se  Se191  1  0.23869799  0.92235736  0.31978470  1
  Se  Se192  1  0.23974582  0.90610232  0.80370913  1
  Se  Se193  1  0.57091004  0.24398348  0.30167689  1
  Se  Se194  1  0.59092404  0.25483357  0.80118859  1
  Se  Se195  1  0.57637679  0.57904357  0.31297983  1
  Se  Se196  1  0.57630434  0.57869269  0.81389000  1
  Se  Se197  1  0.57966220  0.91090209  0.30680818  1
  Se  Se198  1  0.57551749  0.90624133  0.80445087  1
  Se  Se199  1  0.90228265  0.24130808  0.30963057  1
  Se  Se200  1  0.92251529  0.25224074  0.80388769  1
  Se  Se201  1  0.90991263  0.56904578  0.31553670  1
  Se  Se202  1  0.91850231  0.58988692  0.79667276  1
  Se  Se203  1  0.92531345  0.91271066  0.31230766  1
  Se  Se204  1  0.91182218  0.91603957  0.80712278  1
  Se  Se205  1  0.07665133  0.08044184  0.31306015  1
  Se  Se206  1  0.08984655  0.08550853  0.80610844  1
  Se  Se207  1  0.08684050  0.43552149  0.31995764  1
  Se  Se208  1  0.07859660  0.41270118  0.79464545  1
  Se  Se209  1  0.09001709  0.76323319  0.32328475  1
  Se  Se210  1  0.06774655  0.75723665  0.80195213  1
  Se  Se211  1  0.42302087  0.09608000  0.30144701  1
  Se  Se212  1  0.42863080  0.08564944  0.80570524  1
  Se  Se213  1  0.41522142  0.42474527  0.31197696  1
  Se  Se214  1  0.41354534  0.41557254  0.80613649  1
  Se  Se215  1  0.41162261  0.75282619  0.30323737  1
  Se  Se216  1  0.40866395  0.74501827  0.80256763  1
  Se  Se217  1  0.75564789  0.08597125  0.31072263  1
  Se  Se218  1  0.76208178  0.08884325  0.81433954  1
  Se  Se219  1  0.75059488  0.41459546  0.31061472  1
  Se  Se220  1  0.75393598  0.41817230  0.79749269  1
  Se  Se221  1  0.76194751  0.75136548  0.30740991  1
  Se  Se222  1  0.75616475  0.75917184  0.80349317  1
  Se  Se223  1  0.23920494  0.09135310  0.19582723  1
  Se  Se224  1  0.23718358  0.07942988  0.68098272  1
  Se  Se225  1  0.23667474  0.43136532  0.19158265  1
  Se  Se226  1  0.25159686  0.41070614  0.69665861  1
  Se  Se227  1  0.24733760  0.75593262  0.20119347  1
  Se  Se228  1  0.25275680  0.74299994  0.69992901  1
  Se  Se229  1  0.57465352  0.09198399  0.19072556  1
  Se  Se230  1  0.57724368  0.09217813  0.69514567  1
  Se  Se231  1  0.57088647  0.43084361  0.19164939  1
  Se  Se232  1  0.58518896  0.41682882  0.70048795  1
  Se  Se233  1  0.57959151  0.75755314  0.18685399  1
  Se  Se234  1  0.58057332  0.75381114  0.68973329  1
  Se  Se235  1  0.92108738  0.07426342  0.19801399  1
  Se  Se236  1  0.90928997  0.09162275  0.68954604  1
  Se  Se237  1  0.91600691  0.41657821  0.19019752  1
  Se  Se238  1  0.92163337  0.41450383  0.69416789  1
  Se  Se239  1  0.91978078  0.74880075  0.19123904  1
  Se  Se240  1  0.91856914  0.74839966  0.68982646  1
  Se  Se241  1  0.08522891  0.24705365  0.19697085  1
  Se  Se242  1  0.07970720  0.24946365  0.69322263  1
  Se  Se243  1  0.08479393  0.58325996  0.19764506  1
  Se  Se244  1  0.08043944  0.58305505  0.69328964  1
  Se  Se245  1  0.08164538  0.91509166  0.19804209  1
  Se  Se246  1  0.09407125  0.90210185  0.68567459  1
  Se  Se247  1  0.42254126  0.24613396  0.18591562  1
  Se  Se248  1  0.41590598  0.24121722  0.70488371  1
  Se  Se249  1  0.40811712  0.59338135  0.19652092  1
  Se  Se250  1  0.41426892  0.58408505  0.70248764  1
  Se  Se251  1  0.42312423  0.91354209  0.18533222  1
  Se  Se252  1  0.41871985  0.91261928  0.68706274  1
  Se  Se253  1  0.76326729  0.23724184  0.19257253  1
  Se  Se254  1  0.74759480  0.25472651  0.69883305  1
  Se  Se255  1  0.75788313  0.57396042  0.19175337  1
  Se  Se256  1  0.75894202  0.58117267  0.68403086  1
  Se  Se257  1  0.76296561  0.90679188  0.19171174  1
  Se  Se258  1  0.76091704  0.91982558  0.68589354  1
