# generated using pymatgen
data_In86Cu29Se144
_symmetry_space_group_name_H-M   'P 1'
_cell_length_a   17.58859374
_cell_length_b   17.59483305
_cell_length_c   23.45781252
_cell_angle_alpha   90.01469877
_cell_angle_beta   90.00671672
_cell_angle_gamma   89.98223177
_symmetry_Int_Tables_number   1
_chemical_formula_structural   In86Cu29Se144
_chemical_formula_sum   'In86 Cu29 Se144'
_cell_volume   7259.45037631
_cell_formula_units_Z   1
loop_
 _symmetry_equiv_pos_site_id
 _symmetry_equiv_pos_as_xyz
  1  'x, y, z'
loop_
 _atom_site_type_symbol
 _atom_site_label
 _atom_site_symmetry_multiplicity
 _atom_site_fract_x
 _atom_site_fract_y
 _atom_site_fract_z
 _atom_site_occupancy
  In  In0  1  0.00674947  0.16473341  0.11982102  1
  In  In1  1  0.00988778  0.16516370  0.62881606  1
  In  In2  1  0.01305049  0.49919678  0.12366812  1
  In  In3  1  -0.00256306  0.50017987  0.63523321  1
  In  In4  1  -0.01722928  0.82860621  0.13100440  1
  In  In5  1  -0.00981243  0.82338687  0.61734976  1
  In  In6  1  0.35167252  0.18148092  0.11387863  1
  In  In7  1  0.33637236  0.15709011  0.62445003  1
  In  In8  1  0.33266322  0.49915644  0.12618286  1
  In  In9  1  0.35128331  0.49843760  0.62446021  1
  In  In10  1  0.32255112  0.83055474  0.13261493  1
  In  In11  1  0.33355570  0.83274568  0.62147580  1
  In  In12  1  0.65422366  0.17507582  0.13872818  1
  In  In13  1  0.65237611  0.17072101  0.63215794  1
  In  In14  1  0.64534801  0.49235569  0.11643587  1
  In  In15  1  0.65266636  0.51246847  0.63185613  1
  In  In16  1  0.67048872  0.84362325  0.13177857  1
  In  In17  1  0.66280224  0.83076137  0.61775854  1
  In  In18  1  0.16725390  0.00085167  0.38441396  1
  In  In19  1  0.18341552  0.00201006  0.86998437  1
  In  In20  1  0.17074259  0.31569476  0.37604356  1
  In  In21  1  0.16584657  0.34239162  0.88288302  1
  In  In22  1  0.17603897  0.66943040  0.37399518  1
  In  In23  1  0.16871014  0.66320364  0.86822101  1
  In  In24  1  0.52225208  -0.00726853  0.39046841  1
  In  In25  1  0.51953022  0.02828854  0.84192205  1
  In  In26  1  0.50037275  0.33210112  0.37463608  1
  In  In27  1  0.51985676  0.32164828  0.88882176  1
  In  In28  1  0.49577701  0.67853738  0.38785206  1
  In  In29  1  0.49043190  0.65779867  0.86566064  1
  In  In30  1  0.80573536  -0.00565015  0.37191215  1
  In  In31  1  0.81696878  0.01196191  0.87510039  1
  In  In32  1  0.82810956  0.34151215  0.36910526  1
  In  In33  1  0.82724051  0.32567394  0.86597440  1
  In  In34  1  0.83852597  0.66634207  0.37710545  1
  In  In35  1  0.83544773  0.66978112  0.86753925  1
  In  In36  1  0.00844677  0.17135554  0.38017860  1
  In  In37  1  -0.00143713  0.18145075  0.87349338  1
  In  In38  1  -0.01383039  0.50457070  0.37226989  1
  In  In39  1  0.00865485  0.50839606  0.87159449  1
  In  In40  1  0.00724695  0.82823222  0.38679420  1
  In  In41  1  0.00930642  0.83005129  0.86785527  1
  In  In42  1  0.33415861  0.16960576  0.37673013  1
  In  In43  1  0.34539662  0.16063050  0.87694395  1
  In  In44  1  0.34448524  0.50528408  0.36902596  1
  In  In45  1  0.33343014  0.50283826  0.87917208  1
  In  In46  1  0.34054753  0.82803275  0.38306093  1
  In  In47  1  0.34219181  0.83851357  0.86039353  1
  In  In48  1  0.65619345  0.15283826  0.36283720  1
  In  In49  1  0.65672242  0.16667846  0.86289621  1
  In  In50  1  0.66786349  0.49308859  0.37512691  1
  In  In51  1  0.65360539  0.49019497  0.86684467  1
  In  In52  1  0.66309867  0.83810885  0.39328919  1
  In  In53  1  0.66764315  0.83699196  0.86624046  1
  In  In54  1  0.16111169  0.00486051  0.12216031  1
  In  In55  1  0.17808160  0.00711081  0.61841669  1
  In  In56  1  0.17748736  0.34474502  0.11476641  1
  In  In57  1  0.17243863  0.31595750  0.62909007  1
  In  In58  1  0.17437578  0.65649818  0.13575121  1
  In  In59  1  0.15769707  0.67099472  0.63004688  1
  In  In60  1  0.50046746  0.01288209  0.12509422  1
  In  In61  1  0.50627701  -0.00666662  0.62177428  1
  In  In62  1  0.49854790  0.33022702  0.12914483  1
  In  In63  1  0.50174897  0.33844716  0.62286047  1
  In  In64  1  0.49657588  0.65193929  0.12566064  1
  In  In65  1  0.50146278  0.66337162  0.62129308  1
  In  In66  1  0.81836445  0.00795324  0.13709344  1
  In  In67  1  0.81989921  -0.01868424  0.61500091  1
  In  In68  1  0.80856496  0.32784042  0.12756575  1
  In  In69  1  0.82790508  0.33748724  0.63296393  1
  In  In70  1  0.83601353  0.68391211  0.13280119  1
  In  In71  1  0.82201320  0.68093590  0.63402057  1
  In  In72  1  -0.00173803  0.34062190  0.24913596  1
  In  In73  1  0.82753918  0.50376249  0.49800633  1
  In  In74  1  0.16948597  0.83533546  0.00094189  1
  In  In75  1  0.33691194  0.00081280  0.25161665  1
  In  In76  1  0.82648032  0.16960435  0.00549663  1
  In  In77  1  0.33967645  0.33175210  0.75180232  1
  In  In78  1  0.82935326  0.16218957  0.49491779  1
  In  In79  1  0.17020486  0.49590787  0.49653519  1
  In  In80  1  -0.00209271  -0.00329874  0.25166719  1
  In  In81  1  -0.00748762  -0.00759724  0.74290484  1
  In  In82  1  0.49653934  0.83716496  -0.00438258  1
  In  In83  1  0.83361339  0.49973203  0.00428191  1
  In  In84  1  0.66537920  0.66597273  0.25321557  1
  In  In85  1  0.83198741  0.83932112  -0.00135944  1
  Cu  Cu86  1  0.16713639  0.50013564  0.24780553  1
  Cu  Cu87  1  0.82615590  0.16387911  0.74651555  1
  Cu  Cu88  1  0.34059818  0.01083741  -0.00724503  1
  Cu  Cu89  1  0.34082783  0.32567682  0.50271857  1
  Cu  Cu90  1  0.82557563  0.50445341  0.24773335  1
  Cu  Cu91  1  0.50265339  0.50067972  0.74956805  1
  Cu  Cu92  1  0.66411221  0.66220764  -0.00462989  1
  Cu  Cu93  1  0.16265797  0.16915113  0.75110866  1
  Cu  Cu94  1  0.33139499  0.66676205  0.50015161  1
  Cu  Cu95  1  0.65771391  0.33368422  0.49944173  1
  Cu  Cu96  1  0.50222217  0.16525646  0.25154191  1
  Cu  Cu97  1  0.33697798  0.33620695  0.00055929  1
  Cu  Cu98  1  0.16379442  0.82296241  0.25659433  1
  Cu  Cu99  1  0.82949053  0.83101907  0.74276293  1
  Cu  Cu100  1  0.16961681  0.49813299  0.75490570  1
  Cu  Cu101  1  0.00642236  0.32587876  0.50520281  1
  Cu  Cu102  1  0.50230325  0.83220430  0.26357200  1
  Cu  Cu103  1  0.16824735  0.82845334  0.74446579  1
  Cu  Cu104  1  0.32992069  0.66400214  0.00020516  1
  Cu  Cu105  1  0.49584973  0.49526596  0.24924343  1
  Cu  Cu106  1  0.00261862  0.00618567  0.00269341  1
  Cu  Cu107  1  0.00178601  0.33881430  -0.00278404  1
  Cu  Cu108  1  0.17625123  0.17077940  0.24653485  1
  Cu  Cu109  1  0.33721004  0.00227574  0.50042842  1
  Cu  Cu110  1  0.00388430  0.00037945  0.50343916  1
  Cu  Cu111  1  0.83775306  0.49943900  0.75272912  1
  Cu  Cu112  1  -0.00227054  0.66987105  0.50448356  1
  Cu  Cu113  1  0.01214103  0.66533542  -0.00079428  1
  Cu  Cu114  1  0.49913566  0.82747822  0.73816313  1
  Se  Se115  1  0.09129243  0.09001691  0.04843890  1
  Se  Se116  1  0.08474871  0.08704550  0.55452386  1
  Se  Se117  1  0.08664795  0.42288674  0.04804058  1
  Se  Se118  1  0.08167045  0.41183494  0.56336372  1
  Se  Se119  1  0.08071858  0.74919229  0.06471762  1
  Se  Se120  1  0.08816135  0.75087502  0.55270608  1
  Se  Se121  1  0.42637109  0.08795259  0.04843979  1
  Se  Se122  1  0.42241837  0.08191125  0.55451140  1
  Se  Se123  1  0.41765557  0.41627780  0.05960934  1
  Se  Se124  1  0.42095441  0.41712929  0.54944256  1
  Se  Se125  1  0.40758382  0.74753008  0.06027348  1
  Se  Se126  1  0.41583743  0.74743073  0.55407530  1
  Se  Se127  1  0.73601975  0.07963195  0.06228380  1
  Se  Se128  1  0.73844201  0.08304917  0.55977777  1
  Se  Se129  1  0.73447609  0.40536300  0.04957493  1
  Se  Se130  1  0.74107005  0.41257062  0.55927061  1
  Se  Se131  1  0.73952750  0.74476196  0.05669774  1
  Se  Se132  1  0.75999632  0.75535893  0.55400268  1
  Se  Se133  1  0.25073396  0.24927195  0.05028446  1
  Se  Se134  1  0.25507442  0.24513456  0.55575573  1
  Se  Se135  1  0.24806605  0.58409483  0.05720954  1
  Se  Se136  1  0.25386200  0.58439634  0.56141368  1
  Se  Se137  1  0.26462433  0.92946626  0.05645079  1
  Se  Se138  1  0.25185274  0.91677519  0.55082912  1
  Se  Se139  1  0.58066555  0.24548602  0.06159525  1
  Se  Se140  1  0.57958173  0.24907287  0.55480754  1
  Se  Se141  1  0.57573456  0.58452755  0.04734631  1
  Se  Se142  1  0.57873328  0.57612877  0.55180033  1
  Se  Se143  1  0.58759378  0.92196678  0.05909628  1
  Se  Se144  1  0.56969781  0.90065380  0.54868257  1
  Se  Se145  1  0.92068554  0.26519555  0.06139257  1
  Se  Se146  1  0.91667634  0.25211158  0.56130491  1
  Se  Se147  1  0.92291438  0.59661023  0.06074700  1
  Se  Se148  1  0.91883065  0.58682379  0.56283240  1
  Se  Se149  1  0.91924834  0.93161800  0.06221785  1
  Se  Se150  1  0.91696415  0.91465363  0.54945198  1
  Se  Se151  1  0.09151728  0.24458865  0.45321921  1
  Se  Se152  1  0.08310101  0.25056902  0.94685377  1
  Se  Se153  1  0.07289617  0.58628370  0.44267650  1
  Se  Se154  1  0.09269511  0.58414630  0.94395897  1
  Se  Se155  1  0.08917931  0.91544188  0.45244944  1
  Se  Se156  1  0.07805788  0.92591460  0.93971934  1
  Se  Se157  1  0.42301022  0.24532128  0.44535239  1
  Se  Se158  1  0.41718646  0.25010617  0.94706640  1
  Se  Se159  1  0.41386097  0.58207723  0.44732895  1
  Se  Se160  1  0.41853571  0.58698227  0.94675735  1
  Se  Se161  1  0.41950164  0.91770882  0.44751217  1
  Se  Se162  1  0.41506439  0.92767799  0.93217069  1
  Se  Se163  1  0.74392203  0.26082309  0.43921196  1
  Se  Se164  1  0.74048810  0.25266196  0.93918975  1
  Se  Se165  1  0.73602878  0.59506512  0.44255944  1
  Se  Se166  1  0.74923439  0.58661604  0.93746889  1
  Se  Se167  1  0.75044745  0.92323670  0.45657599  1
  Se  Se168  1  0.73430329  0.92685557  0.94541654  1
  Se  Se169  1  0.25333925  0.08638645  0.44675270  1
  Se  Se170  1  0.24805921  0.08879365  0.94407880  1
  Se  Se171  1  0.26138321  0.40508989  0.43949696  1
  Se  Se172  1  0.25261671  0.42140245  0.94985540  1
  Se  Se173  1  0.24742703  0.75124585  0.44886546  1
  Se  Se174  1  0.25945568  0.75048337  0.93786244  1
  Se  Se175  1  0.59307916  0.09369414  0.45013005  1
  Se  Se176  1  0.58051826  0.08129274  0.93269594  1
  Se  Se177  1  0.57959349  0.41967758  0.44438439  1
  Se  Se178  1  0.57921241  0.42945738  0.94891729  1
  Se  Se179  1  0.57570314  0.75695740  0.45800377  1
  Se  Se180  1  0.58659331  0.74559204  0.93612938  1
  Se  Se181  1  0.92427059  0.07340556  0.43727282  1
  Se  Se182  1  0.91975339  0.08140921  0.94124156  1
  Se  Se183  1  0.92468871  0.40565156  0.44568917  1
  Se  Se184  1  0.91717910  0.41218993  0.93649827  1
  Se  Se185  1  0.91253318  0.74935651  0.45000541  1
  Se  Se186  1  0.92841247  0.74638097  0.94313677  1
  Se  Se187  1  0.25829900  0.25142567  0.30158088  1
  Se  Se188  1  0.24410387  0.24740288  0.81238730  1
  Se  Se189  1  0.24967507  0.58082370  0.30517257  1
  Se  Se190  1  0.25729075  0.58147111  0.80345752  1
  Se  Se191  1  0.24397569  0.91158728  0.31074301  1
  Se  Se192  1  0.24851148  0.91562259  0.79615354  1
  Se  Se193  1  0.58447109  0.25357615  0.30254175  1
  Se  Se194  1  0.58048004  0.26108201  0.80063973  1
  Se  Se195  1  0.57197931  0.57911104  0.31178022  1
  Se  Se196  1  0.58779668  0.58825833  0.79981768  1
  Se  Se197  1  0.59024585  0.91293973  0.31219009  1
  Se  Se198  1  0.58089953  0.90941657  0.79507555  1
  Se  Se199  1  0.91652800  0.24521376  0.30987724  1
  Se  Se200  1  0.91329306  0.24536016  0.79788614  1
  Se  Se201  1  0.91043809  0.58515081  0.30022147  1
  Se  Se202  1  0.92130913  0.58597644  0.80333565  1
  Se  Se203  1  0.91555891  0.91311320  0.31912012  1
  Se  Se204  1  0.90223744  0.91076513  0.81174258  1
  Se  Se205  1  0.09567242  0.09049585  0.30571859  1
  Se  Se206  1  0.08062776  0.08297518  0.80688180  1
  Se  Se207  1  0.09136501  0.42294740  0.31481609  1
  Se  Se208  1  0.08546859  0.41465534  0.80678904  1
  Se  Se209  1  0.07900615  0.74499978  0.31142123  1
  Se  Se210  1  0.08523564  0.74619334  0.79893076  1
  Se  Se211  1  0.42925092  0.08115682  0.31481561  1
  Se  Se212  1  0.39571543  0.07488092  0.79635415  1
  Se  Se213  1  0.41448262  0.40990794  0.30284035  1
  Se  Se214  1  0.42673410  0.42009523  0.81342151  1
  Se  Se215  1  0.41550304  0.74658427  0.30871470  1
  Se  Se216  1  0.41641356  0.74604569  0.79560218  1
  Se  Se217  1  0.76201268  0.09424606  0.30019330  1
  Se  Se218  1  0.74200568  0.07934905  0.79645935  1
  Se  Se219  1  0.74453643  0.41807677  0.29824746  1
  Se  Se220  1  0.74926715  0.41731877  0.80213426  1
  Se  Se221  1  0.74784814  0.75559603  0.31619995  1
  Se  Se222  1  0.74858087  0.74887747  0.80089609  1
  Se  Se223  1  0.25286031  0.08939367  0.18540846  1
  Se  Se224  1  0.24547738  0.08721481  0.69671695  1
  Se  Se225  1  0.24890419  0.41499633  0.19553007  1
  Se  Se226  1  0.24773598  0.42183137  0.68976156  1
  Se  Se227  1  0.25261467  0.74444738  0.20410347  1
  Se  Se228  1  0.25393818  0.74653058  0.69230118  1
  Se  Se229  1  0.58400036  0.07423308  0.20315633  1
  Se  Se230  1  0.58228488  0.07397033  0.69622227  1
  Se  Se231  1  0.58368569  0.41518616  0.19767766  1
  Se  Se232  1  0.58345075  0.41392373  0.69688609  1
  Se  Se233  1  0.57305285  0.75544143  0.19127841  1
  Se  Se234  1  0.58708254  0.74392408  0.69015810  1
  Se  Se235  1  0.91663689  0.09671087  0.19324989  1
  Se  Se236  1  0.90299547  0.08337574  0.68299154  1
  Se  Se237  1  0.90474552  0.42492265  0.18473586  1
  Se  Se238  1  0.91859250  0.41166012  0.70088831  1
  Se  Se239  1  0.91996516  0.74763105  0.20784468  1
  Se  Se240  1  0.92293103  0.74926998  0.69888102  1
  Se  Se241  1  0.09119948  0.25065884  0.18949416  1
  Se  Se242  1  0.07848173  0.25421855  0.70146640  1
  Se  Se243  1  0.07786238  0.58285580  0.20051168  1
  Se  Se244  1  0.08562596  0.58093087  0.69987989  1
  Se  Se245  1  0.09282791  0.90593204  0.19171348  1
  Se  Se246  1  0.08824515  0.91015698  0.68330565  1
  Se  Se247  1  0.41550069  0.24712063  0.19962785  1
  Se  Se248  1  0.42577718  0.24171312  0.69174365  1
  Se  Se249  1  0.41255099  0.58255381  0.19896691  1
  Se  Se250  1  0.41923987  0.58464877  0.69690771  1
  Se  Se251  1  0.42698761  0.90680052  0.19335023  1
  Se  Se252  1  0.41518454  0.91572326  0.69073397  1
  Se  Se253  1  0.75605009  0.23939723  0.20340809  1
  Se  Se254  1  0.74359827  0.25151950  0.69668413  1
  Se  Se255  1  0.74644558  0.57846290  0.18185430  1
  Se  Se256  1  0.75476807  0.57866878  0.69545734  1
  Se  Se257  1  0.77187157  0.89734681  0.19889852  1
  Se  Se258  1  0.74289616  0.91316984  0.69311580  1
