# generated using pymatgen
data_In86Cu29Se144
_symmetry_space_group_name_H-M   'P 1'
_cell_length_a   17.59066854
_cell_length_b   17.58686870
_cell_length_c   23.44973955
_cell_angle_alpha   89.99929254
_cell_angle_beta   90.00154734
_cell_angle_gamma   90.00400951
_symmetry_Int_Tables_number   1
_chemical_formula_structural   In86Cu29Se144
_chemical_formula_sum   'In86 Cu29 Se144'
_cell_volume   7254.52344704
_cell_formula_units_Z   1
loop_
 _symmetry_equiv_pos_site_id
 _symmetry_equiv_pos_as_xyz
  1  'x, y, z'
loop_
 _atom_site_type_symbol
 _atom_site_label
 _atom_site_symmetry_multiplicity
 _atom_site_fract_x
 _atom_site_fract_y
 _atom_site_fract_z
 _atom_site_occupancy
  In  In0  1  0.00634407  0.16228437  0.12916595  1
  In  In1  1  -0.00365680  0.16928881  0.62116743  1
  In  In2  1  -0.00312045  0.49904587  0.12875222  1
  In  In3  1  -0.00745650  0.48159780  0.62497443  1
  In  In4  1  -0.02110589  0.83899620  0.13964594  1
  In  In5  1  -0.00133419  0.84720793  0.62900862  1
  In  In6  1  0.33403123  0.19447270  0.12787160  1
  In  In7  1  0.33809855  0.17314383  0.61193633  1
  In  In8  1  0.31200868  0.46467101  0.09659188  1
  In  In9  1  0.33910779  0.51196994  0.61557926  1
  In  In10  1  0.33400650  0.82879728  0.12558139  1
  In  In11  1  0.32962928  0.82607510  0.62921935  1
  In  In12  1  0.66661932  0.16644584  0.13799800  1
  In  In13  1  0.68832101  0.19244886  0.60304787  1
  In  In14  1  0.65614874  0.48203631  0.10833077  1
  In  In15  1  0.67242559  0.50765870  0.63316767  1
  In  In16  1  0.69513948  0.82831098  0.13037399  1
  In  In17  1  0.67176213  0.81608890  0.62066831  1
  In  In18  1  0.16018088  0.01456428  0.37352341  1
  In  In19  1  0.16150568  0.01845070  0.87544726  1
  In  In20  1  0.16364542  0.33385715  0.37068155  1
  In  In21  1  0.15789815  0.34359356  0.88897036  1
  In  In22  1  0.16195057  0.66812847  0.38413295  1
  In  In23  1  0.16644674  0.64898083  0.87487623  1
  In  In24  1  0.51960103  0.00215048  0.37460451  1
  In  In25  1  0.49759949  0.01075746  0.87231273  1
  In  In26  1  0.49866331  0.33845045  0.38131680  1
  In  In27  1  0.51589520  0.34022585  0.87218123  1
  In  In28  1  0.50324089  0.64532507  0.39071278  1
  In  In29  1  0.49423021  0.64945582  0.86461074  1
  In  In30  1  0.83869089  0.00377270  0.37200150  1
  In  In31  1  0.83337127  -0.01592370  0.87519251  1
  In  In32  1  0.81995286  0.32283274  0.37045582  1
  In  In33  1  0.83459178  0.33629749  0.86933953  1
  In  In34  1  0.84523727  0.66624549  0.37529017  1
  In  In35  1  0.83040213  0.67172944  0.87869905  1
  In  In36  1  -0.00166919  0.16742203  0.36999392  1
  In  In37  1  0.00540245  0.17803765  0.86828959  1
  In  In38  1  0.00684786  0.50446115  0.36772396  1
  In  In39  1  0.00775201  0.49323122  0.88088463  1
  In  In40  1  -0.01366823  0.82499939  0.36348172  1
  In  In41  1  -0.01640568  0.83130010  0.87379042  1
  In  In42  1  0.31757002  0.18204493  0.38323486  1
  In  In43  1  0.32749424  0.16332585  0.87545127  1
  In  In44  1  0.34337561  0.49195061  0.38691096  1
  In  In45  1  0.32292732  0.49904664  0.87985064  1
  In  In46  1  0.33129358  0.81869120  0.37559555  1
  In  In47  1  0.35063466  0.83112642  0.87039513  1
  In  In48  1  0.67191626  0.17567705  0.38319442  1
  In  In49  1  0.66080053  0.17511134  0.87178566  1
  In  In50  1  0.66573588  0.48725258  0.38106400  1
  In  In51  1  0.66682687  0.49622592  0.87571082  1
  In  In52  1  0.67267725  0.84501341  0.37289809  1
  In  In53  1  0.68719023  0.82912749  0.87841666  1
  In  In54  1  0.14594153  0.00066742  0.12712380  1
  In  In55  1  0.15198471  0.00485067  0.62469660  1
  In  In56  1  0.16397391  0.33044676  0.12491765  1
  In  In57  1  0.15927943  0.32997260  0.61595129  1
  In  In58  1  0.16582073  0.64872843  0.12446398  1
  In  In59  1  0.17871274  0.66279541  0.62840721  1
  In  In60  1  0.50662948  0.01632127  0.13257591  1
  In  In61  1  0.49675833  0.00862349  0.62220376  1
  In  In62  1  0.49922677  0.33319389  0.13095220  1
  In  In63  1  0.52179383  0.35763551  0.60220361  1
  In  In64  1  0.51325648  0.64561646  0.12891468  1
  In  In65  1  0.51382720  0.65371716  0.62868369  1
  In  In66  1  0.83919720  -0.00429901  0.13512700  1
  In  In67  1  0.83830893  0.00718520  0.61723129  1
  In  In68  1  0.82352700  0.34332373  0.13242044  1
  In  In69  1  0.84303093  0.33514557  0.63265875  1
  In  In70  1  0.83608530  0.66435884  0.12101946  1
  In  In71  1  0.79846574  0.65961941  0.61477365  1
  In  In72  1  0.16229052  0.83715601  0.49941719  1
  In  In73  1  0.33560630  0.65509583  0.25304554  1
  In  In74  1  0.15579854  0.82441743  -0.00019007  1
  In  In75  1  -0.00533950  0.66709433  0.74772161  1
  In  In76  1  0.50590396  0.83287016  0.00130089  1
  In  In77  1  0.33020766  0.33269443  0.74755391  1
  In  In78  1  0.67511964  0.66457342  0.25341104  1
  In  In79  1  0.66585001  0.00016421  0.75413632  1
  In  In80  1  0.83550799  0.17332556  -0.00502240  1
  In  In81  1  0.83413845  0.49757692  0.49878875  1
  In  In82  1  0.49928491  0.17467792  0.00152017  1
  In  In83  1  0.32798533  -0.00481842  0.74389722  1
  In  In84  1  0.50580862  0.83476773  0.50139265  1
  In  In85  1  0.33139337  0.00843600  0.25717211  1
  Cu  Cu86  1  -0.00210951  0.32878941  0.49579669  1
  Cu  Cu87  1  0.16791315  0.49359262  0.75328958  1
  Cu  Cu88  1  -0.00108104  0.66870551  0.50045121  1
  Cu  Cu89  1  -0.00459006  0.66148780  0.00185172  1
  Cu  Cu90  1  0.32066395  0.00660930  0.00186061  1
  Cu  Cu91  1  -0.00191577  0.00647266  0.49785640  1
  Cu  Cu92  1  0.33333175  0.00075737  0.49509621  1
  Cu  Cu93  1  0.33466502  0.66433459  -0.00263039  1
  Cu  Cu94  1  0.83447508  0.83294835  0.74841743  1
  Cu  Cu95  1  0.00098744  0.33487653  0.00279710  1
  Cu  Cu96  1  0.15547265  0.17159728  0.74607183  1
  Cu  Cu97  1  0.16711305  0.83016713  0.74790951  1
  Cu  Cu98  1  0.15790718  0.82910777  0.25265335  1
  Cu  Cu99  1  0.83150321  0.16652326  0.25338605  1
  Cu  Cu100  1  0.83179141  0.49902653  0.25007785  1
  Cu  Cu101  1  0.50896660  0.81811961  0.75050363  1
  Cu  Cu102  1  0.50394973  0.17722744  0.73990070  1
  Cu  Cu103  1  0.67547914  -0.00312806  0.00644456  1
  Cu  Cu104  1  0.16935004  0.49379793  0.24729612  1
  Cu  Cu105  1  0.66801884  0.66147862  -0.00071702  1
  Cu  Cu106  1  0.50688411  0.17301293  0.25905971  1
  Cu  Cu107  1  0.49618036  0.48984956  0.24846112  1
  Cu  Cu108  1  0.16664859  0.17225728  0.24946505  1
  Cu  Cu109  1  -0.00515675  0.00181154  0.00696583  1
  Cu  Cu110  1  0.50137971  0.83182863  0.25342476  1
  Cu  Cu111  1  0.83692763  0.16600678  0.74198342  1
  Cu  Cu112  1  0.67660794  0.00504178  0.49546629  1
  Cu  Cu113  1  0.50372776  0.50253251  0.74480849  1
  Cu  Cu114  1  0.32581880  0.33146010  0.49702199  1
  Se  Se115  1  0.08307023  0.08670669  0.05118929  1
  Se  Se116  1  0.08238082  0.08823991  0.55097406  1
  Se  Se117  1  0.08125995  0.41832249  0.05837064  1
  Se  Se118  1  0.07738677  0.41688641  0.54845346  1
  Se  Se119  1  0.07097874  0.74256974  0.06757789  1
  Se  Se120  1  0.07801516  0.74702039  0.56418583  1
  Se  Se121  1  0.40815569  0.08158019  0.06204966  1
  Se  Se122  1  0.41859210  0.08245818  0.54751301  1
  Se  Se123  1  0.43801397  0.42006656  0.05414649  1
  Se  Se124  1  0.40840210  0.41696301  0.54859214  1
  Se  Se125  1  0.41672341  0.73724274  0.06095082  1
  Se  Se126  1  0.41986551  0.74615578  0.56379240  1
  Se  Se127  1  0.75049846  0.08505250  0.06268129  1
  Se  Se128  1  0.76118029  0.08974133  0.54581837  1
  Se  Se129  1  0.76232977  0.41772064  0.05002275  1
  Se  Se130  1  0.74752910  0.41088723  0.56194620  1
  Se  Se131  1  0.75171797  0.74605789  0.05018120  1
  Se  Se132  1  0.76080728  0.76365327  0.54346574  1
  Se  Se133  1  0.25401902  0.26016467  0.05230202  1
  Se  Se134  1  0.24250875  0.24612152  0.54851717  1
  Se  Se135  1  0.24808866  0.58233210  0.04827665  1
  Se  Se136  1  0.23629934  0.57715877  0.55237860  1
  Se  Se137  1  0.24910758  0.91716617  0.05938296  1
  Se  Se138  1  0.25665351  0.92528977  0.56105726  1
  Se  Se139  1  0.59559806  0.25286845  0.06199289  1
  Se  Se140  1  0.56160676  0.23012086  0.55764948  1
  Se  Se141  1  0.57883761  0.57866978  0.04519454  1
  Se  Se142  1  0.59895299  0.58469032  0.55628490  1
  Se  Se143  1  0.58924014  0.92190175  0.06696481  1
  Se  Se144  1  0.59668487  0.92795850  0.56059135  1
  Se  Se145  1  0.92099195  0.25507725  0.06343704  1
  Se  Se146  1  0.91248677  0.25431554  0.55434984  1
  Se  Se147  1  0.91417338  0.57587591  0.05414802  1
  Se  Se148  1  0.91999381  0.58997208  0.56326099  1
  Se  Se149  1  0.91354568  0.91698509  0.05878544  1
  Se  Se150  1  0.92090741  0.91808558  0.55207293  1
  Se  Se151  1  0.08271785  0.24848605  0.44012871  1
  Se  Se152  1  0.07921655  0.24609029  0.94944076  1
  Se  Se153  1  0.07760623  0.58205799  0.44801065  1
  Se  Se154  1  0.08448884  0.58196476  0.95088867  1
  Se  Se155  1  0.07391544  0.92223232  0.43666759  1
  Se  Se156  1  0.07371160  0.92382338  0.93993560  1
  Se  Se157  1  0.41599493  0.24955600  0.44799331  1
  Se  Se158  1  0.41367839  0.25762196  0.93448049  1
  Se  Se159  1  0.40015399  0.59384129  0.45562279  1
  Se  Se160  1  0.41554980  0.58169012  0.94235756  1
  Se  Se161  1  0.41200856  0.91974482  0.43604054  1
  Se  Se162  1  0.41010794  0.93077454  0.94560815  1
  Se  Se163  1  0.74400674  0.26495426  0.45325382  1
  Se  Se164  1  0.73737507  0.25993686  0.94347940  1
  Se  Se165  1  0.74591545  0.59066108  0.43891510  1
  Se  Se166  1  0.75145041  0.58153324  0.94362431  1
  Se  Se167  1  0.75755839  0.91913892  0.44386637  1
  Se  Se168  1  0.75686470  0.91265173  0.95352681  1
  Se  Se169  1  0.24511564  0.08327222  0.44685948  1
  Se  Se170  1  0.24251730  0.09231036  0.94918357  1
  Se  Se171  1  0.24222227  0.41502560  0.44410708  1
  Se  Se172  1  0.25797032  0.40893549  0.95182529  1
  Se  Se173  1  0.26003181  0.74022773  0.45395643  1
  Se  Se174  1  0.25862384  0.74880846  0.93770194  1
  Se  Se175  1  0.58567256  0.08637372  0.44908772  1
  Se  Se176  1  0.59417832  0.07509068  0.94564954  1
  Se  Se177  1  0.56750994  0.43294311  0.45075217  1
  Se  Se178  1  0.57747369  0.42404884  0.94813023  1
  Se  Se179  1  0.59464424  0.74725437  0.43966562  1
  Se  Se180  1  0.58791067  0.74308290  0.93624873  1
  Se  Se181  1  0.91673348  0.08943570  0.44328044  1
  Se  Se182  1  0.92221726  0.07756989  0.93754992  1
  Se  Se183  1  0.92160325  0.41150747  0.43422874  1
  Se  Se184  1  0.91775635  0.40958983  0.94336264  1
  Se  Se185  1  0.91883801  0.75330913  0.44686052  1
  Se  Se186  1  0.91627026  0.74994736  0.94987055  1
  Se  Se187  1  0.25215263  0.25424356  0.30077809  1
  Se  Se188  1  0.23759753  0.24686856  0.80902029  1
  Se  Se189  1  0.24269592  0.57319788  0.31470141  1
  Se  Se190  1  0.25264532  0.57966496  0.80201846  1
  Se  Se191  1  0.24190862  0.90753022  0.31158272  1
  Se  Se192  1  0.24382234  0.91117502  0.81347468  1
  Se  Se193  1  0.58624462  0.25719970  0.31361336  1
  Se  Se194  1  0.58637437  0.25477554  0.79750551  1
  Se  Se195  1  0.57471716  0.57541696  0.30647587  1
  Se  Se196  1  0.59156978  0.58140900  0.79995404  1
  Se  Se197  1  0.58702192  0.91745625  0.29997459  1
  Se  Se198  1  0.57625788  0.90651780  0.81465312  1
  Se  Se199  1  0.91495179  0.25320611  0.30306906  1
  Se  Se200  1  0.91488891  0.25014433  0.80051094  1
  Se  Se201  1  0.91577824  0.58296270  0.30129432  1
  Se  Se202  1  0.91649097  0.57893006  0.81540959  1
  Se  Se203  1  0.92297764  0.92613879  0.30121440  1
  Se  Se204  1  0.91802445  0.91798651  0.79848513  1
  Se  Se205  1  0.08190803  0.08548897  0.29766429  1
  Se  Se206  1  0.07748419  0.08271380  0.79957422  1
  Se  Se207  1  0.08160708  0.41449095  0.29940607  1
  Se  Se208  1  0.08524092  0.41140299  0.80710062  1
  Se  Se209  1  0.08371884  0.74072613  0.30774370  1
  Se  Se210  1  0.08867543  0.75340792  0.81260426  1
  Se  Se211  1  0.42184174  0.09353405  0.31885381  1
  Se  Se212  1  0.42088859  0.09622325  0.79774570  1
  Se  Se213  1  0.41255778  0.41492879  0.30803991  1
  Se  Se214  1  0.42115920  0.42378744  0.80585486  1
  Se  Se215  1  0.43181989  0.74444013  0.31242669  1
  Se  Se216  1  0.41593212  0.74153319  0.79907990  1
  Se  Se217  1  0.74721373  0.08961670  0.31086436  1
  Se  Se218  1  0.76149200  0.09088316  0.81128210  1
  Se  Se219  1  0.74626522  0.41903919  0.30427183  1
  Se  Se220  1  0.73025380  0.39748226  0.80771916  1
  Se  Se221  1  0.76378965  0.75995554  0.30705919  1
  Se  Se222  1  0.75291102  0.74796318  0.80113453  1
  Se  Se223  1  0.24580729  0.08863470  0.18702943  1
  Se  Se224  1  0.24481622  0.09550523  0.68858460  1
  Se  Se225  1  0.25367698  0.41537324  0.19074054  1
  Se  Se226  1  0.24488761  0.42234694  0.68452833  1
  Se  Se227  1  0.24351805  0.75194853  0.19450910  1
  Se  Se228  1  0.25344630  0.74545689  0.70202144  1
  Se  Se229  1  0.58665429  0.08358992  0.20904930  1
  Se  Se230  1  0.58682091  0.09044606  0.68783661  1
  Se  Se231  1  0.58888401  0.41692793  0.19481388  1
  Se  Se232  1  0.58322804  0.41587307  0.69199986  1
  Se  Se233  1  0.58086110  0.75346232  0.18995679  1
  Se  Se234  1  0.59564065  0.74146211  0.69663340  1
  Se  Se235  1  0.91789265  0.08751150  0.19867478  1
  Se  Se236  1  0.91908293  0.08048196  0.69190848  1
  Se  Se237  1  0.91763210  0.41476504  0.19986061  1
  Se  Se238  1  0.91393964  0.42194115  0.70448739  1
  Se  Se239  1  0.90644550  0.74037550  0.19929738  1
  Se  Se240  1  0.90607579  0.75134899  0.68346914  1
  Se  Se241  1  0.08080045  0.25339711  0.19712864  1
  Se  Se242  1  0.07764265  0.25576404  0.69052342  1
  Se  Se243  1  0.08334039  0.58045699  0.19937479  1
  Se  Se244  1  0.08723203  0.57410399  0.69205562  1
  Se  Se245  1  0.07782243  0.91559100  0.20030924  1
  Se  Se246  1  0.08600508  0.91928256  0.70041864  1
  Se  Se247  1  0.42129809  0.25305255  0.20470480  1
  Se  Se248  1  0.42297830  0.25637732  0.68118837  1
  Se  Se249  1  0.41364225  0.56560221  0.18671914  1
  Se  Se250  1  0.41536807  0.58382712  0.69398043  1
  Se  Se251  1  0.41983952  0.91307796  0.19457720  1
  Se  Se252  1  0.43142747  0.90506972  0.69288996  1
  Se  Se253  1  0.74919915  0.25371048  0.20185859  1
  Se  Se254  1  0.74939718  0.24912794  0.69363147  1
  Se  Se255  1  0.74810847  0.57103277  0.18586673  1
  Se  Se256  1  0.77060725  0.57409450  0.69943627  1
  Se  Se257  1  0.73652194  0.93220767  0.19909926  1
  Se  Se258  1  0.75263950  0.91438650  0.68841414  1
