# generated using pymatgen
data_In86Cu29Se144
_symmetry_space_group_name_H-M   'P 1'
_cell_length_a   17.73696235
_cell_length_b   17.73726678
_cell_length_c   23.60444703
_cell_angle_alpha   89.95909222
_cell_angle_beta   90.02197290
_cell_angle_gamma   89.96164036
_symmetry_Int_Tables_number   1
_chemical_formula_structural   In86Cu29Se144
_chemical_formula_sum   'In86 Cu29 Se144'
_cell_volume   7426.07845174
_cell_formula_units_Z   1
loop_
 _symmetry_equiv_pos_site_id
 _symmetry_equiv_pos_as_xyz
  1  'x, y, z'
loop_
 _atom_site_type_symbol
 _atom_site_label
 _atom_site_symmetry_multiplicity
 _atom_site_fract_x
 _atom_site_fract_y
 _atom_site_fract_z
 _atom_site_occupancy
  In  In0  1  0.00071978  0.16421341  0.13535124  1
  In  In1  1  -0.00592801  0.16836803  0.62169706  1
  In  In2  1  -0.01616123  0.49873595  0.12848212  1
  In  In3  1  -0.02594027  0.50183842  0.62885112  1
  In  In4  1  -0.01211230  0.84292801  0.12509077  1
  In  In5  1  0.00683915  0.84004440  0.61662681  1
  In  In6  1  0.33680872  0.16319155  0.13162800  1
  In  In7  1  0.33128430  0.17817808  0.62198460  1
  In  In8  1  0.33486154  0.49223178  0.12878187  1
  In  In9  1  0.35233153  0.50313047  0.62368797  1
  In  In10  1  0.34779282  0.82719227  0.12795592  1
  In  In11  1  0.32718183  0.83047668  0.62604999  1
  In  In12  1  0.66899220  0.17836349  0.12500822  1
  In  In13  1  0.66542123  0.15235346  0.61936076  1
  In  In14  1  0.66476323  0.49982134  0.12299758  1
  In  In15  1  0.68379331  0.53794125  0.58806504  1
  In  In16  1  0.66352421  0.81926228  0.12157571  1
  In  In17  1  0.63799802  0.78835081  0.57860176  1
  In  In18  1  0.16963618  0.00041587  0.37696933  1
  In  In19  1  0.16492234  0.00927599  0.87072442  1
  In  In20  1  0.15559872  0.32407671  0.36914574  1
  In  In21  1  0.16327082  0.33927353  0.87325139  1
  In  In22  1  0.17333675  0.68001501  0.38008204  1
  In  In23  1  0.17794884  0.66301019  0.87047256  1
  In  In24  1  0.48365690  -0.00207704  0.37262810  1
  In  In25  1  0.57116748  -0.04763724  0.93819991  1
  In  In26  1  0.50951818  0.34013258  0.36415351  1
  In  In27  1  0.51304688  0.32425895  0.88482966  1
  In  In28  1  0.51501252  0.66361023  0.38573977  1
  In  In29  1  0.50189149  0.67160621  0.88048748  1
  In  In30  1  0.84835154  -0.01161365  0.37783588  1
  In  In31  1  0.82845741  -0.01281530  0.87038119  1
  In  In32  1  0.83075946  0.33280621  0.37565714  1
  In  In33  1  0.84246683  0.33853786  0.87383653  1
  In  In34  1  0.81928008  0.67240145  0.38529618  1
  In  In35  1  0.82733489  0.67010018  0.88346407  1
  In  In36  1  0.00129362  0.16658706  0.37812702  1
  In  In37  1  -0.00260290  0.16738696  0.86420054  1
  In  In38  1  -0.00772317  0.48744641  0.37209154  1
  In  In39  1  0.00585903  0.49417368  0.87401709  1
  In  In40  1  -0.00012683  0.83913665  0.37560264  1
  In  In41  1  -0.01855957  0.83348072  0.86900168  1
  In  In42  1  0.32262870  0.15507451  0.36944731  1
  In  In43  1  0.33954727  0.16968467  0.87590838  1
  In  In44  1  0.35133250  0.50086550  0.37215873  1
  In  In45  1  0.34281137  0.51652086  0.87001458  1
  In  In46  1  0.33094048  0.84058409  0.38481597  1
  In  In47  1  0.35802628  0.83909411  0.88009725  1
  In  In48  1  0.66698562  0.17924605  0.37011707  1
  In  In49  1  0.66581349  0.15277854  0.88369878  1
  In  In50  1  0.66817918  0.50202921  0.37808064  1
  In  In51  1  0.65830236  0.51486843  0.88843055  1
  In  In52  1  0.67043514  0.82033673  0.38404797  1
  In  In53  1  0.67608189  0.81601152  0.86935636  1
  In  In54  1  0.15978698  -0.00244984  0.13468666  1
  In  In55  1  0.15542965  -0.00360308  0.61827621  1
  In  In56  1  0.16766958  0.33122840  0.13813252  1
  In  In57  1  0.16129987  0.31976310  0.61739795  1
  In  In58  1  0.16156131  0.68154956  0.12647153  1
  In  In59  1  0.16474786  0.67982666  0.62347604  1
  In  In60  1  0.48991148  -0.00847932  0.12494431  1
  In  In61  1  0.50801972  -0.02075195  0.62886031  1
  In  In62  1  0.50169680  0.33742599  0.12514814  1
  In  In63  1  0.50081768  0.34429041  0.62561384  1
  In  In64  1  0.51569173  0.67328653  0.11043069  1
  In  In65  1  0.49787658  0.66317420  0.63309286  1
  In  In66  1  0.83077150  0.00516574  0.12478636  1
  In  In67  1  0.83331642  0.00118567  0.62092698  1
  In  In68  1  0.82429964  0.33747145  0.13569992  1
  In  In69  1  0.83731445  0.34551404  0.61639043  1
  In  In70  1  0.81414065  0.64184858  0.10257249  1
  In  In71  1  0.82682686  0.66715417  0.61095805  1
  In  In72  1  0.16558766  0.49737850  0.49530659  1
  In  In73  1  0.49607528  0.16065720  0.49524628  1
  In  In74  1  0.67514676  0.34150213  0.74807562  1
  In  In75  1  0.16122796  0.83745341  0.00637146  1
  In  In76  1  0.66913525  -0.01820543  0.75492788  1
  In  In77  1  0.33134297  0.33752302  0.74948501  1
  In  In78  1  0.16494368  0.50496611  0.00011351  1
  In  In79  1  0.34129604  0.66647872  0.25130895  1
  In  In80  1  0.00192003  0.66532736  0.75043664  1
  In  In81  1  -0.00651318  0.66948184  0.25035433  1
  In  In82  1  0.82991786  0.16780380  0.00729855  1
  In  In83  1  0.33451572  0.00184167  0.75138837  1
  In  In84  1  0.17015524  0.16904784  0.01388477  1
  In  In85  1  0.66424620  -0.00004218  0.25132564  1
  Cu  Cu86  1  0.16173589  0.16700754  0.25499859  1
  Cu  Cu87  1  0.83145165  0.82684347  0.25554945  1
  Cu  Cu88  1  0.67414009  0.00001667  0.49552424  1
  Cu  Cu89  1  0.49820859  0.17190560  0.24870375  1
  Cu  Cu90  1  0.50064743  0.16018933  0.75781095  1
  Cu  Cu91  1  -0.00912376  -0.00335767  -0.00374802  1
  Cu  Cu92  1  0.82505431  0.49936145  0.24925459  1
  Cu  Cu93  1  0.00208760  0.33268890  0.00015610  1
  Cu  Cu94  1  0.32997380  0.32601638  0.49365406  1
  Cu  Cu95  1  0.66093156  0.33255609  0.49184664  1
  Cu  Cu96  1  0.33632834  0.66914753  -0.00050084  1
  Cu  Cu97  1  0.50863755  0.50032532  0.24867784  1
  Cu  Cu98  1  0.16837436  0.83776346  0.74441022  1
  Cu  Cu99  1  0.33737410  0.66805777  0.50217586  1
  Cu  Cu100  1  -0.00574593  0.33431326  0.49669288  1
  Cu  Cu101  1  0.34365131  0.34563186  0.00088143  1
  Cu  Cu102  1  0.50502539  0.50305224  0.75392789  1
  Cu  Cu103  1  0.83555042  0.83203493  0.74424473  1
  Cu  Cu104  1  0.15596962  0.16619968  0.74343725  1
  Cu  Cu105  1  0.00053575  0.66932130  0.49985871  1
  Cu  Cu106  1  0.00355557  0.00588793  0.49709547  1
  Cu  Cu107  1  0.16074448  0.49002527  0.74694337  1
  Cu  Cu108  1  0.66861472  0.33932274  0.00481798  1
  Cu  Cu109  1  0.84207105  0.16384312  0.25441987  1
  Cu  Cu110  1  0.33252624  0.00112240  0.50026119  1
  Cu  Cu111  1  0.50171428  0.82994178  0.24846594  1
  Cu  Cu112  1  0.83436783  0.16810021  0.74385477  1
  Cu  Cu113  1  0.16646704  0.50190101  0.25206708  1
  Cu  Cu114  1  0.33861600  0.00250968  0.00522380  1
  Se  Se115  1  0.07091007  0.07328166  0.05835332  1
  Se  Se116  1  0.08199611  0.08965035  0.55364273  1
  Se  Se117  1  0.08333093  0.40921212  0.06183669  1
  Se  Se118  1  0.07313818  0.41562536  0.55823407  1
  Se  Se119  1  0.06646165  0.74470720  0.05606629  1
  Se  Se120  1  0.08598553  0.75193743  0.54904758  1
  Se  Se121  1  0.41749312  0.08717882  0.05943331  1
  Se  Se122  1  0.41415344  0.07475894  0.56557351  1
  Se  Se123  1  0.42274259  0.42646729  0.05653922  1
  Se  Se124  1  0.40886263  0.40514120  0.55297476  1
  Se  Se125  1  0.41944290  0.75367814  0.05114969  1
  Se  Se126  1  0.41394707  0.74687586  0.56310014  1
  Se  Se127  1  0.73338854  0.07577366  0.05629974  1
  Se  Se128  1  0.75273364  0.08409253  0.54924461  1
  Se  Se129  1  0.75549458  0.41508587  0.05893251  1
  Se  Se130  1  0.74183812  0.41294454  0.54886314  1
  Se  Se131  1  0.76355514  0.76157739  0.05512142  1
  Se  Se132  1  0.77730638  0.77845642  0.55109668  1
  Se  Se133  1  0.26165566  0.26739047  0.06119276  1
  Se  Se134  1  0.24793635  0.24569081  0.54744563  1
  Se  Se135  1  0.25472868  0.59502486  0.06258332  1
  Se  Se136  1  0.25381022  0.58539398  0.55910632  1
  Se  Se137  1  0.25671258  0.92434052  0.06402182  1
  Se  Se138  1  0.25180378  0.91963330  0.55829588  1
  Se  Se139  1  0.58504604  0.25492473  0.05565461  1
  Se  Se140  1  0.58364165  0.25319193  0.55656789  1
  Se  Se141  1  0.59544184  0.58496603  0.04971021  1
  Se  Se142  1  0.54519366  0.55845377  0.56315418  1
  Se  Se143  1  0.58587750  0.91905049  0.06131090  1
  Se  Se144  1  0.58634305  0.92232816  0.54798954  1
  Se  Se145  1  0.92481285  0.25541449  0.06376297  1
  Se  Se146  1  0.91265999  0.25244588  0.55262341  1
  Se  Se147  1  0.92809489  0.58083520  0.05096994  1
  Se  Se148  1  0.91777562  0.58379912  0.54860407  1
  Se  Se149  1  0.90738486  0.92176475  0.05335156  1
  Se  Se150  1  0.92179800  0.92397442  0.55240673  1
  Se  Se151  1  0.08174498  0.25280419  0.44718226  1
  Se  Se152  1  0.08166021  0.24970388  0.94311095  1
  Se  Se153  1  0.07628748  0.58918152  0.43578381  1
  Se  Se154  1  0.07989394  0.59563176  0.93886743  1
  Se  Se155  1  0.08381492  0.91868017  0.44446191  1
  Se  Se156  1  0.07769124  0.92418894  0.93798206  1
  Se  Se157  1  0.41415833  0.25226206  0.43234345  1
  Se  Se158  1  0.41302712  0.25381316  0.94622103  1
  Se  Se159  1  0.41634293  0.58648449  0.44555498  1
  Se  Se160  1  0.41770813  0.58417065  0.94792770  1
  Se  Se161  1  0.41984683  0.91895113  0.45169864  1
  Se  Se162  1  0.42332098  0.91969025  0.95539926  1
  Se  Se163  1  0.74755143  0.24895792  0.44479254  1
  Se  Se164  1  0.74618174  0.25812519  0.94210861  1
  Se  Se165  1  0.73718722  0.58900535  0.45128907  1
  Se  Se166  1  0.76112517  0.57588147  0.95078645  1
  Se  Se167  1  0.75294306  0.91498388  0.44144355  1
  Se  Se168  1  0.72949925  0.92657774  0.93581278  1
  Se  Se169  1  0.24981776  0.08428142  0.44846851  1
  Se  Se170  1  0.25412249  0.07968714  0.94687179  1
  Se  Se171  1  0.25633058  0.41162609  0.43371272  1
  Se  Se172  1  0.25807828  0.41680433  0.93894049  1
  Se  Se173  1  0.25306593  0.75293932  0.45305832  1
  Se  Se174  1  0.25276415  0.75061285  0.94373312  1
  Se  Se175  1  0.58997903  0.07617375  0.43403510  1
  Se  Se176  1  0.56103850  0.09909065  0.94391536  1
  Se  Se177  1  0.57812829  0.41685366  0.44178580  1
  Se  Se178  1  0.58267705  0.41711952  0.95047500  1
  Se  Se179  1  0.58408951  0.75197094  0.45758166  1
  Se  Se180  1  0.59034759  0.75091706  0.94445283  1
  Se  Se181  1  0.91557607  0.08386328  0.44446881  1
  Se  Se182  1  0.91623561  0.08348989  0.93782183  1
  Se  Se183  1  0.91042088  0.41827856  0.44617123  1
  Se  Se184  1  0.92399910  0.41563035  0.94525191  1
  Se  Se185  1  0.92058066  0.74957250  0.44080142  1
  Se  Se186  1  0.91082782  0.76025071  0.94414075  1
  Se  Se187  1  0.24858024  0.24930842  0.30453263  1
  Se  Se188  1  0.24011614  0.24086591  0.80565713  1
  Se  Se189  1  0.24517548  0.58014184  0.31193738  1
  Se  Se190  1  0.24399124  0.57238091  0.79983448  1
  Se  Se191  1  0.26138443  0.92297207  0.31273832  1
  Se  Se192  1  0.24629055  0.90920983  0.81322219  1
  Se  Se193  1  0.58665569  0.25228781  0.29693553  1
  Se  Se194  1  0.58834994  0.24247207  0.80768168  1
  Se  Se195  1  0.58301705  0.58323538  0.30852810  1
  Se  Se196  1  0.58263887  0.58628210  0.81058109  1
  Se  Se197  1  0.57783703  0.90868216  0.31207534  1
  Se  Se198  1  0.57491349  0.91535940  0.82422073  1
  Se  Se199  1  0.91770625  0.24994146  0.30996897  1
  Se  Se200  1  0.91132774  0.25084176  0.80159542  1
  Se  Se201  1  0.90409576  0.57989957  0.31108891  1
  Se  Se202  1  0.91481177  0.58065110  0.81205486  1
  Se  Se203  1  0.91853681  0.91188129  0.30011070  1
  Se  Se204  1  0.91470731  0.92081148  0.79585965  1
  Se  Se205  1  0.08317086  0.08291920  0.31011743  1
  Se  Se206  1  0.07993002  0.08102052  0.79970084  1
  Se  Se207  1  0.08252601  0.41847843  0.30338301  1
  Se  Se208  1  0.07930322  0.40953495  0.80099070  1
  Se  Se209  1  0.09014916  0.75528217  0.30659871  1
  Se  Se210  1  0.09089198  0.75944516  0.80945384  1
  Se  Se211  1  0.41721149  0.08666868  0.30103782  1
  Se  Se212  1  0.42460391  0.07997482  0.81646325  1
  Se  Se213  1  0.42007066  0.41873271  0.29767404  1
  Se  Se214  1  0.42887887  0.41512867  0.81170455  1
  Se  Se215  1  0.42591251  0.75352968  0.31585643  1
  Se  Se216  1  0.40168513  0.73505977  0.81378794  1
  Se  Se217  1  0.75757590  0.08447782  0.31178427  1
  Se  Se218  1  0.75476130  0.08963705  0.80520163  1
  Se  Se219  1  0.74769928  0.41761778  0.30856619  1
  Se  Se220  1  0.74928494  0.42786431  0.81793248  1
  Se  Se221  1  0.74576112  0.74670811  0.30677277  1
  Se  Se222  1  0.76159903  0.74307670  0.79976026  1
  Se  Se223  1  0.24171310  0.08883128  0.19492625  1
  Se  Se224  1  0.24584545  0.09080951  0.68852238  1
  Se  Se225  1  0.25122702  0.41964862  0.20027802  1
  Se  Se226  1  0.24361161  0.41898683  0.68259226  1
  Se  Se227  1  0.24731859  0.75840172  0.19642727  1
  Se  Se228  1  0.24817750  0.74825547  0.69766012  1
  Se  Se229  1  0.57749442  0.08964541  0.18962272  1
  Se  Se230  1  0.57833779  0.08204034  0.69569283  1
  Se  Se231  1  0.58813741  0.41560799  0.19415693  1
  Se  Se232  1  0.58321614  0.42827735  0.69126575  1
  Se  Se233  1  0.58066614  0.74597850  0.19429141  1
  Se  Se234  1  0.59125958  0.75786208  0.67900944  1
  Se  Se235  1  0.91502693  0.07798163  0.19681982  1
  Se  Se236  1  0.91406440  0.08358672  0.69081133  1
  Se  Se237  1  0.91347792  0.41618440  0.20193932  1
  Se  Se238  1  0.90477800  0.41500819  0.69777085  1
  Se  Se239  1  0.90273111  0.74953870  0.18728103  1
  Se  Se240  1  0.91953400  0.75375709  0.68556538  1
  Se  Se241  1  0.07906325  0.25088027  0.20154400  1
  Se  Se242  1  0.07730187  0.25242548  0.69145261  1
  Se  Se243  1  0.08833983  0.57912091  0.19047900  1
  Se  Se244  1  0.08760858  0.57503920  0.68508969  1
  Se  Se245  1  0.08391234  0.90299355  0.19335470  1
  Se  Se246  1  0.08256025  0.91720679  0.69329885  1
  Se  Se247  1  0.41714131  0.25455165  0.19352379  1
  Se  Se248  1  0.42750317  0.24345261  0.69557259  1
  Se  Se249  1  0.42891066  0.58177300  0.18776792  1
  Se  Se250  1  0.41389106  0.58087182  0.70360429  1
  Se  Se251  1  0.41550819  0.91466543  0.20083799  1
  Se  Se252  1  0.42214112  0.90358275  0.69911856  1
  Se  Se253  1  0.75422942  0.24165334  0.20069031  1
  Se  Se254  1  0.74979690  0.24222462  0.68425954  1
  Se  Se255  1  0.75028228  0.58303749  0.19096218  1
  Se  Se256  1  0.74996171  0.58275339  0.67889754  1
  Se  Se257  1  0.75297869  0.90934715  0.19346034  1
  Se  Se258  1  0.75282561  0.90779885  0.68506928  1
