# generated using pymatgen
data_In86Cu29Se144
_symmetry_space_group_name_H-M   'P 1'
_cell_length_a   17.58446873
_cell_length_b   17.58693699
_cell_length_c   23.44484505
_cell_angle_alpha   89.99123904
_cell_angle_beta   89.98821331
_cell_angle_gamma   89.99422877
_symmetry_Int_Tables_number   1
_chemical_formula_structural   In86Cu29Se144
_chemical_formula_sum   'In86 Cu29 Se144'
_cell_volume   7250.48084733
_cell_formula_units_Z   1
loop_
 _symmetry_equiv_pos_site_id
 _symmetry_equiv_pos_as_xyz
  1  'x, y, z'
loop_
 _atom_site_type_symbol
 _atom_site_label
 _atom_site_symmetry_multiplicity
 _atom_site_fract_x
 _atom_site_fract_y
 _atom_site_fract_z
 _atom_site_occupancy
  In  In0  1  -0.00944039  0.15304765  0.12852651  1
  In  In1  1  0.01316823  0.17251357  0.62050642  1
  In  In2  1  -0.00270297  0.50832189  0.12205236  1
  In  In3  1  0.01370924  0.48888435  0.62911456  1
  In  In4  1  -0.00228356  0.84315171  0.12599975  1
  In  In5  1  -0.00344333  0.82392833  0.62382520  1
  In  In6  1  0.33188789  0.16418073  0.12932010  1
  In  In7  1  0.34283305  0.17113788  0.61353292  1
  In  In8  1  0.32809449  0.49983112  0.13882229  1
  In  In9  1  0.32804101  0.49972025  0.62013029  1
  In  In10  1  0.34043866  0.83375203  0.13273019  1
  In  In11  1  0.32120633  0.82708720  0.61671010  1
  In  In12  1  0.65593576  0.18345718  0.13845576  1
  In  In13  1  0.66955256  0.17839281  0.62343590  1
  In  In14  1  0.66525553  0.47356276  0.11810090  1
  In  In15  1  0.64958685  0.49413425  0.62246534  1
  In  In16  1  0.67251607  0.83961121  0.12242086  1
  In  In17  1  0.67156990  0.82456040  0.61791742  1
  In  In18  1  0.16742864  0.00258301  0.36911729  1
  In  In19  1  0.18020544  0.00314309  0.88058901  1
  In  In20  1  0.17672640  0.32285457  0.37582045  1
  In  In21  1  0.16601863  0.33077107  0.87178200  1
  In  In22  1  0.20637916  0.64169746  0.41054059  1
  In  In23  1  0.16475548  0.66679312  0.86276392  1
  In  In24  1  0.50526071  0.01501980  0.36745640  1
  In  In25  1  0.49815033  -0.00042151  0.88896369  1
  In  In26  1  0.49480564  0.33298164  0.37445595  1
  In  In27  1  0.49445960  0.33013982  0.87267882  1
  In  In28  1  0.47676921  0.66496524  0.37951811  1
  In  In29  1  0.49951691  0.67147167  0.87747931  1
  In  In30  1  0.82536640  -0.00649625  0.36224044  1
  In  In31  1  0.82083939  0.00046663  0.88218553  1
  In  In32  1  0.82122871  0.33067791  0.36789484  1
  In  In33  1  0.84097454  0.34288067  0.86957457  1
  In  In34  1  0.84862643  0.67353275  0.37644256  1
  In  In35  1  0.83736980  0.65935717  0.88022345  1
  In  In36  1  0.02065250  0.16323284  0.36909508  1
  In  In37  1  0.00061272  0.18367131  0.87697401  1
  In  In38  1  0.00886663  0.51253925  0.37709504  1
  In  In39  1  0.00039258  0.49746713  0.86723052  1
  In  In40  1  0.00462632  0.83705757  0.37719362  1
  In  In41  1  0.00326604  0.81942459  0.87372181  1
  In  In42  1  0.32651468  0.17539272  0.36847561  1
  In  In43  1  0.32805397  0.17248622  0.88584517  1
  In  In44  1  0.33346313  0.49791695  0.37545368  1
  In  In45  1  0.33580638  0.49930685  0.86710390  1
  In  In46  1  0.31970681  0.82093236  0.37032516  1
  In  In47  1  0.34067444  0.82823226  0.87817245  1
  In  In48  1  0.65145879  0.14802510  0.35991545  1
  In  In49  1  0.65282113  0.17079876  0.88024236  1
  In  In50  1  0.66166290  0.48193645  0.37194359  1
  In  In51  1  0.67539171  0.49681104  0.87612395  1
  In  In52  1  0.66512274  0.86021687  0.37917393  1
  In  In53  1  0.66334750  0.83341820  0.88787086  1
  In  In54  1  0.15271396  0.01640503  0.14591107  1
  In  In55  1  0.17079938  0.00697181  0.61070261  1
  In  In56  1  0.18727318  0.32675117  0.13499133  1
  In  In57  1  0.16952159  0.33269780  0.62167191  1
  In  In58  1  0.17281807  0.66919269  0.13030505  1
  In  In59  1  0.17238994  0.65858156  0.62204659  1
  In  In60  1  0.49823038  0.00265434  0.13020001  1
  In  In61  1  0.48683773  0.00135194  0.61751161  1
  In  In62  1  0.50692398  0.32448162  0.12872564  1
  In  In63  1  0.49192972  0.32965338  0.62594413  1
  In  In64  1  0.47916957  0.67179365  0.12257495  1
  In  In65  1  0.49940225  0.64853141  0.61945203  1
  In  In66  1  0.83942426  -0.00237765  0.13572421  1
  In  In67  1  0.84050368  -0.00344720  0.61869104  1
  In  In68  1  0.80814332  0.32882460  0.11700654  1
  In  In69  1  0.83216331  0.33992129  0.63184616  1
  In  In70  1  0.83208852  0.66345809  0.11377608  1
  In  In71  1  0.83145905  0.68099388  0.62243019  1
  In  In72  1  0.83884297  0.50284495  0.49969468  1
  In  In73  1  0.83119986  0.16250126  0.00359556  1
  In  In74  1  0.83155107  0.16105881  0.49199451  1
  In  In75  1  0.66487592  0.65754106  0.75295777  1
  In  In76  1  0.00259215  0.33390960  0.25324308  1
  In  In77  1  0.66249000  0.00327689  0.75535534  1
  In  In78  1  0.66338806  0.66888478  0.24858910  1
  In  In79  1  0.33234588  0.00134719  0.74897087  1
  In  In80  1  0.16928337  0.49731085  0.00802312  1
  In  In81  1  -0.00029112  0.00391446  0.74600358  1
  In  In82  1  0.50353711  0.83814295  0.49381817  1
  In  In83  1  0.01040085  0.67017211  0.25093591  1
  In  In84  1  0.50235273  0.50108561  -0.00228686  1
  In  In85  1  0.17131977  0.83729129  0.00545234  1
  Cu  Cu86  1  0.33320278  0.33236360  0.49860016  1
  Cu  Cu87  1  0.67048470  0.66706279  0.49693140  1
  Cu  Cu88  1  0.66334163  -0.00107623  0.00908804  1
  Cu  Cu89  1  0.65050386  0.33076896  0.49904065  1
  Cu  Cu90  1  0.00491257  0.33382144  -0.00492929  1
  Cu  Cu91  1  0.00235438  0.33354360  0.49724915  1
  Cu  Cu92  1  0.33437902  0.00664615  0.48813962  1
  Cu  Cu93  1  0.00440844  -0.00395637  0.49658234  1
  Cu  Cu94  1  0.49696632  0.49830059  0.24952103  1
  Cu  Cu95  1  0.49736923  0.83968940  0.25535744  1
  Cu  Cu96  1  0.16944516  0.83007244  0.25474033  1
  Cu  Cu97  1  0.49573335  0.82321705  0.75233174  1
  Cu  Cu98  1  0.17020655  0.49863814  0.74480857  1
  Cu  Cu99  1  0.83421524  0.83224106  0.75104158  1
  Cu  Cu100  1  0.65861422  0.67179037  0.00209817  1
  Cu  Cu101  1  0.83367653  0.18163399  0.74953839  1
  Cu  Cu102  1  0.82799419  0.49284587  0.24400705  1
  Cu  Cu103  1  -0.00036609  -0.00374466  0.00978718  1
  Cu  Cu104  1  0.49236027  0.17317263  0.25028541  1
  Cu  Cu105  1  0.83107690  0.83574149  0.25107125  1
  Cu  Cu106  1  0.49017023  0.48900624  0.74378725  1
  Cu  Cu107  1  0.16601609  0.17483273  0.74999447  1
  Cu  Cu108  1  0.83582922  0.50350830  0.75146010  1
  Cu  Cu109  1  -0.00399101  0.66565686  -0.00443771  1
  Cu  Cu110  1  0.33299215  0.00504192  0.00953827  1
  Cu  Cu111  1  0.00877181  0.67408238  0.50196806  1
  Cu  Cu112  1  0.16565711  0.82528998  0.74231516  1
  Cu  Cu113  1  0.49674201  0.17145686  0.75019812  1
  Cu  Cu114  1  0.34054819  0.32990606  0.00423465  1
  Se  Se115  1  0.08301295  0.08094976  0.05979430  1
  Se  Se116  1  0.08216973  0.08827470  0.54662698  1
  Se  Se117  1  0.08078547  0.40407308  0.06522899  1
  Se  Se118  1  0.08627119  0.41560450  0.55074729  1
  Se  Se119  1  0.07490931  0.74178468  0.05997839  1
  Se  Se120  1  0.09197406  0.75388580  0.55826229  1
  Se  Se121  1  0.42062154  0.08821361  0.05871006  1
  Se  Se122  1  0.42018437  0.08572421  0.54303021  1
  Se  Se123  1  0.41242034  0.41727648  0.06354427  1
  Se  Se124  1  0.41558856  0.41449740  0.55493509  1
  Se  Se125  1  0.40683445  0.75687331  0.05234501  1
  Se  Se126  1  0.41960834  0.74580046  0.55536729  1
  Se  Se127  1  0.74333707  0.07952351  0.06882303  1
  Se  Se128  1  0.74251569  0.07672258  0.55856868  1
  Se  Se129  1  0.76456808  0.42916977  0.04495405  1
  Se  Se130  1  0.74244315  0.40914836  0.55352190  1
  Se  Se131  1  0.74826467  0.75234753  0.05218092  1
  Se  Se132  1  0.75525871  0.75308563  0.54428786  1
  Se  Se133  1  0.25318767  0.24852280  0.05579990  1
  Se  Se134  1  0.24788029  0.24761846  0.55108189  1
  Se  Se135  1  0.26198410  0.59108497  0.05996586  1
  Se  Se136  1  0.25597693  0.58685548  0.54804479  1
  Se  Se137  1  0.24911902  0.92904884  0.07037745  1
  Se  Se138  1  0.25787133  0.92353604  0.54782925  1
  Se  Se139  1  0.59783830  0.26101805  0.05643560  1
  Se  Se140  1  0.57508179  0.24518770  0.55585365  1
  Se  Se141  1  0.58717172  0.58902449  0.06604345  1
  Se  Se142  1  0.58714232  0.58130866  0.54636227  1
  Se  Se143  1  0.57681125  0.91561001  0.05933425  1
  Se  Se144  1  0.59220139  0.92484958  0.55857443  1
  Se  Se145  1  0.92379553  0.25653840  0.05918737  1
  Se  Se146  1  0.91571538  0.25758804  0.55608645  1
  Se  Se147  1  0.91514413  0.57857851  0.04700571  1
  Se  Se148  1  0.92612741  0.59122543  0.56204127  1
  Se  Se149  1  0.90897611  0.91609366  0.05647159  1
  Se  Se150  1  0.92312538  0.91396718  0.55335156  1
  Se  Se151  1  0.08494291  0.24870783  0.44544346  1
  Se  Se152  1  0.09223443  0.24920322  0.94794528  1
  Se  Se153  1  0.08564769  0.57899435  0.45603293  1
  Se  Se154  1  0.08340462  0.58666484  0.94077346  1
  Se  Se155  1  0.09229200  0.91761935  0.44365414  1
  Se  Se156  1  0.07671920  0.92244402  0.94089597  1
  Se  Se157  1  0.41342141  0.24796288  0.44251447  1
  Se  Se158  1  0.42355722  0.24808064  0.94928466  1
  Se  Se159  1  0.41017854  0.57898241  0.45104330  1
  Se  Se160  1  0.40545646  0.58860091  0.94306445  1
  Se  Se161  1  0.41320046  0.92207529  0.43035181  1
  Se  Se162  1  0.40696537  0.91799096  0.95062661  1
  Se  Se163  1  0.73584969  0.25415020  0.44049677  1
  Se  Se164  1  0.75253797  0.25432796  0.93806275  1
  Se  Se165  1  0.74772615  0.58593683  0.43374827  1
  Se  Se166  1  0.74087355  0.58968269  0.94613636  1
  Se  Se167  1  0.76259815  0.92070488  0.44585471  1
  Se  Se168  1  0.74810428  0.91729447  0.95382703  1
  Se  Se169  1  0.24658202  0.08935821  0.43900450  1
  Se  Se170  1  0.24838444  0.08615402  0.95471178  1
  Se  Se171  1  0.24884122  0.41377941  0.44472187  1
  Se  Se172  1  0.25970071  0.41160692  0.94400282  1
  Se  Se173  1  0.25313212  0.76410633  0.45819041  1
  Se  Se174  1  0.24749176  0.74144201  0.94119003  1
  Se  Se175  1  0.59044520  0.07806487  0.44399418  1
  Se  Se176  1  0.58446840  0.08336079  0.95274721  1
  Se  Se177  1  0.57377864  0.41952817  0.44647479  1
  Se  Se178  1  0.59098299  0.40728236  0.94188947  1
  Se  Se179  1  0.59148628  0.74407067  0.43250577  1
  Se  Se180  1  0.57224317  0.75391821  0.95138448  1
  Se  Se181  1  0.92691664  0.07606976  0.43446073  1
  Se  Se182  1  0.92736348  0.07652301  0.94118723  1
  Se  Se183  1  0.92090195  0.40918690  0.43545153  1
  Se  Se184  1  0.92363451  0.41890623  0.94251277  1
  Se  Se185  1  0.92265644  0.75399868  0.44909106  1
  Se  Se186  1  0.91361462  0.75367209  0.94574919  1
  Se  Se187  1  0.24482155  0.25172145  0.29507720  1
  Se  Se188  1  0.25480877  0.24739091  0.80718160  1
  Se  Se189  1  0.25046758  0.59172227  0.31411964  1
  Se  Se190  1  0.25175088  0.58212897  0.80004229  1
  Se  Se191  1  0.25383129  0.91757330  0.30264380  1
  Se  Se192  1  0.24185301  0.90518446  0.80672026  1
  Se  Se193  1  0.58054293  0.25371192  0.30342437  1
  Se  Se194  1  0.58331782  0.25091824  0.80355765  1
  Se  Se195  1  0.57571306  0.57980894  0.31126767  1
  Se  Se196  1  0.56929329  0.56765923  0.80914588  1
  Se  Se197  1  0.58574135  0.92468908  0.30033347  1
  Se  Se198  1  0.57179155  0.90725321  0.81158193  1
  Se  Se199  1  0.91334614  0.24139099  0.31122113  1
  Se  Se200  1  0.92406097  0.25763874  0.80154478  1
  Se  Se201  1  0.90910217  0.57441345  0.30240873  1
  Se  Se202  1  0.91738661  0.58863173  0.80382155  1
  Se  Se203  1  0.92177523  0.91139238  0.30338401  1
  Se  Se204  1  0.90942268  0.91748397  0.81084091  1
  Se  Se205  1  0.08629874  0.07859448  0.29497334  1
  Se  Se206  1  0.09177310  0.08822341  0.81029116  1
  Se  Se207  1  0.09119199  0.42482970  0.31209007  1
  Se  Se208  1  0.08859994  0.41654511  0.80251798  1
  Se  Se209  1  0.09796923  0.74642611  0.31864730  1
  Se  Se210  1  0.07757231  0.74755750  0.79578101  1
  Se  Se211  1  0.41069527  0.08723274  0.30217560  1
  Se  Se212  1  0.42283249  0.08613183  0.81243049  1
  Se  Se213  1  0.41373427  0.41531936  0.30374785  1
  Se  Se214  1  0.41003689  0.40686362  0.80144825  1
  Se  Se215  1  0.41499782  0.74979176  0.30241776  1
  Se  Se216  1  0.41162952  0.74212668  0.80472205  1
  Se  Se217  1  0.75970704  0.09336524  0.29896332  1
  Se  Se218  1  0.75760097  0.09755442  0.80907190  1
  Se  Se219  1  0.74267001  0.41161054  0.29593337  1
  Se  Se220  1  0.74999610  0.41873143  0.80090301  1
  Se  Se221  1  0.75281728  0.75548173  0.31259158  1
  Se  Se222  1  0.74910841  0.75666312  0.81112300  1
  Se  Se223  1  0.25991914  0.07892428  0.20257866  1
  Se  Se224  1  0.24347198  0.09168168  0.68907305  1
  Se  Se225  1  0.24949341  0.41673888  0.20667987  1
  Se  Se226  1  0.25232108  0.41368555  0.69179102  1
  Se  Se227  1  0.25312787  0.74960460  0.19899262  1
  Se  Se228  1  0.25415112  0.74475434  0.69288542  1
  Se  Se229  1  0.57913038  0.08800577  0.19988392  1
  Se  Se230  1  0.57262401  0.08635403  0.69016489  1
  Se  Se231  1  0.58278335  0.41553746  0.19806262  1
  Se  Se232  1  0.58096747  0.40901519  0.69554997  1
  Se  Se233  1  0.57250596  0.75840566  0.19016376  1
  Se  Se234  1  0.57936825  0.75073374  0.68992942  1
  Se  Se235  1  0.92270884  0.07528084  0.20546437  1
  Se  Se236  1  0.90794864  0.09751039  0.68839482  1
  Se  Se237  1  0.91235780  0.41695192  0.18570012  1
  Se  Se238  1  0.91932890  0.41918010  0.69754821  1
  Se  Se239  1  0.90745194  0.74986526  0.19159197  1
  Se  Se240  1  0.91548772  0.74827797  0.69831814  1
  Se  Se241  1  0.08484121  0.24251976  0.18971376  1
  Se  Se242  1  0.08254047  0.25538671  0.69480515  1
  Se  Se243  1  0.09454083  0.57053346  0.19418660  1
  Se  Se244  1  0.08532557  0.58437083  0.69435026  1
  Se  Se245  1  0.08149242  0.90851698  0.20121053  1
  Se  Se246  1  0.09360891  0.91782311  0.68662072  1
  Se  Se247  1  0.41135844  0.25637232  0.19534502  1
  Se  Se248  1  0.40778474  0.24643262  0.69550806  1
  Se  Se249  1  0.41635899  0.58725299  0.19985050  1
  Se  Se250  1  0.41420397  0.58009948  0.69252469  1
  Se  Se251  1  0.41430225  0.92315815  0.20149118  1
  Se  Se252  1  0.42070061  0.90531182  0.69034244  1
  Se  Se253  1  0.76624747  0.24159758  0.19769633  1
  Se  Se254  1  0.74407652  0.25797421  0.69717582  1
  Se  Se255  1  0.74991511  0.57777168  0.18606844  1
  Se  Se256  1  0.75434483  0.57528641  0.68494035  1
  Se  Se257  1  0.74522128  0.91709510  0.19898179  1
  Se  Se258  1  0.75293456  0.91266189  0.69253311  1
