# generated using pymatgen
data_In86Cu29Se144
_symmetry_space_group_name_H-M   'P 1'
_cell_length_a   17.57732914
_cell_length_b   17.57800863
_cell_length_c   23.43651322
_cell_angle_alpha   90.02641616
_cell_angle_beta   90.03411070
_cell_angle_gamma   90.02864377
_symmetry_Int_Tables_number   1
_chemical_formula_structural   In86Cu29Se144
_chemical_formula_sum   'In86 Cu29 Se144'
_cell_volume   7241.28066631
_cell_formula_units_Z   1
loop_
 _symmetry_equiv_pos_site_id
 _symmetry_equiv_pos_as_xyz
  1  'x, y, z'
loop_
 _atom_site_type_symbol
 _atom_site_label
 _atom_site_symmetry_multiplicity
 _atom_site_fract_x
 _atom_site_fract_y
 _atom_site_fract_z
 _atom_site_occupancy
  In  In0  1  -0.01225263  0.16794696  0.11616613  1
  In  In1  1  -0.00434177  0.18225275  0.62616267  1
  In  In2  1  -0.00750203  0.48435563  0.10664662  1
  In  In3  1  0.00230304  0.50941225  0.62246749  1
  In  In4  1  -0.00102004  0.84628151  0.12789615  1
  In  In5  1  -0.00018407  0.82042341  0.62787578  1
  In  In6  1  0.34462001  0.17151333  0.11792691  1
  In  In7  1  0.32304487  0.17142259  0.62440406  1
  In  In8  1  0.33868055  0.50139138  0.12419172  1
  In  In9  1  0.35432543  0.50502896  0.61544354  1
  In  In10  1  0.33520552  0.81963102  0.12606248  1
  In  In11  1  0.32276062  0.81865887  0.61780787  1
  In  In12  1  0.67434722  0.17353995  0.12128171  1
  In  In13  1  0.66967401  0.15484784  0.62541834  1
  In  In14  1  0.66529464  0.50361679  0.12476321  1
  In  In15  1  0.67525282  0.51058904  0.62240791  1
  In  In16  1  0.66017455  0.82509483  0.11943453  1
  In  In17  1  0.66239054  0.83590286  0.62945054  1
  In  In18  1  0.15406312  0.00344159  0.37180539  1
  In  In19  1  0.18520267  -0.00053499  0.88208160  1
  In  In20  1  0.16615688  0.32106473  0.36491289  1
  In  In21  1  0.16084568  0.33617644  0.89300932  1
  In  In22  1  0.18251268  0.66007054  0.37557829  1
  In  In23  1  0.15638418  0.66487206  0.86146582  1
  In  In24  1  0.49087978  -0.00820389  0.37540845  1
  In  In25  1  0.50600675  -0.01283919  0.88838257  1
  In  In26  1  0.50501196  0.33961524  0.36499376  1
  In  In27  1  0.49293953  0.33852509  0.88500540  1
  In  In28  1  0.49918960  0.66215952  0.37604609  1
  In  In29  1  0.50328654  0.66762086  0.87398520  1
  In  In30  1  0.85279335  -0.00641264  0.37040402  1
  In  In31  1  0.82058365  0.00778234  0.88022774  1
  In  In32  1  0.82418499  0.34578903  0.38477492  1
  In  In33  1  0.83538458  0.33619739  0.89035793  1
  In  In34  1  0.81057112  0.66796847  0.37263779  1
  In  In35  1  0.83132464  0.66860292  0.87725306  1
  In  In36  1  0.00313332  0.15612548  0.37185504  1
  In  In37  1  -0.00247156  0.17226846  0.89040574  1
  In  In38  1  -0.01361805  0.48715544  0.37861752  1
  In  In39  1  -0.00822519  0.50933321  0.88715289  1
  In  In40  1  -0.00517213  0.84901287  0.37472374  1
  In  In41  1  0.00139336  0.81404119  0.87312717  1
  In  In42  1  0.31988250  0.17533308  0.36348365  1
  In  In43  1  0.33342214  0.15952095  0.89662553  1
  In  In44  1  0.33979784  0.50595879  0.36563898  1
  In  In45  1  0.32691471  0.51063562  0.87935084  1
  In  In46  1  0.34419755  0.82135571  0.38561490  1
  In  In47  1  0.34303095  0.83085501  0.87538196  1
  In  In48  1  0.66356622  0.18190608  0.36956575  1
  In  In49  1  0.67249053  0.16088460  0.88189493  1
  In  In50  1  0.66182885  0.49941476  0.37462431  1
  In  In51  1  0.65695846  0.50994613  0.88197272  1
  In  In52  1  0.67057025  0.80635454  0.37187129  1
  In  In53  1  0.66537483  0.83350498  0.87625395  1
  In  In54  1  0.15240745  0.00056925  0.12896456  1
  In  In55  1  0.18169159  -0.00355069  0.62803266  1
  In  In56  1  0.17180583  0.34482515  0.11864567  1
  In  In57  1  0.16904411  0.32966080  0.62236404  1
  In  In58  1  0.18214011  0.66454260  0.12687078  1
  In  In59  1  0.15921428  0.67800599  0.63708316  1
  In  In60  1  0.49238106  -0.00492866  0.10978512  1
  In  In61  1  0.51768938  -0.00293355  0.62798598  1
  In  In62  1  0.50185973  0.33887479  0.12642419  1
  In  In63  1  0.48917491  0.34981957  0.61794273  1
  In  In64  1  0.50252799  0.66644707  0.12336088  1
  In  In65  1  0.50041080  0.66951012  0.62611541  1
  In  In66  1  0.84141407  0.00482635  0.12052040  1
  In  In67  1  0.82001877  -0.00613370  0.62478151  1
  In  In68  1  0.82413512  0.32631316  0.11980924  1
  In  In69  1  0.83959619  0.33726857  0.60832413  1
  In  In70  1  0.82633644  0.65708145  0.11904705  1
  In  In71  1  0.83702360  0.66070933  0.63155874  1
  In  In72  1  -0.00177097  -0.00535343  0.75222933  1
  In  In73  1  0.32996312  0.33502801  0.74778492  1
  In  In74  1  0.50122552  0.16549705  0.49710673  1
  In  In75  1  0.16673786  0.83232728  0.00080991  1
  In  In76  1  0.33014989  -0.00039877  0.24477917  1
  In  In77  1  0.34458986  -0.01093742  0.76291365  1
  In  In78  1  0.16595844  0.49698489  0.49664051  1
  In  In79  1  0.83229491  0.83179624  0.49827049  1
  In  In80  1  0.00578714  0.66559334  0.24655410  1
  In  In81  1  0.66967817  0.00035309  0.24250571  1
  In  In82  1  0.16313513  0.16601603  0.49303958  1
  In  In83  1  -0.00189570  0.34054400  0.75859999  1
  In  In84  1  0.67068426  0.33573867  0.75354303  1
  In  In85  1  -0.00196391  0.32979967  0.24586330  1
  Cu  Cu86  1  0.82501797  0.83157127  0.75259833  1
  Cu  Cu87  1  0.33423227  0.66474458  0.50051564  1
  Cu  Cu88  1  0.34067526  0.66376311  0.00054999  1
  Cu  Cu89  1  0.34058622  0.33696591  0.00533488  1
  Cu  Cu90  1  0.83345316  0.16967414  0.24492807  1
  Cu  Cu91  1  0.66558597  0.66668730  -0.00206136  1
  Cu  Cu92  1  0.50286386  0.16448072  0.75284363  1
  Cu  Cu93  1  0.66265282  0.33710060  0.00385360  1
  Cu  Cu94  1  0.17221098  0.50188029  0.24354873  1
  Cu  Cu95  1  0.66046616  0.33646391  0.49505038  1
  Cu  Cu96  1  0.16999239  0.16557670  0.76516166  1
  Cu  Cu97  1  0.67214438  -0.00244942  0.50108945  1
  Cu  Cu98  1  0.16805963  0.50739072  0.74994525  1
  Cu  Cu99  1  0.82307941  0.50199338  0.25041003  1
  Cu  Cu100  1  0.83610570  0.50798295  0.75444322  1
  Cu  Cu101  1  0.00004907  0.66455687  -0.00131357  1
  Cu  Cu102  1  0.50680865  0.82286455  0.25154319  1
  Cu  Cu103  1  0.65811565  0.65904309  0.50022851  1
  Cu  Cu104  1  0.50159446  0.17239129  0.24267731  1
  Cu  Cu105  1  0.16992264  0.83375265  0.25104097  1
  Cu  Cu106  1  -0.00249686  0.66595314  0.50561774  1
  Cu  Cu107  1  0.50114293  0.51073847  0.74981065  1
  Cu  Cu108  1  0.33703759  -0.00686312  0.50191770  1
  Cu  Cu109  1  0.50432813  0.82991487  0.75188670  1
  Cu  Cu110  1  0.82579933  0.16362693  0.75307076  1
  Cu  Cu111  1  0.50193095  0.50493193  0.24701770  1
  Cu  Cu112  1  0.00541522  0.00327401  0.49832563  1
  Cu  Cu113  1  -0.00721674  -0.00282070  -0.00019413  1
  Cu  Cu114  1  0.66956388  -0.00280990  0.00365096  1
  Se  Se115  1  0.07570502  0.07816078  0.05482836  1
  Se  Se116  1  0.08153810  0.07942821  0.56532759  1
  Se  Se117  1  0.09488299  0.42330258  0.04470054  1
  Se  Se118  1  0.07431524  0.40623734  0.55761826  1
  Se  Se119  1  0.07819206  0.74239782  0.06375687  1
  Se  Se120  1  0.08445070  0.74770536  0.55525071  1
  Se  Se121  1  0.40917565  0.07895791  0.04654194  1
  Se  Se122  1  0.41140072  0.07754791  0.56325792  1
  Se  Se123  1  0.42511062  0.42364324  0.05427562  1
  Se  Se124  1  0.40406014  0.40905106  0.54213590  1
  Se  Se125  1  0.42080591  0.75157240  0.05232282  1
  Se  Se126  1  0.41967946  0.74928078  0.55260360  1
  Se  Se127  1  0.75207782  0.08443084  0.05453665  1
  Se  Se128  1  0.75435328  0.08366827  0.55144599  1
  Se  Se129  1  0.74861006  0.42073307  0.05505081  1
  Se  Se130  1  0.74344277  0.41864487  0.55166860  1
  Se  Se131  1  0.75045736  0.74842473  0.05142030  1
  Se  Se132  1  0.74327656  0.74155849  0.55874570  1
  Se  Se133  1  0.25403854  0.25406560  0.05475708  1
  Se  Se134  1  0.25994090  0.26032887  0.54760703  1
  Se  Se135  1  0.25379073  0.58276838  0.05281201  1
  Se  Se136  1  0.24827679  0.58877339  0.56138906  1
  Se  Se137  1  0.25141359  0.91867025  0.06651026  1
  Se  Se138  1  0.24755748  0.91368512  0.55205046  1
  Se  Se139  1  0.58178498  0.25094172  0.05713121  1
  Se  Se140  1  0.58800111  0.25624192  0.56235169  1
  Se  Se141  1  0.58292445  0.58350992  0.05285314  1
  Se  Se142  1  0.57629810  0.57819517  0.55708028  1
  Se  Se143  1  0.58227404  0.91067078  0.04934901  1
  Se  Se144  1  0.58748830  0.91456862  0.55255616  1
  Se  Se145  1  0.91862384  0.26302040  0.05026707  1
  Se  Se146  1  0.91488562  0.24185845  0.54800569  1
  Se  Se147  1  0.91287294  0.58119531  0.04835655  1
  Se  Se148  1  0.91091223  0.58258843  0.55438497  1
  Se  Se149  1  0.91309092  0.91022709  0.05174396  1
  Se  Se150  1  0.92496366  0.92194704  0.55963182  1
  Se  Se151  1  0.07123420  0.26011275  0.43971420  1
  Se  Se152  1  0.09527979  0.23651945  0.95510912  1
  Se  Se153  1  0.07356360  0.58901326  0.43797167  1
  Se  Se154  1  0.09123753  0.59042204  0.94414365  1
  Se  Se155  1  0.08585404  0.91683220  0.44644867  1
  Se  Se156  1  0.07492156  0.92010242  0.93778759  1
  Se  Se157  1  0.41389045  0.24965831  0.43254204  1
  Se  Se158  1  0.42271235  0.24828180  0.95457007  1
  Se  Se159  1  0.41334659  0.58042307  0.44457646  1
  Se  Se160  1  0.42350810  0.58189488  0.94440998  1
  Se  Se161  1  0.42429605  0.91106686  0.45221261  1
  Se  Se162  1  0.39318307  0.93127505  0.94540738  1
  Se  Se163  1  0.74421908  0.24921121  0.44654619  1
  Se  Se164  1  0.74554774  0.25162739  0.95060247  1
  Se  Se165  1  0.74610382  0.58054805  0.44664112  1
  Se  Se166  1  0.75252573  0.58222282  0.94711348  1
  Se  Se167  1  0.74570341  0.91969387  0.43379547  1
  Se  Se168  1  0.75015498  0.91341079  0.94733438  1
  Se  Se169  1  0.26131796  0.07470974  0.43880067  1
  Se  Se170  1  0.23468075  0.08960958  0.95860454  1
  Se  Se171  1  0.25081429  0.41222925  0.43045019  1
  Se  Se172  1  0.25771168  0.41875466  0.94905227  1
  Se  Se173  1  0.24715073  0.74802362  0.45021265  1
  Se  Se174  1  0.25372392  0.74024050  0.94025163  1
  Se  Se175  1  0.59223365  0.07487752  0.43657137  1
  Se  Se176  1  0.58574683  0.08170234  0.95001693  1
  Se  Se177  1  0.57533933  0.41795190  0.44330117  1
  Se  Se178  1  0.58069399  0.42059247  0.94913757  1
  Se  Se179  1  0.58097798  0.74769231  0.44684665  1
  Se  Se180  1  0.58126581  0.75160040  0.94545353  1
  Se  Se181  1  0.91869242  0.08139002  0.44481620  1
  Se  Se182  1  0.90892192  0.08392453  0.94917669  1
  Se  Se183  1  0.91300272  0.41660493  0.45541888  1
  Se  Se184  1  0.93718625  0.40270647  0.95046654  1
  Se  Se185  1  0.92109047  0.74144922  0.43742258  1
  Se  Se186  1  0.91588571  0.75001525  0.94858870  1
  Se  Se187  1  0.24616671  0.25254192  0.28992442  1
  Se  Se188  1  0.25141311  0.24923458  0.81946882  1
  Se  Se189  1  0.25378719  0.58698109  0.29657286  1
  Se  Se190  1  0.25623050  0.58756684  0.80130101  1
  Se  Se191  1  0.25138960  0.91042891  0.31463390  1
  Se  Se192  1  0.23890128  0.90187535  0.80737341  1
  Se  Se193  1  0.58563150  0.25539656  0.29479523  1
  Se  Se194  1  0.57671405  0.24997223  0.81339474  1
  Se  Se195  1  0.58447519  0.58586396  0.30454630  1
  Se  Se196  1  0.58924982  0.58782912  0.80304828  1
  Se  Se197  1  0.58261125  0.91084913  0.30893450  1
  Se  Se198  1  0.58014562  0.91827788  0.80771170  1
  Se  Se199  1  0.90736823  0.24854177  0.31230404  1
  Se  Se200  1  0.90710903  0.24297687  0.81182447  1
  Se  Se201  1  0.91067053  0.57838763  0.30821945  1
  Se  Se202  1  0.92095237  0.58724396  0.80938478  1
  Se  Se203  1  0.91947712  0.91319214  0.29470398  1
  Se  Se204  1  0.90577346  0.91047331  0.81401565  1
  Se  Se205  1  0.09486400  0.09573968  0.30022255  1
  Se  Se206  1  0.08401654  0.08481313  0.81717599  1
  Se  Se207  1  0.08657310  0.42811585  0.30488757  1
  Se  Se208  1  0.09396905  0.42696503  0.81451194  1
  Se  Se209  1  0.09079197  0.75330793  0.31348982  1
  Se  Se210  1  0.08153420  0.75394603  0.79439896  1
  Se  Se211  1  0.42501996  0.09074080  0.30490167  1
  Se  Se212  1  0.42407041  0.09203792  0.81793482  1
  Se  Se213  1  0.41717266  0.41816043  0.29716154  1
  Se  Se214  1  0.42227001  0.42434498  0.80660459  1
  Se  Se215  1  0.41721089  0.74827200  0.30677646  1
  Se  Se216  1  0.41843107  0.74801666  0.80332593  1
  Se  Se217  1  0.75568254  0.08837669  0.30845117  1
  Se  Se218  1  0.74129950  0.08096195  0.80336014  1
  Se  Se219  1  0.74657785  0.41486111  0.30629040  1
  Se  Se220  1  0.76007908  0.42388826  0.81500532  1
  Se  Se221  1  0.76407690  0.76053746  0.29582834  1
  Se  Se222  1  0.74507381  0.74683258  0.80734599  1
  Se  Se223  1  0.24596713  0.09219857  0.18658591  1
  Se  Se224  1  0.25161429  0.08869467  0.70411117  1
  Se  Se225  1  0.25542711  0.41692138  0.19321170  1
  Se  Se226  1  0.24450456  0.42891489  0.68610168  1
  Se  Se227  1  0.25336545  0.74844805  0.20142809  1
  Se  Se228  1  0.25731665  0.74869645  0.69958378  1
  Se  Se229  1  0.57309609  0.08437813  0.18347789  1
  Se  Se230  1  0.58806491  0.08330673  0.70080217  1
  Se  Se231  1  0.58618809  0.41972630  0.19583658  1
  Se  Se232  1  0.57757470  0.42252544  0.69224179  1
  Se  Se233  1  0.58913492  0.74357467  0.19552896  1
  Se  Se234  1  0.58687846  0.74643596  0.69710002  1
  Se  Se235  1  0.91788383  0.08672277  0.19417817  1
  Se  Se236  1  0.91067918  0.08930159  0.69168156  1
  Se  Se237  1  0.90699607  0.42445721  0.19048629  1
  Se  Se238  1  0.90797598  0.42246600  0.69176861  1
  Se  Se239  1  0.91363105  0.74925954  0.18640852  1
  Se  Se240  1  0.91187471  0.75173579  0.69942330  1
  Se  Se241  1  0.08613314  0.24821175  0.18166975  1
  Se  Se242  1  0.09392148  0.24560295  0.70130942  1
  Se  Se243  1  0.08418246  0.57068123  0.18205922  1
  Se  Se244  1  0.07657488  0.58444581  0.69848802  1
  Se  Se245  1  0.08215663  0.91646528  0.20357454  1
  Se  Se246  1  0.09147292  0.91089942  0.69162044  1
  Se  Se247  1  0.41480142  0.25479926  0.19326777  1
  Se  Se248  1  0.42658773  0.24362266  0.69003022  1
  Se  Se249  1  0.41723377  0.58815446  0.19404221  1
  Se  Se250  1  0.41362415  0.58724043  0.69511797  1
  Se  Se251  1  0.42833195  0.90768604  0.19309632  1
  Se  Se252  1  0.42411667  0.90903525  0.68849669  1
  Se  Se253  1  0.74673314  0.25407088  0.19770821  1
  Se  Se254  1  0.75874283  0.25001403  0.68843261  1
  Se  Se255  1  0.74515679  0.58848916  0.19652432  1
  Se  Se256  1  0.74754024  0.58546061  0.70099629  1
  Se  Se257  1  0.75612981  0.90975283  0.18397427  1
  Se  Se258  1  0.74481299  0.91863681  0.69991680  1
