# generated using pymatgen
data_In86Cu29Se144
_symmetry_space_group_name_H-M   'P 1'
_cell_length_a   17.56920205
_cell_length_b   17.56840449
_cell_length_c   23.42500751
_cell_angle_alpha   90.03266213
_cell_angle_beta   90.00417517
_cell_angle_gamma   89.98826715
_symmetry_Int_Tables_number   1
_chemical_formula_structural   In86Cu29Se144
_chemical_formula_sum   'In86 Cu29 Se144'
_cell_volume   7230.42818749
_cell_formula_units_Z   1
loop_
 _symmetry_equiv_pos_site_id
 _symmetry_equiv_pos_as_xyz
  1  'x, y, z'
loop_
 _atom_site_type_symbol
 _atom_site_label
 _atom_site_symmetry_multiplicity
 _atom_site_fract_x
 _atom_site_fract_y
 _atom_site_fract_z
 _atom_site_occupancy
  In  In0  1  0.00950744  0.15721746  0.13166695  1
  In  In1  1  0.02281481  0.15090337  0.62776058  1
  In  In2  1  -0.01201206  0.50232992  0.12708293  1
  In  In3  1  0.00432336  0.50164465  0.63044789  1
  In  In4  1  0.01173399  0.83947069  0.11657152  1
  In  In5  1  -0.00396884  0.84600567  0.62993176  1
  In  In6  1  0.33148515  0.16329369  0.12810452  1
  In  In7  1  0.33149437  0.16474878  0.62204873  1
  In  In8  1  0.32193518  0.49391972  0.12884994  1
  In  In9  1  0.32747210  0.49421639  0.61349359  1
  In  In10  1  0.34383678  0.84745365  0.11663089  1
  In  In11  1  0.35317971  0.84203281  0.63892457  1
  In  In12  1  0.65913085  0.17259873  0.13487024  1
  In  In13  1  0.66380469  0.17293304  0.61797243  1
  In  In14  1  0.65450032  0.49205539  0.12953758  1
  In  In15  1  0.68507505  0.52808838  0.59766652  1
  In  In16  1  0.66825238  0.84367497  0.12378057  1
  In  In17  1  0.65810637  0.81981073  0.61462547  1
  In  In18  1  0.17749147  0.00897411  0.36896578  1
  In  In19  1  0.17181734  0.00097129  0.87313557  1
  In  In20  1  0.16424441  0.32971336  0.37861738  1
  In  In21  1  0.15548514  0.33353349  0.87549216  1
  In  In22  1  0.15240441  0.66471212  0.38216396  1
  In  In23  1  0.17282082  0.68116901  0.86323213  1
  In  In24  1  0.49861448  0.00260408  0.37964026  1
  In  In25  1  0.48746316  0.00455609  0.87762084  1
  In  In26  1  0.49472094  0.32474410  0.37392372  1
  In  In27  1  0.48824610  0.32738422  0.87352992  1
  In  In28  1  0.51193932  0.66435820  0.39513866  1
  In  In29  1  0.51893544  0.67838728  0.86256499  1
  In  In30  1  0.83359939  -0.00010950  0.37443785  1
  In  In31  1  0.83405496  -0.01218297  0.87096001  1
  In  In32  1  0.84100162  0.33700948  0.37483445  1
  In  In33  1  0.84554620  0.32489528  0.87493477  1
  In  In34  1  0.81919761  0.67085966  0.39746182  1
  In  In35  1  0.82995156  0.67051390  0.86671972  1
  In  In36  1  0.00754208  0.16948894  0.37393029  1
  In  In37  1  0.01185843  0.18068713  0.86918698  1
  In  In38  1  0.00214013  0.49005491  0.38861801  1
  In  In39  1  0.00716314  0.50052700  0.85190969  1
  In  In40  1  -0.00774100  0.83314566  0.37785959  1
  In  In41  1  0.03396819  0.85839732  0.83838190  1
  In  In42  1  0.32976160  0.16418266  0.37644401  1
  In  In43  1  0.34580370  0.14903377  0.88093478  1
  In  In44  1  0.34167953  0.49038190  0.38408063  1
  In  In45  1  0.33581606  0.49539890  0.87128768  1
  In  In46  1  0.33869160  0.85064174  0.37223120  1
  In  In47  1  0.32162016  0.84822793  0.87576127  1
  In  In48  1  0.65361631  0.15102167  0.36913253  1
  In  In49  1  0.65581466  0.15635641  0.87432153  1
  In  In50  1  0.67449590  0.49408519  0.38714581  1
  In  In51  1  0.65670839  0.51341136  0.86934335  1
  In  In52  1  0.65722744  0.84129710  0.39014679  1
  In  In53  1  0.66142058  0.81988090  0.87406273  1
  In  In54  1  0.16560988  0.00446488  0.12296148  1
  In  In55  1  0.15951738  0.00549437  0.63132501  1
  In  In56  1  0.17910234  0.31993560  0.13826161  1
  In  In57  1  0.16517761  0.32803955  0.62237974  1
  In  In58  1  0.15343768  0.67164857  0.11912541  1
  In  In59  1  0.16657014  0.65285153  0.63075029  1
  In  In60  1  0.49508914  -0.00097108  0.12917960  1
  In  In61  1  0.49747215  -0.00099741  0.62750053  1
  In  In62  1  0.50681472  0.31941097  0.13680199  1
  In  In63  1  0.49690257  0.33373140  0.61527197  1
  In  In64  1  0.49248619  0.66803965  0.11980820  1
  In  In65  1  0.51327602  0.68121630  0.61333514  1
  In  In66  1  0.82680749  0.00506367  0.13596155  1
  In  In67  1  0.86090513  -0.00646039  0.61737499  1
  In  In68  1  0.83533467  0.33287214  0.14021187  1
  In  In69  1  0.83486792  0.34542626  0.62013393  1
  In  In70  1  0.83477662  0.67008090  0.12478941  1
  In  In71  1  0.83255625  0.67109173  0.62026266  1
  In  In72  1  0.67129319  -0.00261444  0.74533647  1
  In  In73  1  0.33385265  0.66749711  0.74937949  1
  In  In74  1  0.16650589  0.50230778  -0.00238114  1
  In  In75  1  0.17117914  0.83419611  0.50481554  1
  In  In76  1  0.83390502  0.16405347  0.00125705  1
  In  In77  1  0.83350786  0.49948884  -0.01230822  1
  In  In78  1  0.33337620  0.66714895  0.25112476  1
  In  In79  1  0.66874132  0.34211068  0.74810270  1
  In  In80  1  0.32881893  0.33010998  0.74068597  1
  In  In81  1  0.49682042  0.50333024  0.00031438  1
  In  In82  1  -0.00388658  0.66401584  0.25273772  1
  In  In83  1  0.83369792  0.16773074  0.49244907  1
  In  In84  1  0.83236091  0.82958830  -0.00291488  1
  In  In85  1  0.66839700  0.66375426  0.25609172  1
  Cu  Cu86  1  0.83868335  0.49558737  0.26144438  1
  Cu  Cu87  1  0.01139564  0.32767185  0.00524496  1
  Cu  Cu88  1  0.33574254  0.31980982  0.00537642  1
  Cu  Cu89  1  0.66270863  0.33231605  0.00631095  1
  Cu  Cu90  1  0.33513414  0.67913087  -0.00895950  1
  Cu  Cu91  1  0.50636071  0.50602343  0.73588495  1
  Cu  Cu92  1  0.00379708  -0.00121741  -0.00720188  1
  Cu  Cu93  1  0.32874149  0.32625174  0.49677345  1
  Cu  Cu94  1  0.00114429  0.68060981  -0.01448398  1
  Cu  Cu95  1  0.49218550  0.16119872  0.25318247  1
  Cu  Cu96  1  0.49959544  0.48567908  0.25687873  1
  Cu  Cu97  1  0.16624666  0.48917051  0.26127776  1
  Cu  Cu98  1  0.84511517  0.16859980  0.74509234  1
  Cu  Cu99  1  0.83221093  0.16830345  0.25784136  1
  Cu  Cu100  1  0.17385799  0.16508287  0.75178031  1
  Cu  Cu101  1  -0.00259051  0.65909103  0.50645824  1
  Cu  Cu102  1  0.32861416  0.00008973  0.00215825  1
  Cu  Cu103  1  0.65489112  0.33088974  0.49580706  1
  Cu  Cu104  1  0.16847753  0.84468146  0.24283192  1
  Cu  Cu105  1  0.83238358  0.84236408  0.25630243  1
  Cu  Cu106  1  0.33081701  0.67259630  0.50787598  1
  Cu  Cu107  1  0.50274810  0.83682908  0.25550057  1
  Cu  Cu108  1  0.66866669  -0.00335565  0.49988868  1
  Cu  Cu109  1  0.64896579  0.00015536  0.00211635  1
  Cu  Cu110  1  -0.00189372  0.33319882  0.50276220  1
  Cu  Cu111  1  0.82840096  0.50382954  0.73987629  1
  Cu  Cu112  1  0.82940550  0.83060086  0.74336067  1
  Cu  Cu113  1  0.33859964  0.00194100  0.50087143  1
  Cu  Cu114  1  0.16428431  0.16776194  0.25214000  1
  Se  Se115  1  0.07983114  0.08389133  0.05139763  1
  Se  Se116  1  0.09129954  0.07653378  0.54947097  1
  Se  Se117  1  0.08300615  0.41573766  0.06627651  1
  Se  Se118  1  0.08135225  0.41594978  0.55821155  1
  Se  Se119  1  0.08621765  0.75642110  0.04372674  1
  Se  Se120  1  0.08014516  0.74273665  0.56291552  1
  Se  Se121  1  0.41304902  0.08044336  0.05841840  1
  Se  Se122  1  0.42136325  0.08495805  0.55600009  1
  Se  Se123  1  0.41247170  0.40950543  0.06282890  1
  Se  Se124  1  0.41260624  0.41351121  0.54638660  1
  Se  Se125  1  0.41926741  0.75425561  0.05011482  1
  Se  Se126  1  0.41186024  0.76024639  0.55747440  1
  Se  Se127  1  0.73801433  0.07704473  0.05937266  1
  Se  Se128  1  0.75067196  0.07589693  0.55961535  1
  Se  Se129  1  0.74958937  0.41304766  0.05991737  1
  Se  Se130  1  0.74327573  0.40895851  0.54828015  1
  Se  Se131  1  0.73936465  0.74124122  0.05767680  1
  Se  Se132  1  0.75279192  0.75172573  0.54869267  1
  Se  Se133  1  0.24537384  0.24472012  0.05773053  1
  Se  Se134  1  0.24697580  0.24587031  0.55349315  1
  Se  Se135  1  0.26049061  0.59576846  0.05584915  1
  Se  Se136  1  0.24365754  0.58472542  0.55084184  1
  Se  Se137  1  0.24317768  0.91590288  0.05401402  1
  Se  Se138  1  0.26247886  0.92206325  0.56487468  1
  Se  Se139  1  0.58103516  0.24668368  0.05750594  1
  Se  Se140  1  0.57557989  0.24390792  0.54797320  1
  Se  Se141  1  0.59469100  0.58987245  0.05783940  1
  Se  Se142  1  0.55648323  0.56482181  0.55449242  1
  Se  Se143  1  0.57397222  0.91276121  0.05735967  1
  Se  Se144  1  0.58216989  0.92108564  0.55675442  1
  Se  Se145  1  0.92029636  0.25680890  0.06297684  1
  Se  Se146  1  0.92205933  0.24727434  0.56291217  1
  Se  Se147  1  0.92510174  0.59748887  0.04919801  1
  Se  Se148  1  0.91518442  0.57540956  0.55963581  1
  Se  Se149  1  0.91509797  0.92977184  0.05613541  1
  Se  Se150  1  0.93130913  0.91186149  0.54401988  1
  Se  Se151  1  0.08100894  0.24917919  0.45000397  1
  Se  Se152  1  0.09131385  0.24412088  0.95022621  1
  Se  Se153  1  0.08407214  0.57805165  0.45426255  1
  Se  Se154  1  0.07771040  0.58713268  0.93214237  1
  Se  Se155  1  0.08906271  0.91802077  0.43616639  1
  Se  Se156  1  0.07977291  0.91327886  0.93554977  1
  Se  Se157  1  0.41564782  0.24311660  0.44620867  1
  Se  Se158  1  0.42102293  0.24382001  0.94840073  1
  Se  Se159  1  0.41000614  0.58753757  0.45072013  1
  Se  Se160  1  0.41278186  0.59332937  0.93421477  1
  Se  Se161  1  0.42084738  0.91453227  0.45002183  1
  Se  Se162  1  0.41186541  0.91739714  0.94779256  1
  Se  Se163  1  0.73749433  0.25236536  0.43427879  1
  Se  Se164  1  0.74164644  0.25607793  0.94115286  1
  Se  Se165  1  0.73956324  0.58248700  0.46046680  1
  Se  Se166  1  0.73867528  0.59636621  0.94214310  1
  Se  Se167  1  0.75808324  0.91832463  0.44819211  1
  Se  Se168  1  0.73610823  0.92467539  0.94314669  1
  Se  Se169  1  0.25004891  0.08118007  0.44894386  1
  Se  Se170  1  0.24686826  0.08349073  0.94741993  1
  Se  Se171  1  0.24579208  0.41512769  0.44698276  1
  Se  Se172  1  0.26136153  0.40539108  0.94450837  1
  Se  Se173  1  0.25866742  0.74742062  0.43609153  1
  Se  Se174  1  0.24268591  0.75601199  0.94262272  1
  Se  Se175  1  0.58313145  0.08235113  0.45111987  1
  Se  Se176  1  0.57227778  0.08739507  0.94789583  1
  Se  Se177  1  0.57259203  0.41511536  0.44220349  1
  Se  Se178  1  0.58864806  0.41076835  0.93907935  1
  Se  Se179  1  0.59418240  0.74722167  0.46009544  1
  Se  Se180  1  0.58046444  0.74627541  0.94768521  1
  Se  Se181  1  0.92963552  0.07526730  0.44287002  1
  Se  Se182  1  0.92112342  0.07923406  0.93473240  1
  Se  Se183  1  0.90802956  0.41564415  0.45457153  1
  Se  Se184  1  0.93700294  0.41009838  0.94015692  1
  Se  Se185  1  0.92208024  0.74812847  0.45141839  1
  Se  Se186  1  0.92227127  0.75966350  0.92602985  1
  Se  Se187  1  0.24686214  0.24873854  0.30837694  1
  Se  Se188  1  0.25206018  0.24457873  0.81474945  1
  Se  Se189  1  0.24298679  0.58020029  0.31481547  1
  Se  Se190  1  0.24319628  0.56960460  0.80487784  1
  Se  Se191  1  0.25474539  0.92137048  0.29855351  1
  Se  Se192  1  0.23485756  0.90836186  0.79964550  1
  Se  Se193  1  0.57919437  0.24490184  0.30344695  1
  Se  Se194  1  0.57821850  0.24726701  0.80444732  1
  Se  Se195  1  0.57515878  0.57460762  0.31420234  1
  Se  Se196  1  0.58842429  0.58948091  0.79029501  1
  Se  Se197  1  0.58547397  0.91734938  0.31202618  1
  Se  Se198  1  0.58247650  0.91750727  0.81259690  1
  Se  Se199  1  0.91926711  0.25048238  0.30712120  1
  Se  Se200  1  0.92436743  0.25592882  0.79821310  1
  Se  Se201  1  0.90846110  0.58460435  0.32204249  1
  Se  Se202  1  0.90951523  0.58436934  0.79889517  1
  Se  Se203  1  0.92318386  0.92086083  0.30531775  1
  Se  Se204  1  0.91164878  0.91909041  0.79375180  1
  Se  Se205  1  0.08147152  0.08105238  0.30285202  1
  Se  Se206  1  0.08582380  0.08610242  0.80550718  1
  Se  Se207  1  0.07529859  0.41268433  0.31171340  1
  Se  Se208  1  0.08636173  0.40414143  0.79561826  1
  Se  Se209  1  0.09266720  0.75943154  0.30419859  1
  Se  Se210  1  0.06853854  0.72806556  0.79457452  1
  Se  Se211  1  0.41163253  0.07752490  0.30862354  1
  Se  Se212  1  0.41543685  0.08022835  0.79909935  1
  Se  Se213  1  0.40797578  0.40865273  0.30615458  1
  Se  Se214  1  0.42863023  0.42533192  0.79736301  1
  Se  Se215  1  0.42824133  0.74895974  0.31460556  1
  Se  Se216  1  0.41728969  0.76105931  0.80976441  1
  Se  Se217  1  0.74965716  0.07879699  0.30458680  1
  Se  Se218  1  0.76114127  0.09454239  0.80685984  1
  Se  Se219  1  0.74738763  0.41606201  0.31016810  1
  Se  Se220  1  0.76070137  0.42725092  0.81292293  1
  Se  Se221  1  0.75531496  0.75706505  0.31548664  1
  Se  Se222  1  0.74477668  0.75174527  0.79851379  1
  Se  Se223  1  0.24532016  0.08300292  0.19660329  1
  Se  Se224  1  0.25422949  0.08360040  0.69516826  1
  Se  Se225  1  0.25385118  0.41309001  0.20493313  1
  Se  Se226  1  0.23898294  0.42783618  0.69099525  1
  Se  Se227  1  0.24491537  0.75488662  0.18572885  1
  Se  Se228  1  0.24553624  0.75751534  0.68900905  1
  Se  Se229  1  0.57923341  0.08111928  0.19829555  1
  Se  Se230  1  0.58424836  0.09555240  0.69283286  1
  Se  Se231  1  0.58820261  0.40791709  0.20385987  1
  Se  Se232  1  0.58679672  0.42354090  0.67866643  1
  Se  Se233  1  0.57659408  0.75163807  0.19329089  1
  Se  Se234  1  0.57863112  0.75553906  0.69422095  1
  Se  Se235  1  0.91404632  0.08720221  0.19910667  1
  Se  Se236  1  0.92417343  0.08060030  0.69356938  1
  Se  Se237  1  0.92309854  0.41821123  0.20350889  1
  Se  Se238  1  0.91491324  0.41568554  0.69593789  1
  Se  Se239  1  0.91156675  0.76268162  0.19213977  1
  Se  Se240  1  0.91627126  0.75056094  0.69105962  1
  Se  Se241  1  0.07747773  0.25226702  0.20051551  1
  Se  Se242  1  0.09017249  0.24630181  0.69682258  1
  Se  Se243  1  0.09327684  0.57281825  0.19519804  1
  Se  Se244  1  0.07454396  0.59099725  0.70265835  1
  Se  Se245  1  0.07754212  0.92264378  0.19226702  1
  Se  Se246  1  0.08806979  0.91373886  0.69981547  1
  Se  Se247  1  0.41009861  0.24767143  0.19998169  1
  Se  Se248  1  0.42861868  0.24343301  0.69076746  1
  Se  Se249  1  0.42638610  0.57033387  0.19380083  1
  Se  Se250  1  0.41596084  0.58004427  0.68147398  1
  Se  Se251  1  0.41477852  0.91318087  0.20029282  1
  Se  Se252  1  0.42073499  0.93396498  0.70840560  1
  Se  Se253  1  0.74726408  0.25059372  0.20294614  1
  Se  Se254  1  0.75867307  0.24571679  0.68983809  1
  Se  Se255  1  0.76115735  0.57308251  0.19413307  1
  Se  Se256  1  0.74449635  0.58700924  0.68812407  1
  Se  Se257  1  0.74325601  0.91750632  0.20080322  1
  Se  Se258  1  0.75782086  0.91341942  0.67870240  1
