# generated using pymatgen
data_In86Cu29Se144
_symmetry_space_group_name_H-M   'P 1'
_cell_length_a   17.58196998
_cell_length_b   17.58188795
_cell_length_c   23.44571633
_cell_angle_alpha   89.99134671
_cell_angle_beta   89.96574936
_cell_angle_gamma   90.00376231
_symmetry_Int_Tables_number   1
_chemical_formula_structural   In86Cu29Se144
_chemical_formula_sum   'In86 Cu29 Se144'
_cell_volume   7247.63752436
_cell_formula_units_Z   1
loop_
 _symmetry_equiv_pos_site_id
 _symmetry_equiv_pos_as_xyz
  1  'x, y, z'
loop_
 _atom_site_type_symbol
 _atom_site_label
 _atom_site_symmetry_multiplicity
 _atom_site_fract_x
 _atom_site_fract_y
 _atom_site_fract_z
 _atom_site_occupancy
  In  In0  1  -0.00703231  0.16360738  0.11274645  1
  In  In1  1  -0.00496931  0.16080457  0.62152464  1
  In  In2  1  0.01927029  0.50051976  0.13015430  1
  In  In3  1  -0.00521454  0.50940309  0.62410116  1
  In  In4  1  -0.02194444  0.82990607  0.11884544  1
  In  In5  1  0.00090233  0.83285835  0.63570923  1
  In  In6  1  0.33154071  0.17058398  0.13049580  1
  In  In7  1  0.32880500  0.16478647  0.62155247  1
  In  In8  1  0.32649186  0.49089293  0.13023140  1
  In  In9  1  0.34261909  0.49546378  0.62297620  1
  In  In10  1  0.34917831  0.83847878  0.12308140  1
  In  In11  1  0.32900961  0.83514397  0.63286242  1
  In  In12  1  0.66772988  0.16501932  0.12919632  1
  In  In13  1  0.66766739  0.16288506  0.63026788  1
  In  In14  1  0.65678560  0.49742801  0.14009682  1
  In  In15  1  0.67168024  0.49252693  0.62301538  1
  In  In16  1  0.67752138  0.83307740  0.12567463  1
  In  In17  1  0.66999372  0.83093273  0.63320436  1
  In  In18  1  0.17950225  0.01803657  0.36682698  1
  In  In19  1  0.17796201  0.00791816  0.87019291  1
  In  In20  1  0.15944214  0.32076037  0.37425475  1
  In  In21  1  0.17148906  0.33148593  0.88354749  1
  In  In22  1  0.16572875  0.67496075  0.36908030  1
  In  In23  1  0.15806950  0.66087303  0.87180158  1
  In  In24  1  0.51131719  0.02301850  0.35558083  1
  In  In25  1  0.51029974  0.00746051  0.87113116  1
  In  In26  1  0.51412789  0.33342328  0.35136823  1
  In  In27  1  0.50008872  0.32032676  0.87708661  1
  In  In28  1  0.50104007  0.64288626  0.37283759  1
  In  In29  1  0.50639864  0.67181736  0.86868846  1
  In  In30  1  0.83336982  0.01884052  0.37884697  1
  In  In31  1  0.82818477  0.00053218  0.87503879  1
  In  In32  1  0.79641633  0.36337413  0.41071555  1
  In  In33  1  0.81514752  0.33271217  0.87344345  1
  In  In34  1  0.81747059  0.65662169  0.36932004  1
  In  In35  1  0.83590409  0.66763223  0.87215133  1
  In  In36  1  -0.01673397  0.19432383  0.39935537  1
  In  In37  1  0.00678551  0.15895725  0.87890710  1
  In  In38  1  -0.01731828  0.49144913  0.37707387  1
  In  In39  1  0.00106310  0.51318216  0.87545542  1
  In  In40  1  0.00813964  0.83074572  0.37351776  1
  In  In41  1  -0.01471033  0.82528715  0.87021191  1
  In  In42  1  0.33123231  0.16961665  0.36532947  1
  In  In43  1  0.34324425  0.16173303  0.88373567  1
  In  In44  1  0.35433535  0.49297863  0.37130202  1
  In  In45  1  0.32078603  0.49519710  0.87431694  1
  In  In46  1  0.32681875  0.84205569  0.36850696  1
  In  In47  1  0.34183634  0.83745164  0.86829022  1
  In  In48  1  0.67727813  0.18674643  0.36002165  1
  In  In49  1  0.66648253  0.16673956  0.87697827  1
  In  In50  1  0.66108115  0.49923505  0.36750100  1
  In  In51  1  0.66892928  0.49950072  0.86808274  1
  In  In52  1  0.66255309  0.83465946  0.36969246  1
  In  In53  1  0.67319248  0.83480932  0.87490812  1
  In  In54  1  0.16105402  0.01490301  0.12175022  1
  In  In55  1  0.16457135  0.00335650  0.63533581  1
  In  In56  1  0.17343294  0.33958176  0.12212984  1
  In  In57  1  0.17963080  0.32236743  0.61459784  1
  In  In58  1  0.17122670  0.64460727  0.12441908  1
  In  In59  1  0.15937731  0.67069058  0.63343240  1
  In  In60  1  0.49264297  0.01783217  0.13926980  1
  In  In61  1  0.50335537  -0.00049922  0.63403622  1
  In  In62  1  0.51438180  0.31196189  0.15088750  1
  In  In63  1  0.50424686  0.34770678  0.61548294  1
  In  In64  1  0.51173323  0.67397510  0.12521413  1
  In  In65  1  0.51076862  0.65228200  0.63111692  1
  In  In66  1  0.82672498  -0.00486041  0.11608036  1
  In  In67  1  0.83055017  0.00517549  0.63540967  1
  In  In68  1  0.83337380  0.32170294  0.12374946  1
  In  In69  1  0.81969718  0.31315789  0.60839091  1
  In  In70  1  0.82268827  0.67238524  0.12889130  1
  In  In71  1  0.83656583  0.65910522  0.62870442  1
  In  In72  1  0.51043914  0.84118327  -0.00416912  1
  In  In73  1  0.34032085  0.33314069  0.74027773  1
  In  In74  1  0.50504658  0.17668949  0.48863281  1
  In  In75  1  0.16652209  0.49614220  0.49587498  1
  In  In76  1  -0.00402440  0.33484190  0.74254852  1
  In  In77  1  -0.00317607  0.33416457  0.25406311  1
  In  In78  1  0.00191118  0.00034379  0.25053686  1
  In  In79  1  0.49870590  0.49568783  0.01335391  1
  In  In80  1  0.83503653  0.83136878  0.51068125  1
  In  In81  1  0.17025373  0.83932112  0.49475823  1
  In  In82  1  0.83697069  0.49498026  0.00036520  1
  In  In83  1  0.16280517  0.83210299  -0.00703749  1
  In  In84  1  0.49614056  0.83434945  0.49644736  1
  In  In85  1  0.33810694  0.66958508  0.24849491  1
  Cu  Cu86  1  0.33417955  0.65691398  -0.00384317  1
  Cu  Cu87  1  0.00205871  0.33056758  0.00194855  1
  Cu  Cu88  1  0.00236157  0.66155691  -0.00202530  1
  Cu  Cu89  1  0.50152368  0.50503864  0.74620171  1
  Cu  Cu90  1  0.33613199  0.00973000  0.49257089  1
  Cu  Cu91  1  0.67371030  0.00347813  0.50397359  1
  Cu  Cu92  1  0.83167391  0.83373362  0.24758658  1
  Cu  Cu93  1  0.50723686  0.83819080  0.24723069  1
  Cu  Cu94  1  0.83051852  0.83480818  0.75232341  1
  Cu  Cu95  1  0.16064733  0.82939322  0.24559815  1
  Cu  Cu96  1  0.66032610  0.32695715  0.00505749  1
  Cu  Cu97  1  0.83062781  0.17071368  0.25160701  1
  Cu  Cu98  1  0.34334948  0.65836511  0.50310592  1
  Cu  Cu99  1  -0.00657233  0.00133109  -0.00526849  1
  Cu  Cu100  1  0.83402024  0.16507711  0.74944592  1
  Cu  Cu101  1  0.50718673  0.16461813  0.75383224  1
  Cu  Cu102  1  0.32923867  0.01151653  0.00344728  1
  Cu  Cu103  1  0.33347880  0.32643883  0.00604048  1
  Cu  Cu104  1  0.16122559  0.16667409  0.24865770  1
  Cu  Cu105  1  0.83142117  0.49846199  0.25572112  1
  Cu  Cu106  1  0.66278302  0.00963946  0.00069601  1
  Cu  Cu107  1  0.00901394  0.01201469  0.50472118  1
  Cu  Cu108  1  0.16498591  0.83288758  0.75679410  1
  Cu  Cu109  1  0.17440856  0.16419510  0.75132405  1
  Cu  Cu110  1  0.16132599  0.50660080  0.75124953  1
  Cu  Cu111  1  -0.00702405  0.66542362  0.50103062  1
  Cu  Cu112  1  0.65946888  0.64820776  0.49928812  1
  Cu  Cu113  1  0.82643055  0.50034399  0.74884427  1
  Cu  Cu114  1  0.49716254  0.82989530  0.75024555  1
  Se  Se115  1  0.08007930  0.08311669  0.04570524  1
  Se  Se116  1  0.09669934  0.08708450  0.55979994  1
  Se  Se117  1  0.08353455  0.41646424  0.05310686  1
  Se  Se118  1  0.07994950  0.41301982  0.56270958  1
  Se  Se119  1  0.08094199  0.74345369  0.05998067  1
  Se  Se120  1  0.07629162  0.74939014  0.55506889  1
  Se  Se121  1  0.41454721  0.08651934  0.06083648  1
  Se  Se122  1  0.42457367  0.07841909  0.55458849  1
  Se  Se123  1  0.41628547  0.39820863  0.07019554  1
  Se  Se124  1  0.39979860  0.40271085  0.55095849  1
  Se  Se125  1  0.41489995  0.74170013  0.05089352  1
  Se  Se126  1  0.41415394  0.74588292  0.56338915  1
  Se  Se127  1  0.74941426  0.09066219  0.05429633  1
  Se  Se128  1  0.75433183  0.08370798  0.56057629  1
  Se  Se129  1  0.73920735  0.41268057  0.06233513  1
  Se  Se130  1  0.75617965  0.41975565  0.54987919  1
  Se  Se131  1  0.75757691  0.75672484  0.05333237  1
  Se  Se132  1  0.73578489  0.73632019  0.55759216  1
  Se  Se133  1  0.24520557  0.24433510  0.05648892  1
  Se  Se134  1  0.27193777  0.25514248  0.54717503  1
  Se  Se135  1  0.25649907  0.57323533  0.05217334  1
  Se  Se136  1  0.24844791  0.59198067  0.56063736  1
  Se  Se137  1  0.25333349  0.92009274  0.05752107  1
  Se  Se138  1  0.26047181  0.92675074  0.55577149  1
  Se  Se139  1  0.57826884  0.24859378  0.06323828  1
  Se  Se140  1  0.59501955  0.25561024  0.55649112  1
  Se  Se141  1  0.59940776  0.58888084  0.05841298  1
  Se  Se142  1  0.57662252  0.56846486  0.55503081  1
  Se  Se143  1  0.58480579  0.93124289  0.06627952  1
  Se  Se144  1  0.59106940  0.92001252  0.55836186  1
  Se  Se145  1  0.91001796  0.24910537  0.04659873  1
  Se  Se146  1  0.93291128  0.25665613  0.55382720  1
  Se  Se147  1  0.92400396  0.58425122  0.06284592  1
  Se  Se148  1  0.90898951  0.58144611  0.55085523  1
  Se  Se149  1  0.91063659  0.91576179  0.04558418  1
  Se  Se150  1  0.92986443  0.92617568  0.56220971  1
  Se  Se151  1  0.09524633  0.24832749  0.45623623  1
  Se  Se152  1  0.08492531  0.24742881  0.94674500  1
  Se  Se153  1  0.07706869  0.59286568  0.43878553  1
  Se  Se154  1  0.08979955  0.57857562  0.94945094  1
  Se  Se155  1  0.08013032  0.93347940  0.43788312  1
  Se  Se156  1  0.07536604  0.92280618  0.93326290  1
  Se  Se157  1  0.41661427  0.26191095  0.42706087  1
  Se  Se158  1  0.42130005  0.24814573  0.95265000  1
  Se  Se159  1  0.42282319  0.57281771  0.45043709  1
  Se  Se160  1  0.41976160  0.58004866  0.93828687  1
  Se  Se161  1  0.41583034  0.92874201  0.43351814  1
  Se  Se162  1  0.40969031  0.92932275  0.94395286  1
  Se  Se163  1  0.75355080  0.23167891  0.44631084  1
  Se  Se164  1  0.74719700  0.25013618  0.94905365  1
  Se  Se165  1  0.74719751  0.57354439  0.44352520  1
  Se  Se166  1  0.74611680  0.58381115  0.94197863  1
  Se  Se167  1  0.74871622  0.91796540  0.44350380  1
  Se  Se168  1  0.74304119  0.92259982  0.94730340  1
  Se  Se169  1  0.25144038  0.09439472  0.44394914  1
  Se  Se170  1  0.24448843  0.08998562  0.94792723  1
  Se  Se171  1  0.25581824  0.41227565  0.43370602  1
  Se  Se172  1  0.25483985  0.41362797  0.95185705  1
  Se  Se173  1  0.26510813  0.74089493  0.44267792  1
  Se  Se174  1  0.25998681  0.74334563  0.93763041  1
  Se  Se175  1  0.59749612  0.07863211  0.43818478  1
  Se  Se176  1  0.57750799  0.09006315  0.94756924  1
  Se  Se177  1  0.59554011  0.39548223  0.43013991  1
  Se  Se178  1  0.58728709  0.41275967  0.94379515  1
  Se  Se179  1  0.58767754  0.73966777  0.44153667  1
  Se  Se180  1  0.59475443  0.73939139  0.94502820  1
  Se  Se181  1  0.91420739  0.08650589  0.45541944  1
  Se  Se182  1  0.91003864  0.08695134  0.94340581  1
  Se  Se183  1  0.92827341  0.39952992  0.45019931  1
  Se  Se184  1  0.92452266  0.40684158  0.93565090  1
  Se  Se185  1  0.91609166  0.74694765  0.43919817  1
  Se  Se186  1  0.91626668  0.74392335  0.94711277  1
  Se  Se187  1  0.24410776  0.25336661  0.29864385  1
  Se  Se188  1  0.25347913  0.24853532  0.80883252  1
  Se  Se189  1  0.25283400  0.58055602  0.31178182  1
  Se  Se190  1  0.24988566  0.58426477  0.80434501  1
  Se  Se191  1  0.23924718  0.91601547  0.29931352  1
  Se  Se192  1  0.25356984  0.91768027  0.80313425  1
  Se  Se193  1  0.55892548  0.21202629  0.29673616  1
  Se  Se194  1  0.58754098  0.25254190  0.80478905  1
  Se  Se195  1  0.59315820  0.59304589  0.29802747  1
  Se  Se196  1  0.58629746  0.58487043  0.80175193  1
  Se  Se197  1  0.59058118  0.92305325  0.29935027  1
  Se  Se198  1  0.58083513  0.90980676  0.80757229  1
  Se  Se199  1  0.90430993  0.25118789  0.31462972  1
  Se  Se200  1  0.91225361  0.24764611  0.80990855  1
  Se  Se201  1  0.91551794  0.58306251  0.30616108  1
  Se  Se202  1  0.91373651  0.58004826  0.80243891  1
  Se  Se203  1  0.90824741  0.91274892  0.31243942  1
  Se  Se204  1  0.91331542  0.91991755  0.80465200  1
  Se  Se205  1  0.07352003  0.10044574  0.31363460  1
  Se  Se206  1  0.08625187  0.08499327  0.80346042  1
  Se  Se207  1  0.08767085  0.42578373  0.31124982  1
  Se  Se208  1  0.08826821  0.41770023  0.80966721  1
  Se  Se209  1  0.07770101  0.74780635  0.29845836  1
  Se  Se210  1  0.07838906  0.74790275  0.80536956  1
  Se  Se211  1  0.38958347  0.06104981  0.30398141  1
  Se  Se212  1  0.41776503  0.08612937  0.80620079  1
  Se  Se213  1  0.42439386  0.42105961  0.29185379  1
  Se  Se214  1  0.42421713  0.42157962  0.80834235  1
  Se  Se215  1  0.42892379  0.75828130  0.31161075  1
  Se  Se216  1  0.41376560  0.74418710  0.80166098  1
  Se  Se217  1  0.74997056  0.08112765  0.30167223  1
  Se  Se218  1  0.74790035  0.08565047  0.80544364  1
  Se  Se219  1  0.75574750  0.40937626  0.30971728  1
  Se  Se220  1  0.74380280  0.41235536  0.79785971  1
  Se  Se221  1  0.74771982  0.75257735  0.30318155  1
  Se  Se222  1  0.74887282  0.74772871  0.80453786  1
  Se  Se223  1  0.24427853  0.08201096  0.19627902  1
  Se  Se224  1  0.25985470  0.08250448  0.69769888  1
  Se  Se225  1  0.23033989  0.42833001  0.19818501  1
  Se  Se226  1  0.23804396  0.42360270  0.69015901  1
  Se  Se227  1  0.24698883  0.75701247  0.18377010  1
  Se  Se228  1  0.24652539  0.75035455  0.69943087  1
  Se  Se229  1  0.57981664  0.09755945  0.20457297  1
  Se  Se230  1  0.58981328  0.07852604  0.70115342  1
  Se  Se231  1  0.58116231  0.41564102  0.21051228  1
  Se  Se232  1  0.58132011  0.41685155  0.69382837  1
  Se  Se233  1  0.59062993  0.75413210  0.19554651  1
  Se  Se234  1  0.58203694  0.74800830  0.69661035  1
  Se  Se235  1  0.90963740  0.08894337  0.19055285  1
  Se  Se236  1  0.92347269  0.08387194  0.69961076  1
  Se  Se237  1  0.90932352  0.42412960  0.18822471  1
  Se  Se238  1  0.90186161  0.42030880  0.68499144  1
  Se  Se239  1  0.91503438  0.74815351  0.19712890  1
  Se  Se240  1  0.91154084  0.74955085  0.69687164  1
  Se  Se241  1  0.07829612  0.24288016  0.18694088  1
  Se  Se242  1  0.09596001  0.24522481  0.69107812  1
  Se  Se243  1  0.08411018  0.59020026  0.20168817  1
  Se  Se244  1  0.07410140  0.58593740  0.69833605  1
  Se  Se245  1  0.08268589  0.90902564  0.18274526  1
  Se  Se246  1  0.08342081  0.91715004  0.70169745  1
  Se  Se247  1  0.39266356  0.26579798  0.20145611  1
  Se  Se248  1  0.43277878  0.24055532  0.68536816  1
  Se  Se249  1  0.42584108  0.58131488  0.18670509  1
  Se  Se250  1  0.41037929  0.58322525  0.69597172  1
  Se  Se251  1  0.41573815  0.91825176  0.19974942  1
  Se  Se252  1  0.41604414  0.91693604  0.69833295  1
  Se  Se253  1  0.74785462  0.25481450  0.19788464  1
  Se  Se254  1  0.75317060  0.25034230  0.69518639  1
  Se  Se255  1  0.75134905  0.58111005  0.19816438  1
  Se  Se256  1  0.74372065  0.58374031  0.69400974  1
  Se  Se257  1  0.75274147  0.92267135  0.19530332  1
  Se  Se258  1  0.74670197  0.91912697  0.70019610  1
