# generated using pymatgen
data_In86Cu29Se144
_symmetry_space_group_name_H-M   'P 1'
_cell_length_a   17.57383280
_cell_length_b   17.57199914
_cell_length_c   23.43551627
_cell_angle_alpha   89.97777616
_cell_angle_beta   90.02108373
_cell_angle_gamma   90.01406109
_symmetry_Int_Tables_number   1
_chemical_formula_structural   In86Cu29Se144
_chemical_formula_sum   'In86 Cu29 Se144'
_cell_volume   7237.05900276
_cell_formula_units_Z   1
loop_
 _symmetry_equiv_pos_site_id
 _symmetry_equiv_pos_as_xyz
  1  'x, y, z'
loop_
 _atom_site_type_symbol
 _atom_site_label
 _atom_site_symmetry_multiplicity
 _atom_site_fract_x
 _atom_site_fract_y
 _atom_site_fract_z
 _atom_site_occupancy
  In  In0  1  0.00593770  0.15602686  0.12111538  1
  In  In1  1  0.00481847  0.18148579  0.62633765  1
  In  In2  1  0.01154128  0.51150893  0.12466496  1
  In  In3  1  0.01096377  0.48324326  0.63788541  1
  In  In4  1  -0.01052724  0.83110564  0.12235884  1
  In  In5  1  -0.01129612  0.82575306  0.61741090  1
  In  In6  1  0.32834908  0.16102143  0.11373448  1
  In  In7  1  0.33146322  0.17063085  0.63400433  1
  In  In8  1  0.35160329  0.50753709  0.11499596  1
  In  In9  1  0.32619160  0.50820559  0.62918119  1
  In  In10  1  0.33798315  0.82851125  0.12461620  1
  In  In11  1  0.31575244  0.81247736  0.60492327  1
  In  In12  1  0.65907787  0.17315094  0.13407491  1
  In  In13  1  0.65879446  0.14603107  0.62768384  1
  In  In14  1  0.65611883  0.51028268  0.13491880  1
  In  In15  1  0.67205024  0.50621641  0.62231836  1
  In  In16  1  0.66628449  0.83210244  0.12748332  1
  In  In17  1  0.67135222  0.83576882  0.61740693  1
  In  In18  1  0.16941538  -0.02321082  0.37602820  1
  In  In19  1  0.16893426  -0.00675872  0.88092970  1
  In  In20  1  0.18174518  0.34764364  0.38096262  1
  In  In21  1  0.16570312  0.32492730  0.86376951  1
  In  In22  1  0.16887604  0.67626152  0.37482241  1
  In  In23  1  0.17313430  0.67267837  0.87000845  1
  In  In24  1  0.48703878  -0.01236960  0.36092841  1
  In  In25  1  0.50339935  -0.00448343  0.88155169  1
  In  In26  1  0.49912491  0.32467240  0.37219909  1
  In  In27  1  0.47960096  0.35102396  0.89575826  1
  In  In28  1  0.50528128  0.67130637  0.36690386  1
  In  In29  1  0.48297449  0.67606007  0.89408900  1
  In  In30  1  0.83045071  0.00684850  0.38448375  1
  In  In31  1  0.81717668  -0.00072897  0.87136566  1
  In  In32  1  0.82389723  0.32931589  0.37752413  1
  In  In33  1  0.83682728  0.33022217  0.86857706  1
  In  In34  1  0.84122778  0.67508717  0.37008624  1
  In  In35  1  0.84650167  0.67020565  0.87316412  1
  In  In36  1  0.00119215  0.14455971  0.38276821  1
  In  In37  1  0.00332817  0.17626766  0.86612824  1
  In  In38  1  0.00796848  0.51728884  0.37784484  1
  In  In39  1  0.00541884  0.50846222  0.85851353  1
  In  In40  1  0.01292396  0.82655840  0.38803739  1
  In  In41  1  0.01036070  0.82307847  0.87927933  1
  In  In42  1  0.34213306  0.17042670  0.37208911  1
  In  In43  1  0.32051100  0.18180995  0.89346292  1
  In  In44  1  0.31551588  0.51180830  0.38555242  1
  In  In45  1  0.33834870  0.50979761  0.87049327  1
  In  In46  1  0.33392122  0.83187022  0.37077518  1
  In  In47  1  0.33609625  0.82206825  0.88538124  1
  In  In48  1  0.66976906  0.16739033  0.36814886  1
  In  In49  1  0.66508211  0.15712640  0.87301730  1
  In  In50  1  0.66313601  0.49613528  0.36571451  1
  In  In51  1  0.65498656  0.49391735  0.87894967  1
  In  In52  1  0.66559490  0.83619315  0.37039327  1
  In  In53  1  0.65513133  0.84094840  0.88223721  1
  In  In54  1  0.17642241  0.00582705  0.11774863  1
  In  In55  1  0.17477721  -0.00619143  0.62153157  1
  In  In56  1  0.19533112  0.33476193  0.11512637  1
  In  In57  1  0.16134195  0.33575530  0.63162072  1
  In  In58  1  0.16120022  0.67323004  0.13060394  1
  In  In59  1  0.17100461  0.66008782  0.62567300  1
  In  In60  1  0.50119046  -0.00366720  0.12722421  1
  In  In61  1  0.50626009  -0.00765036  0.63001940  1
  In  In62  1  0.50009871  0.34206618  0.11550800  1
  In  In63  1  0.49742793  0.33121646  0.63415502  1
  In  In64  1  0.49766990  0.67219116  0.12433809  1
  In  In65  1  0.48076256  0.66860418  0.62344143  1
  In  In66  1  0.83440689  -0.01391706  0.12694021  1
  In  In67  1  0.82466485  -0.01444168  0.61300634  1
  In  In68  1  0.82961775  0.31838490  0.12589400  1
  In  In69  1  0.85199107  0.33579387  0.62438226  1
  In  In70  1  0.82229776  0.67697524  0.13638225  1
  In  In71  1  0.83302826  0.67808053  0.62479649  1
  In  In72  1  0.49314819  0.50543353  0.49637640  1
  In  In73  1  0.33692596  -0.00241743  0.74771594  1
  In  In74  1  0.66776215  0.66768636  0.74761779  1
  In  In75  1  0.66632968  0.33054988  0.75517748  1
  In  In76  1  0.49604301  0.16189045  0.49480204  1
  In  In77  1  0.34193414  0.34267682  0.24415595  1
  In  In78  1  0.00021978  -0.00732428  0.25654173  1
  In  In79  1  0.82968064  0.50175308  -0.00488539  1
  In  In80  1  0.83996739  0.50317135  0.50044837  1
  In  In81  1  0.17174779  0.50566874  -0.00383247  1
  In  In82  1  -0.00415895  0.33377424  0.24669369  1
  In  In83  1  0.16311050  0.16482870  0.50683162  1
  In  In84  1  0.83454801  0.16211655  -0.00942650  1
  In  In85  1  -0.00256827  0.00016580  0.74484674  1
  Cu  Cu86  1  0.49675422  0.83324937  0.75709415  1
  Cu  Cu87  1  0.83072947  0.83795967  0.74448313  1
  Cu  Cu88  1  0.49807875  0.50304200  0.24619705  1
  Cu  Cu89  1  0.33997509  -0.00867277  0.00265361  1
  Cu  Cu90  1  0.66024768  0.33668372  0.00538909  1
  Cu  Cu91  1  0.49360278  0.50450014  0.75661640  1
  Cu  Cu92  1  0.01041949  0.33256713  -0.00927664  1
  Cu  Cu93  1  0.83108174  0.16547644  0.74789064  1
  Cu  Cu94  1  0.01064036  0.66227111  0.50320301  1
  Cu  Cu95  1  0.00529513  -0.00466141  -0.00058079  1
  Cu  Cu96  1  0.82993591  0.83115953  0.25170404  1
  Cu  Cu97  1  -0.00368592  0.67488351  0.00184325  1
  Cu  Cu98  1  0.50051531  0.82978523  0.24518646  1
  Cu  Cu99  1  0.66951209  -0.00259257  0.00462798  1
  Cu  Cu100  1  0.83394569  0.49883557  0.25564281  1
  Cu  Cu101  1  0.49463950  0.16745941  0.75799326  1
  Cu  Cu102  1  0.16561486  0.51381738  0.25266530  1
  Cu  Cu103  1  0.00783536  0.33489640  0.50406674  1
  Cu  Cu104  1  0.66692930  0.67514020  0.49263285  1
  Cu  Cu105  1  0.50229071  0.16279897  0.24866178  1
  Cu  Cu106  1  0.66353259  -0.00527335  0.49637147  1
  Cu  Cu107  1  0.17191596  0.16841271  0.24106491  1
  Cu  Cu108  1  0.17027114  0.83281238  0.25004798  1
  Cu  Cu109  1  0.17155697  0.49796653  0.74991025  1
  Cu  Cu110  1  0.66890534  0.32056407  0.49724993  1
  Cu  Cu111  1  0.33532520  -0.00289936  0.49599052  1
  Cu  Cu112  1  0.66437585  0.66927906  0.00986091  1
  Cu  Cu113  1  0.16818154  0.82314411  0.74818398  1
  Cu  Cu114  1  0.82613685  0.16307274  0.25555785  1
  Se  Se115  1  0.08739299  0.08372746  0.04839433  1
  Se  Se116  1  0.07208407  0.07371706  0.56301849  1
  Se  Se117  1  0.08173728  0.41051794  0.05773462  1
  Se  Se118  1  0.08868546  0.41945663  0.55656666  1
  Se  Se119  1  0.08168349  0.75245517  0.05764251  1
  Se  Se120  1  0.08812865  0.74913995  0.55829918  1
  Se  Se121  1  0.42208938  0.07825010  0.05454380  1
  Se  Se122  1  0.40793400  0.07626331  0.56184306  1
  Se  Se123  1  0.38493087  0.38918059  0.05622282  1
  Se  Se124  1  0.41623390  0.41354967  0.56330912  1
  Se  Se125  1  0.42490334  0.75709481  0.05238187  1
  Se  Se126  1  0.43393328  0.76560744  0.55016287  1
  Se  Se127  1  0.75011269  0.08276369  0.06203728  1
  Se  Se128  1  0.74214138  0.08054736  0.55192132  1
  Se  Se129  1  0.74626415  0.41372574  0.06325711  1
  Se  Se130  1  0.74550595  0.40705661  0.55617686  1
  Se  Se131  1  0.75365440  0.75251908  0.05677558  1
  Se  Se132  1  0.75367049  0.75083740  0.54928040  1
  Se  Se133  1  0.24932085  0.24257266  0.04233043  1
  Se  Se134  1  0.25677029  0.25590792  0.56066479  1
  Se  Se135  1  0.25480789  0.59639136  0.05882314  1
  Se  Se136  1  0.26646590  0.59746893  0.55458566  1
  Se  Se137  1  0.25192265  0.91096440  0.05516281  1
  Se  Se138  1  0.24466604  0.91557341  0.54465155  1
  Se  Se139  1  0.58350984  0.24611516  0.05676516  1
  Se  Se140  1  0.58449818  0.25092153  0.56066401  1
  Se  Se141  1  0.58035384  0.58169620  0.05730129  1
  Se  Se142  1  0.59039908  0.59405018  0.55571188  1
  Se  Se143  1  0.58513052  0.91446415  0.05731949  1
  Se  Se144  1  0.57945302  0.91607065  0.55279677  1
  Se  Se145  1  0.92687616  0.25459122  0.05180925  1
  Se  Se146  1  0.91983809  0.25035076  0.55037894  1
  Se  Se147  1  0.91626992  0.59074417  0.05970539  1
  Se  Se148  1  0.92837551  0.58567418  0.56539024  1
  Se  Se149  1  0.91505198  0.91788090  0.05049644  1
  Se  Se150  1  0.91600895  0.91253821  0.54789249  1
  Se  Se151  1  0.08161652  0.25611560  0.43666180  1
  Se  Se152  1  0.08888940  0.24473838  0.94009922  1
  Se  Se153  1  0.09716992  0.58474865  0.44835313  1
  Se  Se154  1  0.07143784  0.59037075  0.94077994  1
  Se  Se155  1  0.05963109  0.94561533  0.44283506  1
  Se  Se156  1  0.08802008  0.90873811  0.94876653  1
  Se  Se157  1  0.40418094  0.26426039  0.44756764  1
  Se  Se158  1  0.44224797  0.22608379  0.94487790  1
  Se  Se159  1  0.40872943  0.60406191  0.44225363  1
  Se  Se160  1  0.42005487  0.56833322  0.95124052  1
  Se  Se161  1  0.41800768  0.91529857  0.44155358  1
  Se  Se162  1  0.42253655  0.90888466  0.94838115  1
  Se  Se163  1  0.75186200  0.23789014  0.44566754  1
  Se  Se164  1  0.74013800  0.26206950  0.94094462  1
  Se  Se165  1  0.74453537  0.58471576  0.43806256  1
  Se  Se166  1  0.73915833  0.59613383  0.93909545  1
  Se  Se167  1  0.74895038  0.91169425  0.44441598  1
  Se  Se168  1  0.75112870  0.91628037  0.94788796  1
  Se  Se169  1  0.25503087  0.08217083  0.43869033  1
  Se  Se170  1  0.25399340  0.07276173  0.94944477  1
  Se  Se171  1  0.25455440  0.41987180  0.45733272  1
  Se  Se172  1  0.25079542  0.41338280  0.93283590  1
  Se  Se173  1  0.22960247  0.77955595  0.43948684  1
  Se  Se174  1  0.23860808  0.74989553  0.94816051  1
  Se  Se175  1  0.58311379  0.07304887  0.43357180  1
  Se  Se176  1  0.58929552  0.08065229  0.94846648  1
  Se  Se177  1  0.58930998  0.40733221  0.44301718  1
  Se  Se178  1  0.57784381  0.42625424  0.95776637  1
  Se  Se179  1  0.58108305  0.75387478  0.43969869  1
  Se  Se180  1  0.58320337  0.75210898  0.95254210  1
  Se  Se181  1  0.90938410  0.08871529  0.45521269  1
  Se  Se182  1  0.92757505  0.07238033  0.93304644  1
  Se  Se183  1  0.92784981  0.41101426  0.43811820  1
  Se  Se184  1  0.92682701  0.41454023  0.93671157  1
  Se  Se185  1  0.92219961  0.74051125  0.44888906  1
  Se  Se186  1  0.91210217  0.75651739  0.94786565  1
  Se  Se187  1  0.24568764  0.25285139  0.30395958  1
  Se  Se188  1  0.26029879  0.24266586  0.80506838  1
  Se  Se189  1  0.25260040  0.59177211  0.30578565  1
  Se  Se190  1  0.25169737  0.58638586  0.80157785  1
  Se  Se191  1  0.25529416  0.91952496  0.29846690  1
  Se  Se192  1  0.24723369  0.90526432  0.80803382  1
  Se  Se193  1  0.58279888  0.25029203  0.30146209  1
  Se  Se194  1  0.57184122  0.25187641  0.81785489  1
  Se  Se195  1  0.58503511  0.58361439  0.29948290  1
  Se  Se196  1  0.57522425  0.58715438  0.81317581  1
  Se  Se197  1  0.58394101  0.91551616  0.29741948  1
  Se  Se198  1  0.58215880  0.91873691  0.80489171  1
  Se  Se199  1  0.91703931  0.23838266  0.31176961  1
  Se  Se200  1  0.91541540  0.25078213  0.79653166  1
  Se  Se201  1  0.91964593  0.58286034  0.30484935  1
  Se  Se202  1  0.91243918  0.58764513  0.79867349  1
  Se  Se203  1  0.90955977  0.90668851  0.31644091  1
  Se  Se204  1  0.91241191  0.91132929  0.81000427  1
  Se  Se205  1  0.09798430  0.08861199  0.30680421  1
  Se  Se206  1  0.09179935  0.08149397  0.80725201  1
  Se  Se207  1  0.09025795  0.42183933  0.30681831  1
  Se  Se208  1  0.08385874  0.41315433  0.79850539  1
  Se  Se209  1  0.08111050  0.75587961  0.30507058  1
  Se  Se210  1  0.07936480  0.74474332  0.80103789  1
  Se  Se211  1  0.41094136  0.08560638  0.29903611  1
  Se  Se212  1  0.41503710  0.08481400  0.81662062  1
  Se  Se213  1  0.41991996  0.43063595  0.31553900  1
  Se  Se214  1  0.41647792  0.41285234  0.80709091  1
  Se  Se215  1  0.41528960  0.74939742  0.30037461  1
  Se  Se216  1  0.41662968  0.74738745  0.81006352  1
  Se  Se217  1  0.74828825  0.07252505  0.30541757  1
  Se  Se218  1  0.74487153  0.08280252  0.79764798  1
  Se  Se219  1  0.75120445  0.41024520  0.30324151  1
  Se  Se220  1  0.75491050  0.42964002  0.80898677  1
  Se  Se221  1  0.74630144  0.74560369  0.30368053  1
  Se  Se222  1  0.75182617  0.76073633  0.80995522  1
  Se  Se223  1  0.25559666  0.08327626  0.19184641  1
  Se  Se224  1  0.23651695  0.08787206  0.69592721  1
  Se  Se225  1  0.24549320  0.43515400  0.18993637  1
  Se  Se226  1  0.25434191  0.41432455  0.69626703  1
  Se  Se227  1  0.25292596  0.74936485  0.19651625  1
  Se  Se228  1  0.25625642  0.74711070  0.69326894  1
  Se  Se229  1  0.58656016  0.07725598  0.19805803  1
  Se  Se230  1  0.57366735  0.08124843  0.70364831  1
  Se  Se231  1  0.57692796  0.41259661  0.19501344  1
  Se  Se232  1  0.58015442  0.43132217  0.69541672  1
  Se  Se233  1  0.58675243  0.74495826  0.19577166  1
  Se  Se234  1  0.57549778  0.75681878  0.68972837  1
  Se  Se235  1  0.91173350  0.08850825  0.19450733  1
  Se  Se236  1  0.90636804  0.08643493  0.68302349  1
  Se  Se237  1  0.90834054  0.42601947  0.18510463  1
  Se  Se238  1  0.91145568  0.41651503  0.70225223  1
  Se  Se239  1  0.91927559  0.75151456  0.19995937  1
  Se  Se240  1  0.91698428  0.75190509  0.69787922  1
  Se  Se241  1  0.09240000  0.25128829  0.18408242  1
  Se  Se242  1  0.08565920  0.24874192  0.70099470  1
  Se  Se243  1  0.07631842  0.59292311  0.20168397  1
  Se  Se244  1  0.08717291  0.58242660  0.69741657  1
  Se  Se245  1  0.08936502  0.91383934  0.18841170  1
  Se  Se246  1  0.08981050  0.90644807  0.68958842  1
  Se  Se247  1  0.42204395  0.24251491  0.18704484  1
  Se  Se248  1  0.41476401  0.25124150  0.70293985  1
  Se  Se249  1  0.41455469  0.58703134  0.19474848  1
  Se  Se250  1  0.41377598  0.58652041  0.69984526  1
  Se  Se251  1  0.41526779  0.91561274  0.19555471  1
  Se  Se252  1  0.41465507  0.89906640  0.68726947  1
  Se  Se253  1  0.74855810  0.25167343  0.20234798  1
  Se  Se254  1  0.74914762  0.24536879  0.68589047  1
  Se  Se255  1  0.74985354  0.58187615  0.20128896  1
  Se  Se256  1  0.76290943  0.57581106  0.69303487  1
  Se  Se257  1  0.74847596  0.91632338  0.19886303  1
  Se  Se258  1  0.74462190  0.91854614  0.69251848  1
