# generated using pymatgen
data_In86Cu29Se144
_symmetry_space_group_name_H-M   'P 1'
_cell_length_a   17.58068775
_cell_length_b   17.58294635
_cell_length_c   23.44613142
_cell_angle_alpha   90.02669963
_cell_angle_beta   90.02025685
_cell_angle_gamma   89.97710985
_symmetry_Int_Tables_number   1
_chemical_formula_structural   In86Cu29Se144
_chemical_formula_sum   'In86 Cu29 Se144'
_cell_volume   7247.67311369
_cell_formula_units_Z   1
loop_
 _symmetry_equiv_pos_site_id
 _symmetry_equiv_pos_as_xyz
  1  'x, y, z'
loop_
 _atom_site_type_symbol
 _atom_site_label
 _atom_site_symmetry_multiplicity
 _atom_site_fract_x
 _atom_site_fract_y
 _atom_site_fract_z
 _atom_site_occupancy
  In  In0  1  0.00114058  0.15552161  0.11900460  1
  In  In1  1  0.00246853  0.18334449  0.62723786  1
  In  In2  1  -0.00439594  0.51079929  0.12037457  1
  In  In3  1  -0.01347901  0.50890098  0.63265946  1
  In  In4  1  -0.00242964  0.83190274  0.11678344  1
  In  In5  1  -0.00424651  0.81202015  0.62135338  1
  In  In6  1  0.34996680  0.17793324  0.11698652  1
  In  In7  1  0.34016548  0.16463519  0.62443806  1
  In  In8  1  0.36171854  0.48508909  0.14197945  1
  In  In9  1  0.33512897  0.48601674  0.62618343  1
  In  In10  1  0.33327016  0.82958090  0.12136757  1
  In  In11  1  0.33755431  0.83522800  0.61866683  1
  In  In12  1  0.65804019  0.18190958  0.13345887  1
  In  In13  1  0.67419957  0.17411315  0.61870161  1
  In  In14  1  0.65449242  0.48789256  0.11521494  1
  In  In15  1  0.66386084  0.49833022  0.62505013  1
  In  In16  1  0.67874126  0.84785761  0.11669424  1
  In  In17  1  0.64698773  0.82526340  0.62670006  1
  In  In18  1  0.15619738  -0.00674699  0.37727098  1
  In  In19  1  0.16855122  -0.00387192  0.88133077  1
  In  In20  1  0.17600036  0.32743083  0.37434445  1
  In  In21  1  0.16396059  0.31984322  0.86392175  1
  In  In22  1  0.17815096  0.66285851  0.37812347  1
  In  In23  1  0.16534776  0.67912757  0.87225155  1
  In  In24  1  0.51019864  -0.00838429  0.37698539  1
  In  In25  1  0.50923159  0.00050133  0.89169947  1
  In  In26  1  0.50061796  0.33538360  0.37792454  1
  In  In27  1  0.50217137  0.33182309  0.87220018  1
  In  In28  1  0.50156107  0.66823997  0.37840227  1
  In  In29  1  0.50266793  0.66101569  0.87913175  1
  In  In30  1  0.83549890  0.01142245  0.37637185  1
  In  In31  1  0.81535076  -0.01242049  0.88159614  1
  In  In32  1  0.82295440  0.34260589  0.38565926  1
  In  In33  1  0.83649156  0.34610593  0.86850824  1
  In  In34  1  0.82003327  0.66345791  0.37728655  1
  In  In35  1  0.82911208  0.66462044  0.87544730  1
  In  In36  1  -0.00821698  0.15456544  0.38304856  1
  In  In37  1  0.00076913  0.17932671  0.87037536  1
  In  In38  1  -0.00596895  0.49674438  0.38294445  1
  In  In39  1  -0.00982863  0.49273635  0.86664021  1
  In  In40  1  0.00225665  0.84941208  0.38397053  1
  In  In41  1  0.00281211  0.82438864  0.87536821  1
  In  In42  1  0.33836451  0.18664943  0.37061345  1
  In  In43  1  0.33059469  0.17120309  0.87983665  1
  In  In44  1  0.35173095  0.51298207  0.36252378  1
  In  In45  1  0.34918369  0.49065945  0.87626362  1
  In  In46  1  0.34328076  0.82385153  0.37858977  1
  In  In47  1  0.33395313  0.82922115  0.88464510  1
  In  In48  1  0.66378205  0.16830267  0.37794405  1
  In  In49  1  0.65216972  0.16265710  0.87640122  1
  In  In50  1  0.66742184  0.49665071  0.37975144  1
  In  In51  1  0.66451858  0.50198016  0.87381514  1
  In  In52  1  0.65466432  0.82438062  0.36974854  1
  In  In53  1  0.67116483  0.83153497  0.88504493  1
  In  In54  1  0.16289782  -0.00189349  0.11403660  1
  In  In55  1  0.17783465  0.00109654  0.62227027  1
  In  In56  1  0.18547632  0.33585520  0.12022210  1
  In  In57  1  0.16586741  0.32516196  0.64077204  1
  In  In58  1  0.17471272  0.67928250  0.12092919  1
  In  In59  1  0.15151308  0.66873731  0.62520792  1
  In  In60  1  0.52056156  0.01445015  0.11120633  1
  In  In61  1  0.49425222  -0.00083346  0.61712501  1
  In  In62  1  0.50476147  0.33548739  0.12442287  1
  In  In63  1  0.50082787  0.33373669  0.62351396  1
  In  In64  1  0.49545477  0.65858266  0.11954836  1
  In  In65  1  0.51204116  0.67511926  0.62225145  1
  In  In66  1  0.82629609  -0.01300955  0.12359994  1
  In  In67  1  0.81907512  0.00016115  0.62183594  1
  In  In68  1  0.81605307  0.32937963  0.12338036  1
  In  In69  1  0.82834494  0.33660385  0.62685613  1
  In  In70  1  0.83352361  0.66790600  0.11723236  1
  In  In71  1  0.84029496  0.65306326  0.63093212  1
  In  In72  1  0.83240400  0.83205336  0.49978484  1
  In  In73  1  0.17038486  0.50476520  -0.00132683  1
  In  In74  1  0.00129317  0.67248848  0.24583987  1
  In  In75  1  -0.00782236  0.00022088  0.25407793  1
  In  In76  1  0.65967675  0.66077220  0.24754767  1
  In  In77  1  0.33678836  0.00534127  0.74546222  1
  In  In78  1  0.00107382  0.00204476  0.75228051  1
  In  In79  1  0.33445873  0.66005758  0.75811719  1
  In  In80  1  0.16437261  0.50157577  0.50632976  1
  In  In81  1  0.66242220  -0.00075774  0.75523980  1
  In  In82  1  0.83437434  0.16603659  -0.00318017  1
  In  In83  1  0.33778140  0.00176074  0.24365181  1
  In  In84  1  0.00172403  0.33487211  0.25664194  1
  In  In85  1  0.16563048  0.16404447  0.49896540  1
  Cu  Cu86  1  0.17153449  0.17056055  0.24363416  1
  Cu  Cu87  1  0.82894700  0.82155486  0.75256377  1
  Cu  Cu88  1  0.66568699  0.66127896  0.50133563  1
  Cu  Cu89  1  0.50196402  0.83373941  0.24681607  1
  Cu  Cu90  1  0.33303302  -0.00346697  0.00368718  1
  Cu  Cu91  1  0.49961860  0.17029652  0.74917389  1
  Cu  Cu92  1  0.66401995  0.33915333  -0.00217684  1
  Cu  Cu93  1  0.66452593  0.33133055  0.50192090  1
  Cu  Cu94  1  0.33715706  0.66841694  0.49863404  1
  Cu  Cu95  1  0.82509877  0.50099948  0.74990339  1
  Cu  Cu96  1  0.17011769  0.83147034  0.24807053  1
  Cu  Cu97  1  0.50560956  0.17045793  0.24900975  1
  Cu  Cu98  1  0.82189264  0.16937490  0.25461332  1
  Cu  Cu99  1  0.83291670  0.17633071  0.74739444  1
  Cu  Cu100  1  0.33506993  -0.00119837  0.49597135  1
  Cu  Cu101  1  0.66197026  0.00176472  0.49905074  1
  Cu  Cu102  1  -0.00760231  0.33779311  0.50709342  1
  Cu  Cu103  1  0.50448200  0.49689474  0.75024383  1
  Cu  Cu104  1  0.00305444  -0.00337642  -0.00420127  1
  Cu  Cu105  1  0.16332945  0.49612051  0.74699055  1
  Cu  Cu106  1  0.66704301  0.66646145  -0.00131515  1
  Cu  Cu107  1  0.18072938  0.50490364  0.25040519  1
  Cu  Cu108  1  0.34017409  0.32959820  -0.00024281  1
  Cu  Cu109  1  0.00282000  0.33504493  -0.01065981  1
  Cu  Cu110  1  0.16524318  0.83290219  0.74856326  1
  Cu  Cu111  1  -0.00656847  0.66880995  -0.00311790  1
  Cu  Cu112  1  0.33329155  0.66209954  0.00072189  1
  Cu  Cu113  1  0.82816626  0.49575416  0.25077242  1
  Cu  Cu114  1  0.33883903  0.33763343  0.49827681  1
  Se  Se115  1  0.08470679  0.08535732  0.04533833  1
  Se  Se116  1  0.07562417  0.08040079  0.56227817  1
  Se  Se117  1  0.07859815  0.41125768  0.05790919  1
  Se  Se118  1  0.07964916  0.40872317  0.56801991  1
  Se  Se119  1  0.08115004  0.74630169  0.05176134  1
  Se  Se120  1  0.09170777  0.75597315  0.55034810  1
  Se  Se121  1  0.41933460  0.08447617  0.04961268  1
  Se  Se122  1  0.41434360  0.08564913  0.54954985  1
  Se  Se123  1  0.41901356  0.41666842  0.05415897  1
  Se  Se124  1  0.42165865  0.42012472  0.55211541  1
  Se  Se125  1  0.41641834  0.74775532  0.05229624  1
  Se  Se126  1  0.42141262  0.75033516  0.55344626  1
  Se  Se127  1  0.74729212  0.09016606  0.06606545  1
  Se  Se128  1  0.74850644  0.08427348  0.54903351  1
  Se  Se129  1  0.75356228  0.41823644  0.04931676  1
  Se  Se130  1  0.74767550  0.41696901  0.55495657  1
  Se  Se131  1  0.75119470  0.75137921  0.05068526  1
  Se  Se132  1  0.74444690  0.74327285  0.56265832  1
  Se  Se133  1  0.25200584  0.24597372  0.04911721  1
  Se  Se134  1  0.25290884  0.25953277  0.55745957  1
  Se  Se135  1  0.26222021  0.57969545  0.06605047  1
  Se  Se136  1  0.25934716  0.59204742  0.56420360  1
  Se  Se137  1  0.24764985  0.91057419  0.05241069  1
  Se  Se138  1  0.25265823  0.91750048  0.55126416  1
  Se  Se139  1  0.58528000  0.25258997  0.05284244  1
  Se  Se140  1  0.57950499  0.24734953  0.55355078  1
  Se  Se141  1  0.58185638  0.58191990  0.04964080  1
  Se  Se142  1  0.57987774  0.57991003  0.55422220  1
  Se  Se143  1  0.57594097  0.90564010  0.05076429  1
  Se  Se144  1  0.58247218  0.91575998  0.55336740  1
  Se  Se145  1  0.92446258  0.25980447  0.05748830  1
  Se  Se146  1  0.91060994  0.25003936  0.55722548  1
  Se  Se147  1  0.91207033  0.58159340  0.04770382  1
  Se  Se148  1  0.92520075  0.59079160  0.55422876  1
  Se  Se149  1  0.91680275  0.92007355  0.05169554  1
  Se  Se150  1  0.91999952  0.91993587  0.56336223  1
  Se  Se151  1  0.07277453  0.26154995  0.44249530  1
  Se  Se152  1  0.08795921  0.24823149  0.94386959  1
  Se  Se153  1  0.07679700  0.59224199  0.44436501  1
  Se  Se154  1  0.07578235  0.58846761  0.93703324  1
  Se  Se155  1  0.08470905  0.92238080  0.45528742  1
  Se  Se156  1  0.08435944  0.90881432  0.94412792  1
  Se  Se157  1  0.42002663  0.24863677  0.44913835  1
  Se  Se158  1  0.42384853  0.24786631  0.94463352  1
  Se  Se159  1  0.41838596  0.58227696  0.44619883  1
  Se  Se160  1  0.41700890  0.57927378  0.94764982  1
  Se  Se161  1  0.42061301  0.91450816  0.44437220  1
  Se  Se162  1  0.41688622  0.91433993  0.95018714  1
  Se  Se163  1  0.74946650  0.24718621  0.44914887  1
  Se  Se164  1  0.74580481  0.25811327  0.93723678  1
  Se  Se165  1  0.75092967  0.57847805  0.44993359  1
  Se  Se166  1  0.74898657  0.58060568  0.94517591  1
  Se  Se167  1  0.73995625  0.91821878  0.43777242  1
  Se  Se168  1  0.73406688  0.92525852  0.95762780  1
  Se  Se169  1  0.25869771  0.08072410  0.43335091  1
  Se  Se170  1  0.25341048  0.07994732  0.94628113  1
  Se  Se171  1  0.25495279  0.41846982  0.44128897  1
  Se  Se172  1  0.25417160  0.40729048  0.94035746  1
  Se  Se173  1  0.25153603  0.75142043  0.44740507  1
  Se  Se174  1  0.24700971  0.74550191  0.94960330  1
  Se  Se175  1  0.57808089  0.08534354  0.44614956  1
  Se  Se176  1  0.59158359  0.08555529  0.95644071  1
  Se  Se177  1  0.58272617  0.41678218  0.44869364  1
  Se  Se178  1  0.57945451  0.41902643  0.94228376  1
  Se  Se179  1  0.58507764  0.74895636  0.44857777  1
  Se  Se180  1  0.58004679  0.74843697  0.94791473  1
  Se  Se181  1  0.91845076  0.07303352  0.45387401  1
  Se  Se182  1  0.92294518  0.07457637  0.93369369  1
  Se  Se183  1  0.91080580  0.42195909  0.45352909  1
  Se  Se184  1  0.91483886  0.42001706  0.94541214  1
  Se  Se185  1  0.92101590  0.74253612  0.43825406  1
  Se  Se186  1  0.91063220  0.75310779  0.94352079  1
  Se  Se187  1  0.25208165  0.25559474  0.29646726  1
  Se  Se188  1  0.26682648  0.25430366  0.80279792  1
  Se  Se189  1  0.25801504  0.59464858  0.30137379  1
  Se  Se190  1  0.24087861  0.56926687  0.81536406  1
  Se  Se191  1  0.24811851  0.91479887  0.30796571  1
  Se  Se192  1  0.24874309  0.90979661  0.80704909  1
  Se  Se193  1  0.58447969  0.25265430  0.30786660  1
  Se  Se194  1  0.58701990  0.24968746  0.80200424  1
  Se  Se195  1  0.57356985  0.57085298  0.30840365  1
  Se  Se196  1  0.58121064  0.58496668  0.80403682  1
  Se  Se197  1  0.58552966  0.91651642  0.29973172  1
  Se  Se198  1  0.57459456  0.91043116  0.81446376  1
  Se  Se199  1  0.91002327  0.24400567  0.31392885  1
  Se  Se200  1  0.91675339  0.25687615  0.80176447  1
  Se  Se201  1  0.91175570  0.57784796  0.30646264  1
  Se  Se202  1  0.91100072  0.58415201  0.80293826  1
  Se  Se203  1  0.90415860  0.90568286  0.30963210  1
  Se  Se204  1  0.90520005  0.91152923  0.80860591  1
  Se  Se205  1  0.09100673  0.09517719  0.30601575  1
  Se  Se206  1  0.09471373  0.08869208  0.80975492  1
  Se  Se207  1  0.09557191  0.43109849  0.31152276  1
  Se  Se208  1  0.08150885  0.41301462  0.80310631  1
  Se  Se209  1  0.08769482  0.75932672  0.31225710  1
  Se  Se210  1  0.07974903  0.74876265  0.79843705  1
  Se  Se211  1  0.42368974  0.08944081  0.30871695  1
  Se  Se212  1  0.42901459  0.08430660  0.81202913  1
  Se  Se213  1  0.40163672  0.39702246  0.30900323  1
  Se  Se214  1  0.41873031  0.41170508  0.79958863  1
  Se  Se215  1  0.42426000  0.75067452  0.30432016  1
  Se  Se216  1  0.42186891  0.75710846  0.81084419  1
  Se  Se217  1  0.74456230  0.08178890  0.30761361  1
  Se  Se218  1  0.75918154  0.09183458  0.80962612  1
  Se  Se219  1  0.74809192  0.41534167  0.30741641  1
  Se  Se220  1  0.74191969  0.41638759  0.80195040  1
  Se  Se221  1  0.75545239  0.75312353  0.30251228  1
  Se  Se222  1  0.74171468  0.74849448  0.80927067  1
  Se  Se223  1  0.24608576  0.08883453  0.18240442  1
  Se  Se224  1  0.23947065  0.09766849  0.69489956  1
  Se  Se225  1  0.25434528  0.41374581  0.19753017  1
  Se  Se226  1  0.25330539  0.41441565  0.70035048  1
  Se  Se227  1  0.25547917  0.75036217  0.19670800  1
  Se  Se228  1  0.25049060  0.75228318  0.69170818  1
  Se  Se229  1  0.58564451  0.08272839  0.19686356  1
  Se  Se230  1  0.57766275  0.08702146  0.68861686  1
  Se  Se231  1  0.58580683  0.41755762  0.19464708  1
  Se  Se232  1  0.58457305  0.41248017  0.69467716  1
  Se  Se233  1  0.58214011  0.75607400  0.18351468  1
  Se  Se234  1  0.58133264  0.74543924  0.70356235  1
  Se  Se235  1  0.90487185  0.09374622  0.19247936  1
  Se  Se236  1  0.90623727  0.08684242  0.69040883  1
  Se  Se237  1  0.91374707  0.42059430  0.19028231  1
  Se  Se238  1  0.91166856  0.41694467  0.69817312  1
  Se  Se239  1  0.90644055  0.76067978  0.19088162  1
  Se  Se240  1  0.91684179  0.74431457  0.69913418  1
  Se  Se241  1  0.08496863  0.24834366  0.18654590  1
  Se  Se242  1  0.07908414  0.24631106  0.70648769  1
  Se  Se243  1  0.09499421  0.57828907  0.19027238  1
  Se  Se244  1  0.08147475  0.58406919  0.69851129  1
  Se  Se245  1  0.08651875  0.91242117  0.19172058  1
  Se  Se246  1  0.08705158  0.91283311  0.68762517  1
  Se  Se247  1  0.42081243  0.25207348  0.19522728  1
  Se  Se248  1  0.41639380  0.25061289  0.69350963  1
  Se  Se249  1  0.41835763  0.59464095  0.20022153  1
  Se  Se250  1  0.42170878  0.57763335  0.69081921  1
  Se  Se251  1  0.42868301  0.91630743  0.18320785  1
  Se  Se252  1  0.42678492  0.90811581  0.69377728  1
  Se  Se253  1  0.74475997  0.25970780  0.20361967  1
  Se  Se254  1  0.74309559  0.25380039  0.69607525  1
  Se  Se255  1  0.75450627  0.57606084  0.18660641  1
  Se  Se256  1  0.74265791  0.58454390  0.69580450  1
  Se  Se257  1  0.74609472  0.91925643  0.19895884  1
  Se  Se258  1  0.75150351  0.90568504  0.69354897  1
