# generated using pymatgen
data_In86Cu29Se144
_symmetry_space_group_name_H-M   'P 1'
_cell_length_a   17.60634498
_cell_length_b   17.59884558
_cell_length_c   23.47146358
_cell_angle_alpha   89.99083544
_cell_angle_beta   90.00514472
_cell_angle_gamma   89.99984811
_symmetry_Int_Tables_number   1
_chemical_formula_structural   In86Cu29Se144
_chemical_formula_sum   'In86 Cu29 Se144'
_cell_volume   7272.66447304
_cell_formula_units_Z   1
loop_
 _symmetry_equiv_pos_site_id
 _symmetry_equiv_pos_as_xyz
  1  'x, y, z'
loop_
 _atom_site_type_symbol
 _atom_site_label
 _atom_site_symmetry_multiplicity
 _atom_site_fract_x
 _atom_site_fract_y
 _atom_site_fract_z
 _atom_site_occupancy
  In  In0  1  -0.00469548  0.15757101  0.12087507  1
  In  In1  1  -0.01207939  0.17003740  0.64082676  1
  In  In2  1  0.00061477  0.49807916  0.11185241  1
  In  In3  1  -0.00870890  0.49199944  0.62977175  1
  In  In4  1  0.00937747  0.84651434  0.12044179  1
  In  In5  1  0.01245082  0.84683417  0.61496813  1
  In  In6  1  0.30622915  0.12705909  0.07320897  1
  In  In7  1  0.34876235  0.16900025  0.62437943  1
  In  In8  1  0.33284985  0.50686822  0.12721307  1
  In  In9  1  0.33087461  0.48193549  0.62719979  1
  In  In10  1  0.31624296  0.84955210  0.13813549  1
  In  In11  1  0.32301686  0.85232129  0.61879377  1
  In  In12  1  0.66741906  0.16695423  0.12516537  1
  In  In13  1  0.66356555  0.17092247  0.62774958  1
  In  In14  1  0.66153109  0.48407601  0.12314635  1
  In  In15  1  0.66932702  0.50388117  0.62846487  1
  In  In16  1  0.68106807  0.83926237  0.12378791  1
  In  In17  1  0.66955488  0.81971791  0.62689589  1
  In  In18  1  0.15235288  -0.00291236  0.36248623  1
  In  In19  1  0.15678782  0.02115502  0.89619712  1
  In  In20  1  0.16927285  0.32659114  0.37158023  1
  In  In21  1  0.16027850  0.32944901  0.87594092  1
  In  In22  1  0.18073040  0.66853628  0.37400335  1
  In  In23  1  0.16082942  0.66714998  0.88514773  1
  In  In24  1  0.51347563  0.00697327  0.36907705  1
  In  In25  1  0.49554908  0.01602789  0.88136409  1
  In  In26  1  0.50687533  0.31626805  0.38472319  1
  In  In27  1  0.49554177  0.31073157  0.84812522  1
  In  In28  1  0.48617181  0.67280289  0.37689383  1
  In  In29  1  0.50339673  0.65388393  0.87246997  1
  In  In30  1  0.83471578  0.00552334  0.37551732  1
  In  In31  1  0.83949912  -0.01139043  0.88005455  1
  In  In32  1  0.81745157  0.33545128  0.37417894  1
  In  In33  1  0.83801163  0.32813420  0.87329367  1
  In  In34  1  0.84602877  0.67813754  0.37760596  1
  In  In35  1  0.82901400  0.67234491  0.87611819  1
  In  In36  1  0.00090577  0.15315692  0.37220527  1
  In  In37  1  -0.00726898  0.16473683  0.87345129  1
  In  In38  1  0.00850774  0.49938331  0.37571867  1
  In  In39  1  0.01038292  0.48725604  0.88299324  1
  In  In40  1  -0.01524705  0.84453911  0.38777553  1
  In  In41  1  -0.00106608  0.84333461  0.87825118  1
  In  In42  1  0.34283128  0.16919836  0.37208343  1
  In  In43  1  0.32488776  0.18693987  0.89251934  1
  In  In44  1  0.33629679  0.51114271  0.37509878  1
  In  In45  1  0.33910570  0.47401322  0.88452022  1
  In  In46  1  0.32720177  0.83482517  0.36874636  1
  In  In47  1  0.32153700  0.83501341  0.88036902  1
  In  In48  1  0.66820604  0.16682502  0.37664354  1
  In  In49  1  0.66552364  0.17589367  0.87564836  1
  In  In50  1  0.66620360  0.48032520  0.37652040  1
  In  In51  1  0.67044620  0.50156802  0.87056571  1
  In  In52  1  0.66928289  0.85058680  0.37449530  1
  In  In53  1  0.67970992  0.83808853  0.87236051  1
  In  In54  1  0.16654294  -0.00162093  0.12470771  1
  In  In55  1  0.16909765  -0.00875687  0.62153218  1
  In  In56  1  0.17028373  0.31130203  0.10569111  1
  In  In57  1  0.16651698  0.32872469  0.64028971  1
  In  In58  1  0.16996691  0.67612100  0.12095454  1
  In  In59  1  0.15953019  0.68171624  0.62498437  1
  In  In60  1  0.48415570  0.02229482  0.13537574  1
  In  In61  1  0.49323504  0.01264073  0.61767215  1
  In  In62  1  0.50578513  0.32793773  0.12506015  1
  In  In63  1  0.49899796  0.33321736  0.62644986  1
  In  In64  1  0.48927553  0.65524476  0.12982508  1
  In  In65  1  0.51856724  0.66605773  0.62302492  1
  In  In66  1  0.83468590  0.00398083  0.12681952  1
  In  In67  1  0.84380485  0.01736060  0.62233616  1
  In  In68  1  0.82178658  0.32263058  0.11345034  1
  In  In69  1  0.83316391  0.31517787  0.64228853  1
  In  In70  1  0.84028379  0.67287637  0.11508271  1
  In  In71  1  0.82927491  0.66428920  0.62240459  1
  In  In72  1  0.16883710  0.16104036  0.49636017  1
  In  In73  1  0.66724593  0.00417420  0.74793398  1
  In  In74  1  0.33557460  0.66359236  0.75386325  1
  In  In75  1  0.50076640  0.83738689  0.00590956  1
  In  In76  1  0.83223824  0.49965923  0.50827547  1
  In  In77  1  0.33708961  0.32450669  0.24416197  1
  In  In78  1  0.00339914  0.67094396  0.25367542  1
  In  In79  1  0.50346761  0.83576504  0.49856431  1
  In  In80  1  0.33014479  0.00692512  0.75153107  1
  In  In81  1  -0.00675821  0.32329859  0.22980793  1
  In  In82  1  -0.00336562  0.66120552  0.74445723  1
  In  In83  1  0.65825734  0.66707947  0.24962982  1
  In  In84  1  0.50480202  0.49533843  -0.00006868  1
  In  In85  1  0.16971989  0.50747256  0.49948938  1
  Cu  Cu86  1  0.50825562  0.16828629  0.25124085  1
  Cu  Cu87  1  -0.00575330  0.33046706  0.50973360  1
  Cu  Cu88  1  0.67342665  0.66336335  0.50173573  1
  Cu  Cu89  1  0.15979860  0.84270740  0.75126302  1
  Cu  Cu90  1  0.66247057  0.32358763  0.50347428  1
  Cu  Cu91  1  0.16438712  0.16396293  0.76088542  1
  Cu  Cu92  1  0.16534486  0.49321310  0.24540049  1
  Cu  Cu93  1  -0.00186479  -0.00249023  0.00151934  1
  Cu  Cu94  1  0.49664210  0.83498304  0.25391587  1
  Cu  Cu95  1  0.83403594  0.49457133  0.75210215  1
  Cu  Cu96  1  0.83679741  0.84496663  0.25101335  1
  Cu  Cu97  1  -0.00834868  0.66618280  -0.00275771  1
  Cu  Cu98  1  0.32415423  0.66836595  0.00522678  1
  Cu  Cu99  1  0.50492699  0.83365691  0.74856660  1
  Cu  Cu100  1  0.34087438  0.33238392  0.50294218  1
  Cu  Cu101  1  -0.00420008  0.00627911  0.49938250  1
  Cu  Cu102  1  0.83566739  0.83282711  0.75288855  1
  Cu  Cu103  1  -0.00186879  0.32479182  -0.00478139  1
  Cu  Cu104  1  0.16627282  0.83547635  0.24696064  1
  Cu  Cu105  1  0.33951754  0.66735533  0.49889204  1
  Cu  Cu106  1  0.50631809  0.49895254  0.74842728  1
  Cu  Cu107  1  0.67307981  0.00455757  0.00112584  1
  Cu  Cu108  1  0.82855509  0.16739742  0.24862903  1
  Cu  Cu109  1  0.49547842  0.49376186  0.25031606  1
  Cu  Cu110  1  0.67282104  0.00521938  0.49754223  1
  Cu  Cu111  1  0.82360509  0.50128496  0.24645621  1
  Cu  Cu112  1  0.17110960  0.49609810  0.75946249  1
  Cu  Cu113  1  0.66935110  0.33632103  -0.00581570  1
  Cu  Cu114  1  0.67334279  0.67051462  -0.00330414  1
  Se  Se115  1  0.08382775  0.08063673  0.05294165  1
  Se  Se116  1  0.07414116  0.08537049  0.56278908  1
  Se  Se117  1  0.08185055  0.40571209  0.05113630  1
  Se  Se118  1  0.08359722  0.41061322  0.56079702  1
  Se  Se119  1  0.07419232  0.74568559  0.05550276  1
  Se  Se120  1  0.09000948  0.75707350  0.54932259  1
  Se  Se121  1  0.44028016  0.08254804  0.04198684  1
  Se  Se122  1  0.38862948  0.06487466  0.55322630  1
  Se  Se123  1  0.41154884  0.41269750  0.06079208  1
  Se  Se124  1  0.42065686  0.42012361  0.55393270  1
  Se  Se125  1  0.40873334  0.74552823  0.06346501  1
  Se  Se126  1  0.41393646  0.74816405  0.56400621  1
  Se  Se127  1  0.75457272  0.08779193  0.05645917  1
  Se  Se128  1  0.74651364  0.08900669  0.55864406  1
  Se  Se129  1  0.74955775  0.42117088  0.04872871  1
  Se  Se130  1  0.74734285  0.40196571  0.56373769  1
  Se  Se131  1  0.75289028  0.75571639  0.05046390  1
  Se  Se132  1  0.75375207  0.75091728  0.55163185  1
  Se  Se133  1  0.27038284  0.26074639  0.03617875  1
  Se  Se134  1  0.24990141  0.25870416  0.55922068  1
  Se  Se135  1  0.24504987  0.57993040  0.05708956  1
  Se  Se136  1  0.25988052  0.59290052  0.56490062  1
  Se  Se137  1  0.23954279  0.90494407  0.05640685  1
  Se  Se138  1  0.24409882  0.92053532  0.54391232  1
  Se  Se139  1  0.59087424  0.25431713  0.05351647  1
  Se  Se140  1  0.57542623  0.24384275  0.55663189  1
  Se  Se141  1  0.59184782  0.59367526  0.05871516  1
  Se  Se142  1  0.58940258  0.57879947  0.55163427  1
  Se  Se143  1  0.58968692  0.92887369  0.06384805  1
  Se  Se144  1  0.59429964  0.92443718  0.56125394  1
  Se  Se145  1  0.91591810  0.24406872  0.05247634  1
  Se  Se146  1  0.91340891  0.24786178  0.56353564  1
  Se  Se147  1  0.91039778  0.57881843  0.04839038  1
  Se  Se148  1  0.93254540  0.59066601  0.55788571  1
  Se  Se149  1  0.91241735  0.91681032  0.05592941  1
  Se  Se150  1  0.91367660  0.92297109  0.55473856  1
  Se  Se151  1  0.07408540  0.25817297  0.44260999  1
  Se  Se152  1  0.08204713  0.24016567  0.94371815  1
  Se  Se153  1  0.07735228  0.59716823  0.44189051  1
  Se  Se154  1  0.08052556  0.58106007  0.95095869  1
  Se  Se155  1  0.08161384  0.92678110  0.44473558  1
  Se  Se156  1  0.08590860  0.91357626  0.95083787  1
  Se  Se157  1  0.41639723  0.24078541  0.45180859  1
  Se  Se158  1  0.43620305  0.25899770  0.93989483  1
  Se  Se159  1  0.42170847  0.58089154  0.44933898  1
  Se  Se160  1  0.40737201  0.58981126  0.94545431  1
  Se  Se161  1  0.41883154  0.92115709  0.43423495  1
  Se  Se162  1  0.40934654  0.92292486  0.94418798  1
  Se  Se163  1  0.75163367  0.24904950  0.44792772  1
  Se  Se164  1  0.75427562  0.24955102  0.94562840  1
  Se  Se165  1  0.74868293  0.58461794  0.43613497  1
  Se  Se166  1  0.74979887  0.58274415  0.94268606  1
  Se  Se167  1  0.75503700  0.91932599  0.44688870  1
  Se  Se168  1  0.75023124  0.91339002  0.95019457  1
  Se  Se169  1  0.25119168  0.07643510  0.43025660  1
  Se  Se170  1  0.26635610  0.07937451  0.95441821  1
  Se  Se171  1  0.25754445  0.40915278  0.44116238  1
  Se  Se172  1  0.23527360  0.41805881  0.94656423  1
  Se  Se173  1  0.25743999  0.75061488  0.44555034  1
  Se  Se174  1  0.24398671  0.75284854  0.95074863  1
  Se  Se175  1  0.58388756  0.08533506  0.44696054  1
  Se  Se176  1  0.59123219  0.08650127  0.94574429  1
  Se  Se177  1  0.58252947  0.41095710  0.45040082  1
  Se  Se178  1  0.58323421  0.40749282  0.93223412  1
  Se  Se179  1  0.59495378  0.74391234  0.43837931  1
  Se  Se180  1  0.58599712  0.74634232  0.93911614  1
  Se  Se181  1  0.91327844  0.09102119  0.44714623  1
  Se  Se182  1  0.91588196  0.07992250  0.94635522  1
  Se  Se183  1  0.92309900  0.41140273  0.44316650  1
  Se  Se184  1  0.91500086  0.41287795  0.94650155  1
  Se  Se185  1  0.91719147  0.74927772  0.45461935  1
  Se  Se186  1  0.91584141  0.75376923  0.94181457  1
  Se  Se187  1  0.24129167  0.23621001  0.30259428  1
  Se  Se188  1  0.25042456  0.24878659  0.80913914  1
  Se  Se189  1  0.24481569  0.57533931  0.30243397  1
  Se  Se190  1  0.24866265  0.57798455  0.81828721  1
  Se  Se191  1  0.24978100  0.92096023  0.29961149  1
  Se  Se192  1  0.23734924  0.92180279  0.81348930  1
  Se  Se193  1  0.58810309  0.25297904  0.30610685  1
  Se  Se194  1  0.60718239  0.25362606  0.79125093  1
  Se  Se195  1  0.57476158  0.57432081  0.31286928  1
  Se  Se196  1  0.58806151  0.58501641  0.79981400  1
  Se  Se197  1  0.58751885  0.91756175  0.29880472  1
  Se  Se198  1  0.57446144  0.91714319  0.81296711  1
  Se  Se199  1  0.91032314  0.25047515  0.30769960  1
  Se  Se200  1  0.92242121  0.25259041  0.80222977  1
  Se  Se201  1  0.90858714  0.57301060  0.30744900  1
  Se  Se202  1  0.91527160  0.57512544  0.81233591  1
  Se  Se203  1  0.92091933  0.92243580  0.30729995  1
  Se  Se204  1  0.91989181  0.91678202  0.80272683  1
  Se  Se205  1  0.08223814  0.09146296  0.29571686  1
  Se  Se206  1  0.08389335  0.07695124  0.81084853  1
  Se  Se207  1  0.08242609  0.41183835  0.30100122  1
  Se  Se208  1  0.08016575  0.41288979  0.80353991  1
  Se  Se209  1  0.08839930  0.76175744  0.31478295  1
  Se  Se210  1  0.08660674  0.75071452  0.80630046  1
  Se  Se211  1  0.42246373  0.08552814  0.30300974  1
  Se  Se212  1  0.41288133  0.09867571  0.81263168  1
  Se  Se213  1  0.41944082  0.41251860  0.31383944  1
  Se  Se214  1  0.41838179  0.42050535  0.80088316  1
  Se  Se215  1  0.41193670  0.74885981  0.30172129  1
  Se  Se216  1  0.42293761  0.75984185  0.81298199  1
  Se  Se217  1  0.74878348  0.08404217  0.30603234  1
  Se  Se218  1  0.75590466  0.08204614  0.81478282  1
  Se  Se219  1  0.74465307  0.41356536  0.29762523  1
  Se  Se220  1  0.75165008  0.41303158  0.80624453  1
  Se  Se221  1  0.75692121  0.75555844  0.30565196  1
  Se  Se222  1  0.74919694  0.74883441  0.80092046  1
  Se  Se223  1  0.26831047  0.08493215  0.17392086  1
  Se  Se224  1  0.23970941  0.09449057  0.68871359  1
  Se  Se225  1  0.24036191  0.41068812  0.18486718  1
  Se  Se226  1  0.25343196  0.41287816  0.70471122  1
  Se  Se227  1  0.24821774  0.74487801  0.19960219  1
  Se  Se228  1  0.24818497  0.76368901  0.69666679  1
  Se  Se229  1  0.59061067  0.08249888  0.19760429  1
  Se  Se230  1  0.56603026  0.08981601  0.69569266  1
  Se  Se231  1  0.58079547  0.41335951  0.19801823  1
  Se  Se232  1  0.58675615  0.41669081  0.69263787  1
  Se  Se233  1  0.57336326  0.75874265  0.18698497  1
  Se  Se234  1  0.58685320  0.74622853  0.70052227  1
  Se  Se235  1  0.91613429  0.08592279  0.19804734  1
  Se  Se236  1  0.91027175  0.08109015  0.70667892  1
  Se  Se237  1  0.90370803  0.42587840  0.18301165  1
  Se  Se238  1  0.91786715  0.41008195  0.70110950  1
  Se  Se239  1  0.91299780  0.75838914  0.19219733  1
  Se  Se240  1  0.91507392  0.75921324  0.68635442  1
  Se  Se241  1  0.09686369  0.23516763  0.18620295  1
  Se  Se242  1  0.08105644  0.24744505  0.70524576  1
  Se  Se243  1  0.08369486  0.57652451  0.18946900  1
  Se  Se244  1  0.09776606  0.57256746  0.69073312  1
  Se  Se245  1  0.08148743  0.92135748  0.19811213  1
  Se  Se246  1  0.08013346  0.92443805  0.69494323  1
  Se  Se247  1  0.42269998  0.23393134  0.18554122  1
  Se  Se248  1  0.40765108  0.26077376  0.69548407  1
  Se  Se249  1  0.41019576  0.58072080  0.20433111  1
  Se  Se250  1  0.42383700  0.57945059  0.68815190  1
  Se  Se251  1  0.41698286  0.92014339  0.19846502  1
  Se  Se252  1  0.42266804  0.91279713  0.69176893  1
  Se  Se253  1  0.74905510  0.25376868  0.19479283  1
  Se  Se254  1  0.73328017  0.24836300  0.70665630  1
  Se  Se255  1  0.75081135  0.58520914  0.18540148  1
  Se  Se256  1  0.75743951  0.58264653  0.69669959  1
  Se  Se257  1  0.74979644  0.92296197  0.19813594  1
  Se  Se258  1  0.75602982  0.91129423  0.68919789  1
