# generated using pymatgen
data_In86Cu29Se144
_symmetry_space_group_name_H-M   'P 1'
_cell_length_a   17.54675626
_cell_length_b   17.55275791
_cell_length_c   23.40693281
_cell_angle_alpha   90.00446304
_cell_angle_beta   90.00861168
_cell_angle_gamma   89.99391088
_symmetry_Int_Tables_number   1
_chemical_formula_structural   In86Cu29Se144
_chemical_formula_sum   'In86 Cu29 Se144'
_cell_volume   7209.19389196
_cell_formula_units_Z   1
loop_
 _symmetry_equiv_pos_site_id
 _symmetry_equiv_pos_as_xyz
  1  'x, y, z'
loop_
 _atom_site_type_symbol
 _atom_site_label
 _atom_site_symmetry_multiplicity
 _atom_site_fract_x
 _atom_site_fract_y
 _atom_site_fract_z
 _atom_site_occupancy
  In  In0  1  -0.01970373  0.19298345  0.14130439  1
  In  In1  1  0.00965039  0.16829907  0.61396064  1
  In  In2  1  -0.02759423  0.50861495  0.14868843  1
  In  In3  1  -0.01100284  0.50212765  0.63229049  1
  In  In4  1  -0.02053980  0.84136087  0.12623270  1
  In  In5  1  -0.01792421  0.82918383  0.62301302  1
  In  In6  1  0.34830879  0.16880281  0.13178673  1
  In  In7  1  0.33346779  0.16590177  0.61880803  1
  In  In8  1  0.34463995  0.49226219  0.13767193  1
  In  In9  1  0.33435997  0.48648098  0.61965544  1
  In  In10  1  0.34642369  0.81800642  0.13097872  1
  In  In11  1  0.35506513  0.83687178  0.62426682  1
  In  In12  1  0.66560880  0.17049497  0.13429945  1
  In  In13  1  0.66620574  0.16702799  0.60711381  1
  In  In14  1  0.69118175  0.48976075  0.14374369  1
  In  In15  1  0.67435691  0.51008138  0.61734513  1
  In  In16  1  0.66384070  0.83307334  0.12851705  1
  In  In17  1  0.66746273  0.83195109  0.61804693  1
  In  In18  1  0.17318441  0.00961407  0.37921760  1
  In  In19  1  0.17315739  -0.01392969  0.87010931  1
  In  In20  1  0.15461428  0.32154675  0.36876413  1
  In  In21  1  0.16236848  0.34380076  0.87839033  1
  In  In22  1  0.15510696  0.65162839  0.36918007  1
  In  In23  1  0.15680700  0.68257154  0.87295268  1
  In  In24  1  0.50605451  -0.00123326  0.37581523  1
  In  In25  1  0.49713014  0.00709927  0.88148993  1
  In  In26  1  0.51510853  0.33442742  0.37090937  1
  In  In27  1  0.49283071  0.31502045  0.88303415  1
  In  In28  1  0.50442815  0.67245218  0.37094960  1
  In  In29  1  0.51669831  0.66213923  0.87486786  1
  In  In30  1  0.81212266  0.02445785  0.38441320  1
  In  In31  1  0.81719890  0.00256347  0.89316227  1
  In  In32  1  0.79653764  0.30253222  0.32396077  1
  In  In33  1  0.84285993  0.32549995  0.88235146  1
  In  In34  1  0.83564771  0.66434761  0.36492556  1
  In  In35  1  0.83236850  0.66692635  0.88028177  1
  In  In36  1  -0.02666949  0.19081446  0.38906782  1
  In  In37  1  -0.01269217  0.16820266  0.87535965  1
  In  In38  1  -0.02155589  0.48688364  0.35770306  1
  In  In39  1  -0.00868905  0.49288890  0.87396243  1
  In  In40  1  -0.00817747  0.82212554  0.37482525  1
  In  In41  1  -0.00463323  0.82361857  0.87544308  1
  In  In42  1  0.33536909  0.16958635  0.37594927  1
  In  In43  1  0.35460966  0.16932318  0.87896033  1
  In  In44  1  0.34716856  0.50897441  0.36649025  1
  In  In45  1  0.32990619  0.48668521  0.88042475  1
  In  In46  1  0.35048515  0.83543840  0.37493492  1
  In  In47  1  0.32659910  0.84448692  0.87217589  1
  In  In48  1  0.67114001  0.16249948  0.36715760  1
  In  In49  1  0.66337159  0.16634317  0.89159372  1
  In  In50  1  0.65658024  0.47860353  0.35239603  1
  In  In51  1  0.66338872  0.51839371  0.87593449  1
  In  In52  1  0.66757096  0.83666452  0.37243080  1
  In  In53  1  0.67420821  0.82482591  0.89162582  1
  In  In54  1  0.16394476  -0.00218827  0.12471594  1
  In  In55  1  0.16837232  0.02110276  0.62258155  1
  In  In56  1  0.16743137  0.34105503  0.13233505  1
  In  In57  1  0.16728195  0.32009659  0.62225821  1
  In  In58  1  0.17040282  0.66120221  0.13106112  1
  In  In59  1  0.15800279  0.65182291  0.62308500  1
  In  In60  1  0.53836075  0.02368678  0.10227836  1
  In  In61  1  0.49827150  -0.00342348  0.62049601  1
  In  In62  1  0.50072981  0.32506722  0.13840995  1
  In  In63  1  0.49941979  0.32746430  0.60355268  1
  In  In64  1  0.50052901  0.67119341  0.13122703  1
  In  In65  1  0.51424810  0.68095955  0.61385687  1
  In  In66  1  0.81073056  -0.00507437  0.11708168  1
  In  In67  1  0.84284193  -0.00318226  0.60847614  1
  In  In68  1  0.82491471  0.32771963  0.12960728  1
  In  In69  1  0.83932949  0.34031513  0.62146975  1
  In  In70  1  0.82965391  0.66849746  0.13551705  1
  In  In71  1  0.82424178  0.67058519  0.62941512  1
  In  In72  1  0.16356155  0.49435165  -0.00308715  1
  In  In73  1  0.16209576  0.83278217  -0.00549287  1
  In  In74  1  0.16849927  0.49534697  0.49668848  1
  In  In75  1  0.81996759  0.48908183  0.48509156  1
  In  In76  1  0.17054463  0.83752768  0.49676734  1
  In  In77  1  0.16292346  0.16176689  0.00815886  1
  In  In78  1  0.66831238  -0.00448260  0.75397462  1
  In  In79  1  0.67033790  0.34067493  0.74466334  1
  In  In80  1  0.00004289  -0.00300013  0.74964343  1
  In  In81  1  0.33130533  0.66706415  0.74926357  1
  In  In82  1  -0.00954388  0.00414984  0.25099164  1
  In  In83  1  0.34580858  -0.00322236  0.25714829  1
  In  In84  1  0.33139558  0.33185611  0.75309643  1
  In  In85  1  0.51425659  0.49419966  0.01464109  1
  Cu  Cu86  1  0.34084453  0.00715383  0.49613168  1
  Cu  Cu87  1  0.50358260  0.50699241  0.74392290  1
  Cu  Cu88  1  0.66856544  -0.00167870  0.49481347  1
  Cu  Cu89  1  0.50137606  0.16062945  0.75171289  1
  Cu  Cu90  1  0.34471101  0.67022884  0.49063111  1
  Cu  Cu91  1  0.17305296  0.50074199  0.25381912  1
  Cu  Cu92  1  0.83425158  0.50689593  0.75326454  1
  Cu  Cu93  1  0.66682749  0.66850612  0.49360356  1
  Cu  Cu94  1  0.16669472  0.83472486  0.74602936  1
  Cu  Cu95  1  0.50558989  0.83717915  0.24857199  1
  Cu  Cu96  1  0.15051422  0.50486018  0.75362541  1
  Cu  Cu97  1  -0.01143058  0.66132523  0.49735747  1
  Cu  Cu98  1  0.33926331  -0.00379949  0.00061595  1
  Cu  Cu99  1  0.67542513  0.66594648  0.00729005  1
  Cu  Cu100  1  0.50749348  0.83243592  0.74524996  1
  Cu  Cu101  1  0.16740097  0.16412809  0.25505925  1
  Cu  Cu102  1  0.83153347  0.82892000  0.75387356  1
  Cu  Cu103  1  0.82935020  0.83520099  0.25034196  1
  Cu  Cu104  1  -0.00283136  0.32968388  0.49803095  1
  Cu  Cu105  1  0.34108549  0.33810893  0.49038247  1
  Cu  Cu106  1  0.16547325  0.17147897  0.74326521  1
  Cu  Cu107  1  0.16385427  0.82240048  0.25390167  1
  Cu  Cu108  1  0.83765170  0.17139024  0.75121166  1
  Cu  Cu109  1  0.34616366  0.65857235  0.00623797  1
  Cu  Cu110  1  -0.00954096  0.33811352  0.00953993  1
  Cu  Cu111  1  -0.01159700  0.66743422  0.00661033  1
  Cu  Cu112  1  0.49682357  0.50636958  0.25254553  1
  Cu  Cu113  1  0.66766789  0.33767904  0.01072345  1
  Cu  Cu114  1  -0.01631609  0.00885377  0.00529244  1
  Se  Se115  1  0.06363792  0.08256089  0.06921948  1
  Se  Se116  1  0.08112288  0.07619264  0.54662456  1
  Se  Se117  1  0.07197321  0.42028341  0.06601360  1
  Se  Se118  1  0.07314756  0.41257755  0.55968940  1
  Se  Se119  1  0.07751063  0.74633566  0.06230911  1
  Se  Se120  1  0.07819344  0.73875552  0.55284874  1
  Se  Se121  1  0.41487652  0.08218987  0.05714079  1
  Se  Se122  1  0.42443587  0.08858314  0.55294812  1
  Se  Se123  1  0.41264983  0.40574441  0.06128001  1
  Se  Se124  1  0.42023992  0.42520383  0.54377606  1
  Se  Se125  1  0.42617802  0.74833719  0.05314475  1
  Se  Se126  1  0.42200759  0.75618695  0.54676137  1
  Se  Se127  1  0.74240831  0.09538856  0.05656272  1
  Se  Se128  1  0.75552382  0.08233920  0.54605228  1
  Se  Se129  1  0.75484356  0.42121838  0.05851236  1
  Se  Se130  1  0.73515757  0.40110888  0.55317945  1
  Se  Se131  1  0.75532891  0.75173179  0.06199315  1
  Se  Se132  1  0.75219517  0.74722308  0.55149360  1
  Se  Se133  1  0.25348017  0.25193788  0.06502429  1
  Se  Se134  1  0.25840070  0.25744120  0.55003942  1
  Se  Se135  1  0.25893658  0.57945468  0.05931956  1
  Se  Se136  1  0.26179734  0.59199029  0.55195453  1
  Se  Se137  1  0.25675764  0.91542091  0.05958881  1
  Se  Se138  1  0.26199886  0.92520997  0.55956428  1
  Se  Se139  1  0.58312099  0.25528420  0.06284059  1
  Se  Se140  1  0.58099817  0.24317320  0.53938377  1
  Se  Se141  1  0.60279785  0.58524738  0.07289297  1
  Se  Se142  1  0.58458706  0.58401052  0.54869032  1
  Se  Se143  1  0.57027865  0.89582705  0.05567609  1
  Se  Se144  1  0.58498557  0.91783101  0.55251772  1
  Se  Se145  1  0.90692830  0.24721367  0.05496502  1
  Se  Se146  1  0.91326309  0.24932433  0.55403571  1
  Se  Se147  1  0.91200268  0.58328846  0.06446638  1
  Se  Se148  1  0.90751013  0.57808076  0.55536685  1
  Se  Se149  1  0.90442076  0.91576336  0.05087260  1
  Se  Se150  1  0.91997219  0.90644182  0.54419832  1
  Se  Se151  1  0.08721392  0.24666820  0.44984060  1
  Se  Se152  1  0.07382427  0.25811801  0.94775450  1
  Se  Se153  1  0.06444896  0.57445629  0.43989916  1
  Se  Se154  1  0.07432564  0.59516601  0.94383513  1
  Se  Se155  1  0.07727617  0.92019016  0.43641805  1
  Se  Se156  1  0.06737810  0.93111101  0.94227513  1
  Se  Se157  1  0.42539158  0.25256403  0.43936656  1
  Se  Se158  1  0.41587204  0.24581565  0.95950707  1
  Se  Se159  1  0.42741749  0.58286589  0.44137978  1
  Se  Se160  1  0.42081945  0.57583959  0.94306906  1
  Se  Se161  1  0.42258527  0.91903050  0.44764232  1
  Se  Se162  1  0.41607056  0.91123747  0.94360300  1
  Se  Se163  1  0.76561506  0.25002177  0.42427801  1
  Se  Se164  1  0.74885724  0.25626506  0.95082912  1
  Se  Se165  1  0.73540341  0.58638836  0.42913034  1
  Se  Se166  1  0.75206599  0.58085164  0.95021644  1
  Se  Se167  1  0.75292767  0.91347847  0.44408545  1
  Se  Se168  1  0.73109352  0.92549988  0.95900095  1
  Se  Se169  1  0.25325370  0.09091768  0.44904521  1
  Se  Se170  1  0.25244292  0.07491925  0.94155103  1
  Se  Se171  1  0.25560877  0.41299500  0.43085547  1
  Se  Se172  1  0.26298783  0.39364797  0.95379657  1
  Se  Se173  1  0.25279930  0.74190785  0.43404266  1
  Se  Se174  1  0.26236590  0.73748453  0.94370586  1
  Se  Se175  1  0.58820888  0.08558207  0.44188297  1
  Se  Se176  1  0.57926916  0.08122225  0.95342901  1
  Se  Se177  1  0.59450265  0.41934111  0.44045926  1
  Se  Se178  1  0.59078549  0.40844898  0.93910484  1
  Se  Se179  1  0.58259898  0.75556120  0.44296461  1
  Se  Se180  1  0.58323396  0.73967311  0.95377562  1
  Se  Se181  1  0.92309643  0.07681826  0.44584500  1
  Se  Se182  1  0.90730110  0.09445113  0.94887253  1
  Se  Se183  1  0.91403777  0.39735882  0.43315486  1
  Se  Se184  1  0.91212016  0.42148295  0.95049693  1
  Se  Se185  1  0.90611847  0.74394384  0.44431595  1
  Se  Se186  1  0.91185584  0.75473598  0.95033486  1
  Se  Se187  1  0.25248143  0.24896629  0.30496930  1
  Se  Se188  1  0.24257575  0.24083251  0.81599450  1
  Se  Se189  1  0.25566438  0.58973260  0.30253094  1
  Se  Se190  1  0.24058184  0.57583489  0.81368607  1
  Se  Se191  1  0.24308118  0.90771411  0.31032671  1
  Se  Se192  1  0.25490551  0.91871519  0.79264248  1
  Se  Se193  1  0.60769778  0.26726420  0.29833019  1
  Se  Se194  1  0.58371186  0.24439472  0.80749110  1
  Se  Se195  1  0.58563668  0.58943864  0.30031921  1
  Se  Se196  1  0.58879469  0.58866016  0.79552440  1
  Se  Se197  1  0.58632486  0.92158216  0.30249502  1
  Se  Se198  1  0.58020999  0.90753632  0.81539366  1
  Se  Se199  1  0.92641799  0.24185049  0.29279041  1
  Se  Se200  1  0.92025372  0.25648277  0.80180539  1
  Se  Se201  1  0.92606048  0.59395780  0.29435824  1
  Se  Se202  1  0.91798762  0.58833287  0.80916401  1
  Se  Se203  1  0.90439365  0.91624794  0.31459645  1
  Se  Se204  1  0.90348686  0.91817232  0.81443124  1
  Se  Se205  1  0.08168561  0.09035793  0.31365070  1
  Se  Se206  1  0.09053914  0.08934914  0.80985986  1
  Se  Se207  1  0.08510775  0.41617778  0.30197731  1
  Se  Se208  1  0.07655148  0.41141814  0.80476090  1
  Se  Se209  1  0.07618583  0.74336553  0.30506458  1
  Se  Se210  1  0.07808389  0.75552954  0.79753645  1
  Se  Se211  1  0.43346707  0.09745867  0.30641363  1
  Se  Se212  1  0.41616109  0.07959061  0.80395944  1
  Se  Se213  1  0.42165214  0.41271197  0.30362537  1
  Se  Se214  1  0.43099571  0.42314499  0.80897469  1
  Se  Se215  1  0.41865928  0.75313143  0.29928879  1
  Se  Se216  1  0.42487366  0.75412645  0.80948408  1
  Se  Se217  1  0.74788833  0.07676506  0.29525981  1
  Se  Se218  1  0.75431129  0.09458181  0.81200794  1
  Se  Se219  1  0.78506681  0.44792000  0.30189668  1
  Se  Se220  1  0.75480316  0.42392862  0.81371995  1
  Se  Se221  1  0.74602009  0.75002799  0.30288340  1
  Se  Se222  1  0.74735633  0.75142250  0.81191838  1
  Se  Se223  1  0.24585494  0.08164416  0.19575215  1
  Se  Se224  1  0.25563011  0.09013692  0.69587955  1
  Se  Se225  1  0.25600088  0.41332933  0.20352254  1
  Se  Se226  1  0.23637245  0.42492512  0.69417660  1
  Se  Se227  1  0.25140650  0.74826224  0.19736743  1
  Se  Se228  1  0.24429345  0.75417349  0.68314137  1
  Se  Se229  1  0.58559182  0.07594430  0.19717608  1
  Se  Se230  1  0.58705119  0.08923444  0.68922268  1
  Se  Se231  1  0.58018878  0.42343488  0.19765803  1
  Se  Se232  1  0.57445280  0.42036900  0.68154289  1
  Se  Se233  1  0.58849243  0.74611882  0.20082720  1
  Se  Se234  1  0.59119113  0.75031864  0.69304048  1
  Se  Se235  1  0.89693284  0.08524927  0.18868554  1
  Se  Se236  1  0.91085887  0.08620815  0.68832027  1
  Se  Se237  1  0.92793931  0.38651484  0.19825296  1
  Se  Se238  1  0.91117554  0.41510577  0.70063138  1
  Se  Se239  1  0.91886597  0.75407811  0.20135189  1
  Se  Se240  1  0.91435420  0.74642704  0.69887537  1
  Se  Se241  1  0.09042474  0.25113712  0.19965688  1
  Se  Se242  1  0.07709041  0.25061358  0.69338709  1
  Se  Se243  1  0.08657762  0.57877299  0.19769442  1
  Se  Se244  1  0.07152205  0.58945384  0.69872654  1
  Se  Se245  1  0.08739819  0.90802112  0.19483723  1
  Se  Se246  1  0.08810463  0.91299454  0.68204888  1
  Se  Se247  1  0.40972758  0.25359477  0.20745653  1
  Se  Se248  1  0.42794183  0.24983853  0.69094390  1
  Se  Se249  1  0.41354646  0.59198841  0.19998812  1
  Se  Se250  1  0.41923439  0.58168603  0.68309700  1
  Se  Se251  1  0.42944083  0.91890804  0.18536395  1
  Se  Se252  1  0.42325758  0.92131731  0.69952681  1
  Se  Se253  1  0.73335699  0.26577779  0.20695969  1
  Se  Se254  1  0.75382083  0.24124137  0.68668933  1
  Se  Se255  1  0.76345628  0.58077966  0.21158544  1
  Se  Se256  1  0.74606828  0.58256098  0.69774560  1
  Se  Se257  1  0.74491481  0.91791936  0.19808584  1
  Se  Se258  1  0.76190611  0.91431969  0.68937725  1
