# generated using pymatgen
data_In86Cu29Se144
_symmetry_space_group_name_H-M   'P 1'
_cell_length_a   17.57846104
_cell_length_b   17.57783993
_cell_length_c   23.43761116
_cell_angle_alpha   90.00736590
_cell_angle_beta   90.01548897
_cell_angle_gamma   90.03575642
_symmetry_Int_Tables_number   1
_chemical_formula_structural   In86Cu29Se144
_chemical_formula_sum   'In86 Cu29 Se144'
_cell_volume   7242.01794824
_cell_formula_units_Z   1
loop_
 _symmetry_equiv_pos_site_id
 _symmetry_equiv_pos_as_xyz
  1  'x, y, z'
loop_
 _atom_site_type_symbol
 _atom_site_label
 _atom_site_symmetry_multiplicity
 _atom_site_fract_x
 _atom_site_fract_y
 _atom_site_fract_z
 _atom_site_occupancy
  In  In0  1  -0.00090998  0.18474688  0.12353308  1
  In  In1  1  0.00941889  0.17233734  0.62413199  1
  In  In2  1  0.01243804  0.48791523  0.13870287  1
  In  In3  1  0.00569353  0.48561678  0.62666937  1
  In  In4  1  -0.01070582  0.82103054  0.13406502  1
  In  In5  1  -0.00309051  0.82308940  0.61405938  1
  In  In6  1  0.34916549  0.15737696  0.12028554  1
  In  In7  1  0.32696201  0.15970041  0.62316789  1
  In  In8  1  0.33634307  0.50234905  0.12141994  1
  In  In9  1  0.34264499  0.50732087  0.62355040  1
  In  In10  1  0.33305999  0.82673399  0.12515183  1
  In  In11  1  0.33804707  0.83159393  0.62306096  1
  In  In12  1  0.66481288  0.16385478  0.12302760  1
  In  In13  1  0.65741261  0.17177553  0.62761917  1
  In  In14  1  0.65210861  0.49930455  0.12820414  1
  In  In15  1  0.64175267  0.49474526  0.62578802  1
  In  In16  1  0.66662183  0.84335134  0.13060171  1
  In  In17  1  0.66478696  0.84194086  0.60930081  1
  In  In18  1  0.17404933  -0.00250241  0.38728278  1
  In  In19  1  0.17387804  -0.00764652  0.86878048  1
  In  In20  1  0.15899081  0.34377940  0.38320223  1
  In  In21  1  0.17015934  0.35465492  0.86856747  1
  In  In22  1  0.17433086  0.66327169  0.37296143  1
  In  In23  1  0.18118646  0.64678295  0.87802678  1
  In  In24  1  0.51560643  0.00081884  0.38775607  1
  In  In25  1  0.50063950  -0.00305712  0.86972445  1
  In  In26  1  0.51111005  0.32580720  0.38282310  1
  In  In27  1  0.50448411  0.32096355  0.88080878  1
  In  In28  1  0.49110598  0.67534756  0.38318979  1
  In  In29  1  0.48696992  0.67683910  0.87933945  1
  In  In30  1  0.81296695  0.00097016  0.37738761  1
  In  In31  1  0.83227619  0.01709279  0.87834965  1
  In  In32  1  0.84054535  0.35294290  0.35471035  1
  In  In33  1  0.82144665  0.32265215  0.86721961  1
  In  In34  1  0.84360498  0.66479991  0.37510514  1
  In  In35  1  0.83229562  0.67719220  0.87848553  1
  In  In36  1  -0.00139871  0.18167440  0.37462425  1
  In  In37  1  -0.01561315  0.16990309  0.87679516  1
  In  In38  1  0.02135979  0.51786189  0.35351597  1
  In  In39  1  0.01673161  0.49897572  0.87463971  1
  In  In40  1  0.01340919  0.82481122  0.38533168  1
  In  In41  1  -0.00250089  0.83605872  0.87081643  1
  In  In42  1  0.34085908  0.16444449  0.38734700  1
  In  In43  1  0.34777422  0.16330611  0.87603227  1
  In  In44  1  0.32040323  0.51130356  0.37868385  1
  In  In45  1  0.32661710  0.50873405  0.87828279  1
  In  In46  1  0.34423267  0.82544323  0.38044391  1
  In  In47  1  0.35309210  0.84753688  0.85447079  1
  In  In48  1  0.66525329  0.16714014  0.37147726  1
  In  In49  1  0.66474225  0.16387801  0.87200823  1
  In  In50  1  0.67222950  0.48850578  0.37532109  1
  In  In51  1  0.66140817  0.48172321  0.87258126  1
  In  In52  1  0.64774284  0.84422377  0.39686429  1
  In  In53  1  0.64508965  0.82856497  0.87137083  1
  In  In54  1  0.17629518  -0.00845344  0.12676936  1
  In  In55  1  0.17370275  0.00334130  0.62180197  1
  In  In56  1  0.15211087  0.33577369  0.12795802  1
  In  In57  1  0.16691347  0.33075786  0.62120581  1
  In  In58  1  0.18459436  0.64844695  0.14514784  1
  In  In59  1  0.17551580  0.67006193  0.61981122  1
  In  In60  1  0.50877308  0.01148472  0.11181671  1
  In  In61  1  0.50183014  -0.00210664  0.62152119  1
  In  In62  1  0.50437108  0.33578403  0.11979964  1
  In  In63  1  0.50931728  0.34616109  0.62240438  1
  In  In64  1  0.49021977  0.65817380  0.12218892  1
  In  In65  1  0.49143479  0.65261703  0.61006373  1
  In  In66  1  0.81267314  -0.00431120  0.12578172  1
  In  In67  1  0.82468328  -0.01150212  0.61690580  1
  In  In68  1  0.84177148  0.32846444  0.13118034  1
  In  In69  1  0.83232561  0.32980677  0.63164058  1
  In  In70  1  0.83995636  0.67129214  0.13330277  1
  In  In71  1  0.81574666  0.67099677  0.61487903  1
  In  In72  1  0.33917107  0.33373342  0.75131376  1
  In  In73  1  0.17247997  0.83110380  0.00135568  1
  In  In74  1  0.82831619  0.16672816  0.49429728  1
  In  In75  1  -0.00685181  0.00237090  0.25354556  1
  In  In76  1  0.67176923  0.66042535  0.25673711  1
  In  In77  1  0.82680123  0.49804194  0.00163995  1
  In  In78  1  0.33023949  0.34008270  0.25249240  1
  In  In79  1  0.17082634  0.17748445  -0.00340265  1
  In  In80  1  0.65463773  0.66185082  0.74187994  1
  In  In81  1  0.00462903  0.66641749  0.74825117  1
  In  In82  1  0.00015413  0.00302097  0.73978909  1
  In  In83  1  0.82791977  0.83503695  0.01002251  1
  In  In84  1  0.34250522  -0.00344501  0.24707835  1
  In  In85  1  0.83703399  0.50266385  0.49357783  1
  Cu  Cu86  1  0.66296066  -0.00035930  -0.00403321  1
  Cu  Cu87  1  0.50652986  0.83131237  0.25906721  1
  Cu  Cu88  1  0.16652648  0.82549730  0.25661693  1
  Cu  Cu89  1  0.16675113  0.17220905  0.25460116  1
  Cu  Cu90  1  0.49342670  0.50025185  0.25031888  1
  Cu  Cu91  1  0.82160253  0.83954579  0.74149165  1
  Cu  Cu92  1  0.00386155  0.00235104  0.50318341  1
  Cu  Cu93  1  -0.00466774  0.34237171  0.00284978  1
  Cu  Cu94  1  0.00746244  0.65777863  0.49517971  1
  Cu  Cu95  1  0.33248220  0.66822141  0.00190252  1
  Cu  Cu96  1  0.66902131  0.33588987  0.49832435  1
  Cu  Cu97  1  0.82581142  0.16702318  0.75024383  1
  Cu  Cu98  1  0.82708358  0.16816995  0.24867898  1
  Cu  Cu99  1  0.33407612  0.33799934  -0.00319531  1
  Cu  Cu100  1  0.83715117  0.49629724  0.75031767  1
  Cu  Cu101  1  0.49762813  0.83569748  0.74314230  1
  Cu  Cu102  1  0.32682065  0.66553332  0.49886196  1
  Cu  Cu103  1  0.66341959  0.32294187  -0.00154755  1
  Cu  Cu104  1  0.00929798  0.66375465  0.00781112  1
  Cu  Cu105  1  0.00714582  0.33660112  0.49530251  1
  Cu  Cu106  1  0.00242757  0.01047607  0.00254482  1
  Cu  Cu107  1  0.65304491  0.66057761  0.00069283  1
  Cu  Cu108  1  0.16466833  0.17135322  0.74611554  1
  Cu  Cu109  1  0.17641980  0.82594595  0.74483018  1
  Cu  Cu110  1  0.33427193  -0.00084565  0.50575116  1
  Cu  Cu111  1  0.50229898  0.16287349  0.75005846  1
  Cu  Cu112  1  0.82786956  0.83463951  0.25756509  1
  Cu  Cu113  1  0.33720614  0.33405881  0.50389586  1
  Cu  Cu114  1  0.50914503  0.16493645  0.25064186  1
  Se  Se115  1  0.08643057  0.08325874  0.06373670  1
  Se  Se116  1  0.08598217  0.08614745  0.55599451  1
  Se  Se117  1  0.08281854  0.42221324  0.05417587  1
  Se  Se118  1  0.08888559  0.41834645  0.55070480  1
  Se  Se119  1  0.08572246  0.74664079  0.06749976  1
  Se  Se120  1  0.08744770  0.74511078  0.54963896  1
  Se  Se121  1  0.41485852  0.07900528  0.04397736  1
  Se  Se122  1  0.41782988  0.08629353  0.55525247  1
  Se  Se123  1  0.41784709  0.41820036  0.05400133  1
  Se  Se124  1  0.42118582  0.42111441  0.55312627  1
  Se  Se125  1  0.41727745  0.75095320  0.05434645  1
  Se  Se126  1  0.41377009  0.74859928  0.54939695  1
  Se  Se127  1  0.74748055  0.08099165  0.05106033  1
  Se  Se128  1  0.73807981  0.08151697  0.55532636  1
  Se  Se129  1  0.73901955  0.40660112  0.06141252  1
  Se  Se130  1  0.74981091  0.41482891  0.55984714  1
  Se  Se131  1  0.73699520  0.73603343  0.06283386  1
  Se  Se132  1  0.76376298  0.76985088  0.54612032  1
  Se  Se133  1  0.25870550  0.26082736  0.06503573  1
  Se  Se134  1  0.25126793  0.24881411  0.55404517  1
  Se  Se135  1  0.24754443  0.58698448  0.05664159  1
  Se  Se136  1  0.25001027  0.57729181  0.55318778  1
  Se  Se137  1  0.26667812  0.92726468  0.05306538  1
  Se  Se138  1  0.24933361  0.91285558  0.55523266  1
  Se  Se139  1  0.57794360  0.24239734  0.05347882  1
  Se  Se140  1  0.58530279  0.25564325  0.55360533  1
  Se  Se141  1  0.57373621  0.57487492  0.05376134  1
  Se  Se142  1  0.61072005  0.60196308  0.55631292  1
  Se  Se143  1  0.58782738  0.91191068  0.05294759  1
  Se  Se144  1  0.56607460  0.91049824  0.54589534  1
  Se  Se145  1  0.91262174  0.25353794  0.05044060  1
  Se  Se146  1  0.92134634  0.25833662  0.55349072  1
  Se  Se147  1  0.91892699  0.58643562  0.06088501  1
  Se  Se148  1  0.92559767  0.58770684  0.56254459  1
  Se  Se149  1  0.92677001  0.92622827  0.06440634  1
  Se  Se150  1  0.91858441  0.91698216  0.55138781  1
  Se  Se151  1  0.08832587  0.24456748  0.44850331  1
  Se  Se152  1  0.07541392  0.26322634  0.93851082  1
  Se  Se153  1  0.08961071  0.57639002  0.44082217  1
  Se  Se154  1  0.08663389  0.58319163  0.94904005  1
  Se  Se155  1  0.08784246  0.91562315  0.45271536  1
  Se  Se156  1  0.07520399  0.92576451  0.94286497  1
  Se  Se157  1  0.42297055  0.25061642  0.45249765  1
  Se  Se158  1  0.41558668  0.24703056  0.95136616  1
  Se  Se159  1  0.41319222  0.58178428  0.44760323  1
  Se  Se160  1  0.41529319  0.58379883  0.94802545  1
  Se  Se161  1  0.41528676  0.92193130  0.44505067  1
  Se  Se162  1  0.42265243  0.90798311  0.93755112  1
  Se  Se163  1  0.75426313  0.26797957  0.43327501  1
  Se  Se164  1  0.74947784  0.24438200  0.94367968  1
  Se  Se165  1  0.74110655  0.59229923  0.44074170  1
  Se  Se166  1  0.73901446  0.59060149  0.93905513  1
  Se  Se167  1  0.75072751  0.91877940  0.45379979  1
  Se  Se168  1  0.74604604  0.91606188  0.93771564  1
  Se  Se169  1  0.25148539  0.08607629  0.45352407  1
  Se  Se170  1  0.25322629  0.07691369  0.94098322  1
  Se  Se171  1  0.25367316  0.41572739  0.44841638  1
  Se  Se172  1  0.24705990  0.42104769  0.94812304  1
  Se  Se173  1  0.24739079  0.75215711  0.44419667  1
  Se  Se174  1  0.26127946  0.75012807  0.93533620  1
  Se  Se175  1  0.58173067  0.10413192  0.44816714  1
  Se  Se176  1  0.58098385  0.08153543  0.94034949  1
  Se  Se177  1  0.58371289  0.42215363  0.44929332  1
  Se  Se178  1  0.58194360  0.41224603  0.94934260  1
  Se  Se179  1  0.57795161  0.74401044  0.45594949  1
  Se  Se180  1  0.57679804  0.75188359  0.94964731  1
  Se  Se181  1  0.92454064  0.07628989  0.43724018  1
  Se  Se182  1  0.91319614  0.08965632  0.95324203  1
  Se  Se183  1  0.92893737  0.41598704  0.43427388  1
  Se  Se184  1  0.91541875  0.41433477  0.93561471  1
  Se  Se185  1  0.92108523  0.74418619  0.44834483  1
  Se  Se186  1  0.92881381  0.74779849  0.95043515  1
  Se  Se187  1  0.25077334  0.24435402  0.31587032  1
  Se  Se188  1  0.24575279  0.24327487  0.81253044  1
  Se  Se189  1  0.24677782  0.57936731  0.29918774  1
  Se  Se190  1  0.25089059  0.57737737  0.79832196  1
  Se  Se191  1  0.24790882  0.91335929  0.30964217  1
  Se  Se192  1  0.25225553  0.92045793  0.79350727  1
  Se  Se193  1  0.58594182  0.25469486  0.30297294  1
  Se  Se194  1  0.58299958  0.24931320  0.80342978  1
  Se  Se195  1  0.57246892  0.57807381  0.31417294  1
  Se  Se196  1  0.57692357  0.58186132  0.81568443  1
  Se  Se197  1  0.58602262  0.91740760  0.31187341  1
  Se  Se198  1  0.58359879  0.91651753  0.79693892  1
  Se  Se199  1  0.91623548  0.24850363  0.29887123  1
  Se  Se200  1  0.91529851  0.24880893  0.79971412  1
  Se  Se201  1  0.89508563  0.56094675  0.30879019  1
  Se  Se202  1  0.90879150  0.58206484  0.81208002  1
  Se  Se203  1  0.91288860  0.91147351  0.31836791  1
  Se  Se204  1  0.90660841  0.91489982  0.80344597  1
  Se  Se205  1  0.09222406  0.08447321  0.31238721  1
  Se  Se206  1  0.08469117  0.08997658  0.80918799  1
  Se  Se207  1  0.08426148  0.40513915  0.30131411  1
  Se  Se208  1  0.07876121  0.41701840  0.79747211  1
  Se  Se209  1  0.08053223  0.74456307  0.30765126  1
  Se  Se210  1  0.09535669  0.75509544  0.81146388  1
  Se  Se211  1  0.42601994  0.08769511  0.31082594  1
  Se  Se212  1  0.41537927  0.08042278  0.80042517  1
  Se  Se213  1  0.42175234  0.42044978  0.31729460  1
  Se  Se214  1  0.42226910  0.41880832  0.81779517  1
  Se  Se215  1  0.41656503  0.74723433  0.30331835  1
  Se  Se216  1  0.41900807  0.74305853  0.79364159  1
  Se  Se217  1  0.74588143  0.08341816  0.30100235  1
  Se  Se218  1  0.74715185  0.07862471  0.80200035  1
  Se  Se219  1  0.73431415  0.41353903  0.29436079  1
  Se  Se220  1  0.74802895  0.41446661  0.79935542  1
  Se  Se221  1  0.74658122  0.75854822  0.32010827  1
  Se  Se222  1  0.74984747  0.75417511  0.80397851  1
  Se  Se223  1  0.24659470  0.09366256  0.19370878  1
  Se  Se224  1  0.24666004  0.08335601  0.69795949  1
  Se  Se225  1  0.23968787  0.42595969  0.19178737  1
  Se  Se226  1  0.25072141  0.41965870  0.68892042  1
  Se  Se227  1  0.25742835  0.75270856  0.20194783  1
  Se  Se228  1  0.25946925  0.74289612  0.69313570  1
  Se  Se229  1  0.58384237  0.07768961  0.19322985  1
  Se  Se230  1  0.58305400  0.07935127  0.69434544  1
  Se  Se231  1  0.57476866  0.41440322  0.19835170  1
  Se  Se232  1  0.58400123  0.41168085  0.70380935  1
  Se  Se233  1  0.58064473  0.74856997  0.19364591  1
  Se  Se234  1  0.57593548  0.75714745  0.68023765  1
  Se  Se235  1  0.90870090  0.08871378  0.18658572  1
  Se  Se236  1  0.90390045  0.09161554  0.68352138  1
  Se  Se237  1  0.91344207  0.41745661  0.19898410  1
  Se  Se238  1  0.91909191  0.41245637  0.69735796  1
  Se  Se239  1  0.91312742  0.74798510  0.21104230  1
  Se  Se240  1  0.90493454  0.75269656  0.69059516  1
  Se  Se241  1  0.08046482  0.25075533  0.20136530  1
  Se  Se242  1  0.08244188  0.25661632  0.69631701  1
  Se  Se243  1  0.06070556  0.60610172  0.19282346  1
  Se  Se244  1  0.09278078  0.57759791  0.68952717  1
  Se  Se245  1  0.08865624  0.90864194  0.19606773  1
  Se  Se246  1  0.08670790  0.90192120  0.68777154  1
  Se  Se247  1  0.42159092  0.24378592  0.19500592  1
  Se  Se248  1  0.42429204  0.24407716  0.68766993  1
  Se  Se249  1  0.41119206  0.58312099  0.19724504  1
  Se  Se250  1  0.43558354  0.57536969  0.69264193  1
  Se  Se251  1  0.43346389  0.90838614  0.18881520  1
  Se  Se252  1  0.41316959  0.92125806  0.69230929  1
  Se  Se253  1  0.74553363  0.24912790  0.19187596  1
  Se  Se254  1  0.74323482  0.25156629  0.69700421  1
  Se  Se255  1  0.75608590  0.57266444  0.19084745  1
  Se  Se256  1  0.75624993  0.57370455  0.68884968  1
  Se  Se257  1  0.74580915  0.91868552  0.20543768  1
  Se  Se258  1  0.73752693  0.91962263  0.68952234  1
