# generated using pymatgen
data_In86Cu29Se144
_symmetry_space_group_name_H-M   'P 1'
_cell_length_a   17.72585617
_cell_length_b   17.72424929
_cell_length_c   23.58376693
_cell_angle_alpha   90.00664085
_cell_angle_beta   89.96324033
_cell_angle_gamma   90.00501541
_symmetry_Int_Tables_number   1
_chemical_formula_structural   In86Cu29Se144
_chemical_formula_sum   'In86 Cu29 Se144'
_cell_volume   7409.48718203
_cell_formula_units_Z   1
loop_
 _symmetry_equiv_pos_site_id
 _symmetry_equiv_pos_as_xyz
  1  'x, y, z'
loop_
 _atom_site_type_symbol
 _atom_site_label
 _atom_site_symmetry_multiplicity
 _atom_site_fract_x
 _atom_site_fract_y
 _atom_site_fract_z
 _atom_site_occupancy
  In  In0  1  0.01131049  0.15557377  0.13127046  1
  In  In1  1  0.00481628  0.17110357  0.61165925  1
  In  In2  1  0.02014982  0.48771696  0.14952505  1
  In  In3  1  0.01433161  0.49678590  0.62011712  1
  In  In4  1  0.00302618  0.83547809  0.12925524  1
  In  In5  1  0.00500082  0.83998102  0.62037326  1
  In  In6  1  0.32551982  0.17116430  0.11923585  1
  In  In7  1  0.33262408  0.16219957  0.62364129  1
  In  In8  1  0.33569205  0.46312228  0.13390989  1
  In  In9  1  0.31581714  0.49068927  0.61907255  1
  In  In10  1  0.33624385  0.85454073  0.13256829  1
  In  In11  1  0.34789394  0.85421237  0.60927155  1
  In  In12  1  0.61958441  0.18879788  0.18367276  1
  In  In13  1  0.66506865  0.17102677  0.61519627  1
  In  In14  1  0.65121284  0.49157155  0.11996589  1
  In  In15  1  0.65328713  0.48752684  0.62049864  1
  In  In16  1  0.67457180  0.83099886  0.12559324  1
  In  In17  1  0.66854970  0.84895174  0.61267736  1
  In  In18  1  0.16789073  0.00037129  0.37396594  1
  In  In19  1  0.17572504  0.00008510  0.88322536  1
  In  In20  1  0.16343768  0.33303319  0.37111406  1
  In  In21  1  0.17147798  0.31643707  0.87851267  1
  In  In22  1  0.16838252  0.67966014  0.38342750  1
  In  In23  1  0.17716966  0.67235202  0.87930583  1
  In  In24  1  0.50077210  0.01079077  0.36409639  1
  In  In25  1  0.49869268  0.01471672  0.87851895  1
  In  In26  1  0.49620025  0.32229016  0.36034097  1
  In  In27  1  0.49355768  0.32784623  0.87404584  1
  In  In28  1  0.50191556  0.67378469  0.37907051  1
  In  In29  1  0.48698193  0.65966678  0.87670609  1
  In  In30  1  0.83618176  0.00001473  0.37500892  1
  In  In31  1  0.82068022  -0.00049325  0.88401458  1
  In  In32  1  0.83152853  0.32309520  0.36308054  1
  In  In33  1  0.83090668  0.33307227  0.87172443  1
  In  In34  1  0.84800849  0.66937651  0.37491182  1
  In  In35  1  0.84027640  0.66974900  0.87979508  1
  In  In36  1  0.00091086  0.16380470  0.37396532  1
  In  In37  1  0.00629319  0.17202556  0.87983867  1
  In  In38  1  0.01342595  0.50892820  0.36328010  1
  In  In39  1  -0.00317436  0.49774813  0.87703685  1
  In  In40  1  0.00237830  0.83521052  0.37660684  1
  In  In41  1  -0.00081624  0.83750448  0.88561321  1
  In  In42  1  0.33530459  0.16403888  0.36699832  1
  In  In43  1  0.33363161  0.16852204  0.87684000  1
  In  In44  1  0.33458947  0.48820408  0.37348941  1
  In  In45  1  0.34796586  0.49430910  0.87773429  1
  In  In46  1  0.32861501  0.84194876  0.37558870  1
  In  In47  1  0.32303733  0.83393205  0.88063176  1
  In  In48  1  0.67094778  0.16933220  0.36609844  1
  In  In49  1  0.65132196  0.16800020  0.87983085  1
  In  In50  1  0.67394929  0.49183323  0.36983683  1
  In  In51  1  0.66297633  0.47573174  0.87217305  1
  In  In52  1  0.65639295  0.85258311  0.37783552  1
  In  In53  1  0.66820239  0.84810467  0.88290426  1
  In  In54  1  0.16926400  0.00164820  0.12559324  1
  In  In55  1  0.18521228  0.01906099  0.60671170  1
  In  In56  1  0.19608835  0.31808390  0.14261393  1
  In  In57  1  0.16867020  0.32908458  0.61673054  1
  In  In58  1  0.15514311  0.66423673  0.12809138  1
  In  In59  1  0.19045815  0.68345229  0.60376565  1
  In  In60  1  0.46402314  0.03646567  0.17862570  1
  In  In61  1  0.49330650  0.00178862  0.61828568  1
  In  In62  1  0.48905775  0.32921760  0.12255482  1
  In  In63  1  0.50510492  0.31836278  0.63319545  1
  In  In64  1  0.50824765  0.66214207  0.12390719  1
  In  In65  1  0.48420151  0.66836137  0.61858171  1
  In  In66  1  0.83921899  -0.00463745  0.13117615  1
  In  In67  1  0.83531067  0.00492908  0.61552173  1
  In  In68  1  0.82405576  0.33283867  0.12994208  1
  In  In69  1  0.82511337  0.31820613  0.61569526  1
  In  In70  1  0.83825879  0.67501413  0.12741430  1
  In  In71  1  0.82664270  0.67729699  0.62206093  1
  In  In72  1  0.83917637  0.50085471  0.49693557  1
  In  In73  1  0.00523818  0.66130915  0.75202870  1
  In  In74  1  0.83054542  0.16124430  0.00848748  1
  In  In75  1  0.49910127  0.49227447  0.49530260  1
  In  In76  1  0.65992732  0.66629536  0.74276563  1
  In  In77  1  0.00694777  0.00099907  0.75605711  1
  In  In78  1  0.32938023  0.65953861  0.74576770  1
  In  In79  1  0.50487504  0.83108082  0.00512201  1
  In  In80  1  0.67319043  0.66648650  0.24895138  1
  In  In81  1  0.66049716  0.00206662  0.75608852  1
  In  In82  1  0.33205160  0.66850682  0.25496253  1
  In  In83  1  0.83024197  0.50344677  0.01244062  1
  In  In84  1  0.00333798  0.33160581  0.73844553  1
  In  In85  1  0.16697846  0.50664063  0.00823804  1
  Cu  Cu86  1  0.33496496  0.32489654  0.49352771  1
  Cu  Cu87  1  0.83364997  0.49559840  0.24981968  1
  Cu  Cu88  1  0.66921174  0.67618399  0.49784188  1
  Cu  Cu89  1  0.66530408  0.01083102  0.49143389  1
  Cu  Cu90  1  0.16405226  0.16156914  0.25286886  1
  Cu  Cu91  1  0.16402048  0.49358347  0.74453514  1
  Cu  Cu92  1  0.17303508  0.84296266  0.75253521  1
  Cu  Cu93  1  0.33573598  0.32980579  0.00089825  1
  Cu  Cu94  1  0.00107929  0.33477227  0.49175166  1
  Cu  Cu95  1  -0.00021231  -0.00285098  0.49346839  1
  Cu  Cu96  1  0.49024681  0.83521294  0.74071053  1
  Cu  Cu97  1  0.82794887  0.83213092  0.75290351  1
  Cu  Cu98  1  0.49859408  0.48689093  0.75027057  1
  Cu  Cu99  1  0.83220607  0.16601362  0.74105140  1
  Cu  Cu100  1  0.34068364  0.00641419  0.01020640  1
  Cu  Cu101  1  0.49446694  0.16695342  0.75301159  1
  Cu  Cu102  1  0.66833802  -0.00227276  0.01101361  1
  Cu  Cu103  1  0.84318013  0.82950788  0.25406990  1
  Cu  Cu104  1  0.32928357  0.66820545  0.00283243  1
  Cu  Cu105  1  0.00305573  0.33237234  0.00572744  1
  Cu  Cu106  1  -0.00356989  0.67508435  0.00664406  1
  Cu  Cu107  1  0.66787087  0.65961313  0.00174070  1
  Cu  Cu108  1  0.16529213  0.83724913  0.25419159  1
  Cu  Cu109  1  0.00259398  0.67302508  0.49539706  1
  Cu  Cu110  1  0.00495943  -0.00207401  0.00890705  1
  Cu  Cu111  1  0.33916059  0.00745616  0.48946082  1
  Cu  Cu112  1  0.84507134  0.16027352  0.25194765  1
  Cu  Cu113  1  0.49883913  0.49705075  0.24859778  1
  Cu  Cu114  1  0.82478851  0.48862679  0.74603272  1
  Se  Se115  1  0.08924595  0.08508319  0.05408690  1
  Se  Se116  1  0.08204634  0.08344993  0.54564960  1
  Se  Se117  1  0.08135980  0.41237299  0.06421810  1
  Se  Se118  1  0.08521474  0.41317068  0.54888380  1
  Se  Se119  1  0.08481211  0.75302641  0.05777769  1
  Se  Se120  1  0.08328237  0.75549330  0.55175106  1
  Se  Se121  1  0.42181851  0.07473374  0.07580076  1
  Se  Se122  1  0.41706876  0.08809043  0.55023909  1
  Se  Se123  1  0.41681099  0.41838771  0.04995994  1
  Se  Se124  1  0.41127396  0.40516280  0.55809987  1
  Se  Se125  1  0.40897554  0.74664079  0.06469013  1
  Se  Se126  1  0.41088082  0.74992422  0.54939832  1
  Se  Se127  1  0.74406011  0.07922632  0.07116591  1
  Se  Se128  1  0.74928231  0.08583973  0.55121385  1
  Se  Se129  1  0.73656268  0.40287939  0.05302682  1
  Se  Se130  1  0.74239140  0.41162310  0.55016659  1
  Se  Se131  1  0.74843728  0.74187835  0.05563228  1
  Se  Se132  1  0.75188405  0.75854774  0.55130876  1
  Se  Se133  1  0.24217402  0.25321889  0.04999098  1
  Se  Se134  1  0.25325938  0.24568000  0.55203470  1
  Se  Se135  1  0.26060059  0.58732424  0.06939409  1
  Se  Se136  1  0.24837018  0.57484540  0.54750660  1
  Se  Se137  1  0.25465138  0.91997970  0.05635875  1
  Se  Se138  1  0.25417697  0.92273510  0.54209443  1
  Se  Se139  1  0.58710581  0.23546846  0.08239610  1
  Se  Se140  1  0.57910408  0.25542663  0.55324038  1
  Se  Se141  1  0.57926344  0.58011121  0.05002703  1
  Se  Se142  1  0.58890240  0.59179686  0.55478716  1
  Se  Se143  1  0.58358848  0.92058182  0.06803856  1
  Se  Se144  1  0.58298442  0.92860952  0.54849921  1
  Se  Se145  1  0.92308921  0.25305822  0.06461854  1
  Se  Se146  1  0.91873610  0.25328218  0.54730251  1
  Se  Se147  1  0.93050722  0.58416656  0.06655957  1
  Se  Se148  1  0.92580964  0.59421609  0.56055535  1
  Se  Se149  1  0.91955837  0.91585438  0.05858998  1
  Se  Se150  1  0.91855846  0.91775814  0.55316540  1
  Se  Se151  1  0.08366047  0.24915375  0.44126107  1
  Se  Se152  1  0.08419142  0.24972764  0.95190300  1
  Se  Se153  1  0.08044061  0.58717522  0.44217783  1
  Se  Se154  1  0.07305384  0.59411219  0.94256853  1
  Se  Se155  1  0.08741926  0.91639704  0.44399696  1
  Se  Se156  1  0.08557785  0.91963186  0.94792670  1
  Se  Se157  1  0.41778060  0.24869937  0.43592746  1
  Se  Se158  1  0.41830668  0.24558697  0.94785018  1
  Se  Se159  1  0.41183379  0.58598942  0.43965333  1
  Se  Se160  1  0.41185467  0.58398575  0.95119574  1
  Se  Se161  1  0.42157476  0.92651000  0.43489911  1
  Se  Se162  1  0.41384124  0.92278859  0.94547760  1
  Se  Se163  1  0.74954615  0.25388316  0.43574987  1
  Se  Se164  1  0.74747428  0.25167440  0.94154525  1
  Se  Se165  1  0.74396907  0.59131211  0.43887203  1
  Se  Se166  1  0.74535327  0.58180188  0.93748125  1
  Se  Se167  1  0.74959678  0.92192010  0.44527589  1
  Se  Se168  1  0.75175653  0.91513793  0.95748428  1
  Se  Se169  1  0.25163489  0.08726308  0.43889635  1
  Se  Se170  1  0.25904461  0.08302915  0.94988975  1
  Se  Se171  1  0.25193234  0.40894756  0.44213643  1
  Se  Se172  1  0.25239793  0.41459938  0.94406207  1
  Se  Se173  1  0.26310939  0.75130382  0.44643279  1
  Se  Se174  1  0.24700246  0.75385557  0.95366094  1
  Se  Se175  1  0.58387732  0.09013163  0.43512653  1
  Se  Se176  1  0.58752819  0.07739271  0.95190378  1
  Se  Se177  1  0.58617291  0.40608238  0.43261308  1
  Se  Se178  1  0.56977931  0.41851055  0.94092542  1
  Se  Se179  1  0.58566331  0.75629701  0.44428878  1
  Se  Se180  1  0.59007911  0.73978321  0.93812477  1
  Se  Se181  1  0.91721563  0.08374244  0.44430387  1
  Se  Se182  1  0.92497641  0.07536431  0.94414417  1
  Se  Se183  1  0.92288076  0.41571094  0.43185949  1
  Se  Se184  1  0.91994053  0.40836522  0.94685036  1
  Se  Se185  1  0.91620283  0.75522115  0.44720024  1
  Se  Se186  1  0.91316182  0.75369260  0.95006537  1
  Se  Se187  1  0.24648771  0.24751245  0.30374269  1
  Se  Se188  1  0.25599031  0.25241233  0.80665876  1
  Se  Se189  1  0.24469318  0.58124691  0.31513067  1
  Se  Se190  1  0.24098513  0.57112415  0.81044331  1
  Se  Se191  1  0.25156514  0.92096306  0.30259370  1
  Se  Se192  1  0.25453872  0.92082460  0.80934932  1
  Se  Se193  1  0.58202600  0.24206315  0.29291878  1
  Se  Se194  1  0.58082610  0.24735946  0.80515909  1
  Se  Se195  1  0.57675642  0.57750081  0.30824319  1
  Se  Se196  1  0.57434523  0.57684293  0.80640156  1
  Se  Se197  1  0.59228548  0.93033072  0.29836411  1
  Se  Se198  1  0.56857010  0.90608610  0.80976029  1
  Se  Se199  1  0.92644746  0.24851452  0.30054703  1
  Se  Se200  1  0.91423496  0.24180098  0.80378755  1
  Se  Se201  1  0.91234597  0.58199270  0.30220179  1
  Se  Se202  1  0.90309344  0.57069392  0.80490061  1
  Se  Se203  1  0.92064367  0.91687558  0.30730475  1
  Se  Se204  1  0.90621278  0.91352446  0.81227035  1
  Se  Se205  1  0.08159974  0.07865891  0.30514098  1
  Se  Se206  1  0.09504352  0.09288187  0.81250480  1
  Se  Se207  1  0.07949018  0.40993985  0.30117106  1
  Se  Se208  1  0.08519494  0.41889305  0.80908487  1
  Se  Se209  1  0.08716322  0.75245013  0.30872026  1
  Se  Se210  1  0.09192624  0.75985911  0.80988308  1
  Se  Se211  1  0.42037985  0.09231356  0.29205349  1
  Se  Se212  1  0.41430061  0.08250918  0.80642551  1
  Se  Se213  1  0.41403312  0.41426800  0.29959410  1
  Se  Se214  1  0.41110444  0.40973402  0.80285152  1
  Se  Se215  1  0.42584938  0.75854307  0.30835140  1
  Se  Se216  1  0.41758034  0.75485897  0.80595229  1
  Se  Se217  1  0.75742905  0.08169858  0.30410322  1
  Se  Se218  1  0.75653047  0.09363445  0.80992438  1
  Se  Se219  1  0.74805765  0.41155860  0.29773610  1
  Se  Se220  1  0.74669354  0.40449233  0.79910888  1
  Se  Se221  1  0.75456267  0.75666517  0.31350272  1
  Se  Se222  1  0.74703861  0.75347213  0.81112660  1
  Se  Se223  1  0.24912371  0.08786901  0.19271044  1
  Se  Se224  1  0.24997070  0.07867085  0.69123261  1
  Se  Se225  1  0.21596014  0.44722950  0.19277197  1
  Se  Se226  1  0.24444052  0.40876356  0.69265105  1
  Se  Se227  1  0.24489983  0.75775498  0.19172317  1
  Se  Se228  1  0.24748567  0.75920223  0.69090963  1
  Se  Se229  1  0.60594169  0.04570119  0.20848177  1
  Se  Se230  1  0.57680269  0.08845689  0.69155897  1
  Se  Se231  1  0.57562748  0.41309302  0.19226473  1
  Se  Se232  1  0.58618721  0.40967550  0.69749525  1
  Se  Se233  1  0.57772646  0.75403421  0.19410085  1
  Se  Se234  1  0.57451226  0.76056148  0.68276342  1
  Se  Se235  1  0.92561059  0.07579985  0.19781289  1
  Se  Se236  1  0.91836686  0.08723456  0.68881555  1
  Se  Se237  1  0.91297199  0.41030320  0.19674465  1
  Se  Se238  1  0.90989904  0.42152670  0.68148571  1
  Se  Se239  1  0.92262857  0.74799045  0.19805101  1
  Se  Se240  1  0.91283165  0.75592467  0.69557412  1
  Se  Se241  1  0.08788861  0.24746898  0.19638065  1
  Se  Se242  1  0.09287820  0.23528195  0.68922522  1
  Se  Se243  1  0.07329931  0.60086674  0.20400194  1
  Se  Se244  1  0.09808717  0.58553469  0.68625958  1
  Se  Se245  1  0.08720873  0.91909709  0.19525278  1
  Se  Se246  1  0.09221196  0.91652555  0.69072801  1
  Se  Se247  1  0.37042726  0.28733273  0.18173236  1
  Se  Se248  1  0.41116476  0.24532000  0.69651070  1
  Se  Se249  1  0.41821618  0.57705009  0.18961549  1
  Se  Se250  1  0.42135540  0.56746478  0.68849677  1
  Se  Se251  1  0.41625284  0.90663466  0.21287234  1
  Se  Se252  1  0.41245700  0.92469093  0.69197953  1
  Se  Se253  1  0.75936407  0.23916796  0.19909432  1
  Se  Se254  1  0.74604268  0.24616470  0.69073671  1
  Se  Se255  1  0.75358367  0.57200132  0.18565888  1
  Se  Se256  1  0.75305091  0.57401967  0.68544412  1
  Se  Se257  1  0.75939570  0.90487954  0.19647425  1
  Se  Se258  1  0.75460029  0.91680954  0.69328645  1
