# generated using pymatgen
data_In86Cu29Se144
_symmetry_space_group_name_H-M   'P 1'
_cell_length_a   17.59016461
_cell_length_b   17.59559054
_cell_length_c   23.45472223
_cell_angle_alpha   89.98703914
_cell_angle_beta   89.99885963
_cell_angle_gamma   90.02244106
_symmetry_Int_Tables_number   1
_chemical_formula_structural   In86Cu29Se144
_chemical_formula_sum   'In86 Cu29 Se144'
_cell_volume   7259.45471168
_cell_formula_units_Z   1
loop_
 _symmetry_equiv_pos_site_id
 _symmetry_equiv_pos_as_xyz
  1  'x, y, z'
loop_
 _atom_site_type_symbol
 _atom_site_label
 _atom_site_symmetry_multiplicity
 _atom_site_fract_x
 _atom_site_fract_y
 _atom_site_fract_z
 _atom_site_occupancy
  In  In0  1  0.00452983  0.17022158  0.12666176  1
  In  In1  1  0.01268106  0.16310881  0.64380196  1
  In  In2  1  0.00958725  0.48357325  0.12535459  1
  In  In3  1  -0.00668607  0.49429948  0.61589441  1
  In  In4  1  0.00364494  0.84267897  0.11912720  1
  In  In5  1  -0.00015863  0.83483786  0.61919019  1
  In  In6  1  0.33710903  0.17501712  0.12508418  1
  In  In7  1  0.33357172  0.15839292  0.63713548  1
  In  In8  1  0.33564101  0.49732744  0.12334192  1
  In  In9  1  0.32365255  0.49171680  0.61863760  1
  In  In10  1  0.32423064  0.82277130  0.11716459  1
  In  In11  1  0.32854123  0.84509858  0.62950324  1
  In  In12  1  0.66357229  0.16169125  0.12523854  1
  In  In13  1  0.65275320  0.18200756  0.63113435  1
  In  In14  1  0.67005022  0.51267995  0.12751771  1
  In  In15  1  0.65144859  0.47134450  0.59951468  1
  In  In16  1  0.65921920  0.82553172  0.11730099  1
  In  In17  1  0.67842933  0.82882075  0.62671836  1
  In  In18  1  0.15078510  0.00044998  0.37440528  1
  In  In19  1  0.16415482  -0.00400112  0.86921499  1
  In  In20  1  0.17590239  0.33872426  0.36928648  1
  In  In21  1  0.16576123  0.33906826  0.86956865  1
  In  In22  1  0.17688304  0.65987399  0.37791732  1
  In  In23  1  0.16818061  0.66883515  0.88665142  1
  In  In24  1  0.50825107  0.00298895  0.38104027  1
  In  In25  1  0.49249462  -0.00182632  0.86805702  1
  In  In26  1  0.48819975  0.34945418  0.38988628  1
  In  In27  1  0.49790740  0.33551989  0.86915478  1
  In  In28  1  0.48794252  0.65413679  0.36423738  1
  In  In29  1  0.49084014  0.66898811  0.88230414  1
  In  In30  1  0.83650895  -0.01232988  0.37496880  1
  In  In31  1  0.83076016  -0.00382437  0.86705512  1
  In  In32  1  0.84920970  0.32823343  0.37962186  1
  In  In33  1  0.83228893  0.33397651  0.86394865  1
  In  In34  1  0.82356069  0.67626519  0.37330350  1
  In  In35  1  0.84543592  0.67038533  0.88045918  1
  In  In36  1  0.00165279  0.16747738  0.36705638  1
  In  In37  1  0.00857297  0.16312740  0.85957153  1
  In  In38  1  0.01549871  0.49320168  0.38124252  1
  In  In39  1  0.00669613  0.49925825  0.87905040  1
  In  In40  1  -0.01169245  0.84372606  0.37482471  1
  In  In41  1  -0.00869497  0.85143856  0.89523010  1
  In  In42  1  0.32606418  0.17972514  0.37734945  1
  In  In43  1  0.32479219  0.17409650  0.86139181  1
  In  In44  1  0.33342682  0.49805965  0.37448321  1
  In  In45  1  0.33443511  0.48688044  0.88486319  1
  In  In46  1  0.33695964  0.82041327  0.37343490  1
  In  In47  1  0.31792389  0.85433646  0.89539309  1
  In  In48  1  0.66395296  0.16499018  0.38894359  1
  In  In49  1  0.66638469  0.16780174  0.86344190  1
  In  In50  1  0.65574166  0.50638541  0.38095006  1
  In  In51  1  0.66006084  0.48556918  0.86923839  1
  In  In52  1  0.68421451  0.82959559  0.37503048  1
  In  In53  1  0.65531181  0.84033066  0.88103192  1
  In  In54  1  0.16009306  -0.01495943  0.11373712  1
  In  In55  1  0.17072518  -0.00815093  0.63540404  1
  In  In56  1  0.16505377  0.34442417  0.12215222  1
  In  In57  1  0.16082530  0.33868684  0.63510738  1
  In  In58  1  0.17672943  0.67251833  0.12303957  1
  In  In59  1  0.16377157  0.66563897  0.61376710  1
  In  In60  1  0.50686298  -0.00108019  0.11783007  1
  In  In61  1  0.48967205  0.01406071  0.63396926  1
  In  In62  1  0.48023956  0.33760643  0.12618045  1
  In  In63  1  0.49784736  0.33092867  0.62251820  1
  In  In64  1  0.50043471  0.65970847  0.12595278  1
  In  In65  1  0.51286248  0.66228238  0.62178310  1
  In  In66  1  0.85242373  -0.00612691  0.12602231  1
  In  In67  1  0.84262485  -0.00774729  0.63181098  1
  In  In68  1  0.84003176  0.34222040  0.12713956  1
  In  In69  1  0.83221118  0.33658247  0.62906216  1
  In  In70  1  0.82064246  0.66998296  0.13060612  1
  In  In71  1  0.83074944  0.66455907  0.61181795  1
  In  In72  1  0.84023273  0.16424122  -0.00612641  1
  In  In73  1  0.83101655  0.16952169  0.50983219  1
  In  In74  1  0.00297137  0.66598430  0.75549078  1
  In  In75  1  0.49193695  0.16573926  -0.01140933  1
  In  In76  1  0.50027372  0.83177539  0.50120063  1
  In  In77  1  0.32989729  -0.00196312  0.23791898  1
  In  In78  1  0.16692132  0.16630876  -0.00934067  1
  In  In79  1  0.67208838  0.66280394  0.74456019  1
  In  In80  1  0.67157602  -0.00236991  0.25309607  1
  In  In81  1  0.16754772  0.16441482  0.51343064  1
  In  In82  1  0.00101796  0.67214407  0.25106811  1
  In  In83  1  0.33711944  0.66631022  0.75746462  1
  In  In84  1  0.83310818  0.50539177  0.00336281  1
  In  In85  1  0.66527263  0.33526137  0.26330950  1
  Cu  Cu86  1  -0.00817081  -0.00804989  0.50031914  1
  Cu  Cu87  1  0.00911919  0.33175753  0.50346911  1
  Cu  Cu88  1  0.50513859  0.82141615  0.24588368  1
  Cu  Cu89  1  0.00242968  0.67278720  0.00722263  1
  Cu  Cu90  1  0.84060476  0.50225190  0.25020584  1
  Cu  Cu91  1  0.83600894  0.83256388  0.75260628  1
  Cu  Cu92  1  0.66407960  0.66429982  0.00144968  1
  Cu  Cu93  1  0.33528441  0.66362017  0.49588814  1
  Cu  Cu94  1  0.83147826  0.49339471  0.73908743  1
  Cu  Cu95  1  0.66338524  0.00226470  0.50490159  1
  Cu  Cu96  1  0.50385267  0.17435017  0.74928468  1
  Cu  Cu97  1  0.16587326  0.83242077  0.75471346  1
  Cu  Cu98  1  0.33851123  0.65786831  0.00446802  1
  Cu  Cu99  1  0.32722369  0.00072836  0.51015661  1
  Cu  Cu100  1  0.17262942  0.49761952  0.25152384  1
  Cu  Cu101  1  0.49732344  0.84646885  0.75579793  1
  Cu  Cu102  1  0.49914899  0.49505649  0.74636963  1
  Cu  Cu103  1  0.49845622  0.49754400  0.25135471  1
  Cu  Cu104  1  0.16439040  0.49541702  0.75086729  1
  Cu  Cu105  1  0.66635054  0.66574214  0.49486559  1
  Cu  Cu106  1  0.33729296  0.33597127  0.49947227  1
  Cu  Cu107  1  0.83288749  0.16317911  0.74658898  1
  Cu  Cu108  1  0.16216641  0.17261625  0.24746568  1
  Cu  Cu109  1  0.65501311  0.33224493  -0.00453538  1
  Cu  Cu110  1  0.48968693  0.17110359  0.25670107  1
  Cu  Cu111  1  0.16653105  0.83483558  0.24419687  1
  Cu  Cu112  1  0.67438804  -0.00708102  -0.00305268  1
  Cu  Cu113  1  0.83751865  0.17064407  0.24987564  1
  Cu  Cu114  1  0.00159640  0.67141902  0.49149636  1
  Se  Se115  1  0.07382004  0.07950355  0.05228116  1
  Se  Se116  1  0.07113536  0.07020830  0.56312649  1
  Se  Se117  1  0.08554845  0.41844048  0.04654704  1
  Se  Se118  1  0.09209495  0.41664295  0.55589442  1
  Se  Se119  1  0.09003362  0.75469852  0.05714751  1
  Se  Se120  1  0.08213000  0.75325984  0.54989008  1
  Se  Se121  1  0.40822018  0.07806214  0.05623276  1
  Se  Se122  1  0.41112845  0.08742792  0.55772394  1
  Se  Se123  1  0.41700478  0.41847903  0.05050347  1
  Se  Se124  1  0.41931979  0.42077089  0.55323397  1
  Se  Se125  1  0.42049949  0.74471469  0.05639092  1
  Se  Se126  1  0.40815734  0.74351754  0.56305771  1
  Se  Se127  1  0.74787050  0.07708641  0.05794961  1
  Se  Se128  1  0.74317136  0.07791713  0.56909213  1
  Se  Se129  1  0.73863115  0.40788159  0.05764866  1
  Se  Se130  1  0.77465330  0.42502371  0.55268478  1
  Se  Se131  1  0.75131216  0.74643368  0.05162168  1
  Se  Se132  1  0.74660874  0.75244613  0.54763877  1
  Se  Se133  1  0.25364844  0.25588004  0.05435342  1
  Se  Se134  1  0.25885000  0.25957947  0.56503515  1
  Se  Se135  1  0.24844668  0.57977337  0.05608646  1
  Se  Se136  1  0.24997420  0.58171367  0.54997904  1
  Se  Se137  1  0.26585928  0.92683214  0.05371735  1
  Se  Se138  1  0.24206600  0.91414982  0.55626735  1
  Se  Se139  1  0.58147462  0.25002921  0.05842846  1
  Se  Se140  1  0.58466147  0.25457050  0.55235424  1
  Se  Se141  1  0.58352126  0.57803897  0.05365573  1
  Se  Se142  1  0.58139856  0.58206025  0.54614479  1
  Se  Se143  1  0.58435115  0.91543302  0.04869926  1
  Se  Se144  1  0.58389637  0.92111713  0.56618233  1
  Se  Se145  1  0.92236542  0.25947955  0.05587326  1
  Se  Se146  1  0.93480533  0.24863381  0.56592419  1
  Se  Se147  1  0.92393411  0.59011474  0.06809000  1
  Se  Se148  1  0.92212227  0.58667875  0.54786181  1
  Se  Se149  1  0.91770230  0.91728992  0.04789525  1
  Se  Se150  1  0.90626725  0.91024818  0.55261194  1
  Se  Se151  1  0.08507376  0.24899226  0.44187331  1
  Se  Se152  1  0.07108477  0.25487791  0.93613527  1
  Se  Se153  1  0.09033188  0.58427780  0.44790391  1
  Se  Se154  1  0.07703966  0.58750671  0.94963821  1
  Se  Se155  1  0.08007520  0.91444589  0.44634509  1
  Se  Se156  1  0.10546316  0.90892963  0.94722519  1
  Se  Se157  1  0.41575460  0.24540985  0.44891145  1
  Se  Se158  1  0.40064469  0.26064854  0.93758240  1
  Se  Se159  1  0.41913282  0.57986360  0.44428493  1
  Se  Se160  1  0.41856944  0.57560009  0.94795432  1
  Se  Se161  1  0.40652719  0.92433618  0.44395020  1
  Se  Se162  1  0.43423261  0.91288810  0.94574634  1
  Se  Se163  1  0.74672634  0.26247312  0.44812511  1
  Se  Se164  1  0.74215954  0.25634500  0.93966889  1
  Se  Se165  1  0.75224427  0.58474127  0.44227232  1
  Se  Se166  1  0.74062870  0.58590973  0.93594146  1
  Se  Se167  1  0.74552289  0.92286734  0.44794727  1
  Se  Se168  1  0.75686562  0.91268245  0.94139140  1
  Se  Se169  1  0.25021866  0.07711326  0.44288522  1
  Se  Se170  1  0.26170510  0.07827268  0.93521352  1
  Se  Se171  1  0.25043639  0.41564843  0.44523080  1
  Se  Se172  1  0.22698077  0.42754265  0.94547006  1
  Se  Se173  1  0.25221814  0.75166497  0.44711852  1
  Se  Se174  1  0.25592248  0.74555472  0.95398962  1
  Se  Se175  1  0.57708786  0.08572503  0.45636693  1
  Se  Se176  1  0.59539077  0.07888137  0.93911399  1
  Se  Se177  1  0.59297791  0.41118079  0.44992191  1
  Se  Se178  1  0.57497214  0.41779325  0.94357068  1
  Se  Se179  1  0.58284824  0.74450644  0.43425433  1
  Se  Se180  1  0.58139848  0.74770990  0.94697133  1
  Se  Se181  1  0.91998685  0.08346376  0.44288778  1
  Se  Se182  1  0.92759530  0.07639694  0.93348443  1
  Se  Se183  1  0.92654257  0.41360999  0.44862676  1
  Se  Se184  1  0.91405371  0.41082039  0.94186786  1
  Se  Se185  1  0.91327031  0.75272524  0.44160316  1
  Se  Se186  1  0.91460409  0.75205314  0.95506575  1
  Se  Se187  1  0.25122675  0.25044410  0.29942061  1
  Se  Se188  1  0.23891734  0.25474859  0.79688622  1
  Se  Se189  1  0.25480149  0.58344771  0.30348385  1
  Se  Se190  1  0.24077604  0.57839914  0.81200336  1
  Se  Se191  1  0.24656662  0.91409715  0.30858710  1
  Se  Se192  1  0.25562081  0.91220407  0.80511691  1
  Se  Se193  1  0.57320386  0.24323800  0.31862021  1
  Se  Se194  1  0.58711450  0.25975787  0.80067426  1
  Se  Se195  1  0.58587927  0.58109768  0.30086192  1
  Se  Se196  1  0.57301781  0.58249116  0.80600625  1
  Se  Se197  1  0.57551088  0.90613755  0.30961248  1
  Se  Se198  1  0.59039623  0.92412888  0.80365240  1
  Se  Se199  1  0.92159669  0.25546278  0.30053427  1
  Se  Se200  1  0.91542564  0.24771160  0.79987153  1
  Se  Se201  1  0.91929981  0.57905216  0.31464437  1
  Se  Se202  1  0.90441176  0.57207398  0.80625302  1
  Se  Se203  1  0.91971430  0.92554204  0.29915394  1
  Se  Se204  1  0.92340771  0.91011722  0.80677754  1
  Se  Se205  1  0.08331566  0.08380123  0.29895713  1
  Se  Se206  1  0.09036267  0.07731801  0.79578682  1
  Se  Se207  1  0.08505670  0.41555962  0.30251059  1
  Se  Se208  1  0.07383551  0.41831833  0.80229309  1
  Se  Se209  1  0.09270099  0.75814316  0.31258010  1
  Se  Se210  1  0.08572516  0.75783932  0.81762345  1
  Se  Se211  1  0.41400835  0.08075311  0.31148431  1
  Se  Se212  1  0.41917622  0.09109421  0.80203891  1
  Se  Se213  1  0.41726391  0.41310312  0.30594846  1
  Se  Se214  1  0.41177749  0.42057374  0.80348576  1
  Se  Se215  1  0.41317103  0.74642537  0.29750149  1
  Se  Se216  1  0.41748267  0.76591656  0.81491845  1
  Se  Se217  1  0.75571969  0.09598046  0.31297222  1
  Se  Se218  1  0.74864355  0.08037361  0.79944120  1
  Se  Se219  1  0.76242726  0.42452186  0.31549718  1
  Se  Se220  1  0.74647066  0.41585918  0.79703173  1
  Se  Se221  1  0.75418272  0.75645490  0.29728367  1
  Se  Se222  1  0.75519956  0.75127484  0.81165764  1
  Se  Se223  1  0.23668418  0.09079771  0.18338772  1
  Se  Se224  1  0.23835474  0.08696974  0.70077558  1
  Se  Se225  1  0.25307165  0.41498591  0.19451091  1
  Se  Se226  1  0.25471147  0.41860085  0.69903932  1
  Se  Se227  1  0.25387490  0.74994322  0.19836431  1
  Se  Se228  1  0.24177911  0.74861584  0.69337481  1
  Se  Se229  1  0.57132539  0.09017745  0.19845886  1
  Se  Se230  1  0.58570247  0.08508344  0.69897673  1
  Se  Se231  1  0.58189882  0.41718796  0.19190669  1
  Se  Se232  1  0.58405844  0.41778285  0.68941583  1
  Se  Se233  1  0.59014973  0.74177794  0.19258494  1
  Se  Se234  1  0.57351859  0.76079930  0.69594987  1
  Se  Se235  1  0.91820872  0.08899937  0.19413760  1
  Se  Se236  1  0.92056697  0.07667630  0.70144881  1
  Se  Se237  1  0.92202741  0.41608901  0.19995124  1
  Se  Se238  1  0.92622341  0.41387637  0.69434426  1
  Se  Se239  1  0.91373764  0.75980261  0.18961499  1
  Se  Se240  1  0.90860252  0.74664421  0.69112776  1
  Se  Se241  1  0.08400300  0.25855594  0.19195129  1
  Se  Se242  1  0.09641297  0.24751480  0.70701674  1
  Se  Se243  1  0.09055002  0.57892722  0.19235728  1
  Se  Se244  1  0.08823849  0.57909238  0.68981190  1
  Se  Se245  1  0.08326028  0.91961338  0.19462699  1
  Se  Se246  1  0.07902074  0.90630079  0.69610591  1
  Se  Se247  1  0.41077493  0.25358792  0.20115980  1
  Se  Se248  1  0.41656871  0.25345253  0.69578324  1
  Se  Se249  1  0.41618965  0.57950404  0.19545234  1
  Se  Se250  1  0.42165367  0.58073301  0.68870922  1
  Se  Se251  1  0.42856076  0.90752024  0.18716253  1
  Se  Se252  1  0.41090774  0.92273769  0.69941806  1
  Se  Se253  1  0.75120984  0.24768509  0.19254104  1
  Se  Se254  1  0.75166313  0.25102057  0.69587488  1
  Se  Se255  1  0.75055139  0.58313129  0.20339543  1
  Se  Se256  1  0.75075719  0.57183086  0.67930230  1
  Se  Se257  1  0.75132658  0.91263587  0.18534324  1
  Se  Se258  1  0.75097705  0.91334987  0.69874729  1
