# generated using pymatgen
data_In86Cu29Se144
_symmetry_space_group_name_H-M   'P 1'
_cell_length_a   17.57894944
_cell_length_b   17.57875773
_cell_length_c   23.44586521
_cell_angle_alpha   89.96890526
_cell_angle_beta   90.01455082
_cell_angle_gamma   90.01702492
_symmetry_Int_Tables_number   1
_chemical_formula_structural   In86Cu29Se144
_chemical_formula_sum   'In86 Cu29 Se144'
_cell_volume   7245.14805125
_cell_formula_units_Z   1
loop_
 _symmetry_equiv_pos_site_id
 _symmetry_equiv_pos_as_xyz
  1  'x, y, z'
loop_
 _atom_site_type_symbol
 _atom_site_label
 _atom_site_symmetry_multiplicity
 _atom_site_fract_x
 _atom_site_fract_y
 _atom_site_fract_z
 _atom_site_occupancy
  In  In0  1  0.00423604  0.16822485  0.12212916  1
  In  In1  1  -0.00374680  0.17511907  0.62385452  1
  In  In2  1  0.00159520  0.49592397  0.12633484  1
  In  In3  1  0.01176002  0.50543476  0.62296475  1
  In  In4  1  -0.00592702  0.84210004  0.12918737  1
  In  In5  1  0.00235806  0.82075452  0.62114151  1
  In  In6  1  0.33425166  0.17126475  0.12588106  1
  In  In7  1  0.34214054  0.16694186  0.62584602  1
  In  In8  1  0.32509854  0.51116705  0.13410595  1
  In  In9  1  0.34449201  0.49055660  0.62970578  1
  In  In10  1  0.33375341  0.83085154  0.13529908  1
  In  In11  1  0.31973160  0.82276520  0.61222079  1
  In  In12  1  0.66805476  0.17144117  0.11463295  1
  In  In13  1  0.65297506  0.17664984  0.63973390  1
  In  In14  1  0.67360453  0.50259945  0.12273191  1
  In  In15  1  0.64913514  0.50466817  0.62619210  1
  In  In16  1  0.67154952  0.81741858  0.12199463  1
  In  In17  1  0.66748419  0.84255780  0.62752726  1
  In  In18  1  0.15923901  -0.00967862  0.36543924  1
  In  In19  1  0.17549318  0.01196895  0.87624317  1
  In  In20  1  0.16933633  0.33610301  0.36780808  1
  In  In21  1  0.17781206  0.32882418  0.87962591  1
  In  In22  1  0.17133413  0.66814370  0.37115997  1
  In  In23  1  0.15749728  0.65968592  0.87108877  1
  In  In24  1  0.48663937  0.01424473  0.38521536  1
  In  In25  1  0.51254507  0.00152498  0.87210388  1
  In  In26  1  0.47534060  0.34498206  0.39976357  1
  In  In27  1  0.49026684  0.32480728  0.86981325  1
  In  In28  1  0.50063143  0.66390511  0.37243155  1
  In  In29  1  0.49848416  0.67372179  0.87048598  1
  In  In30  1  0.84000370  -0.01082253  0.36972300  1
  In  In31  1  0.82395662  0.01189318  0.88594445  1
  In  In32  1  0.84028985  0.32937716  0.37033565  1
  In  In33  1  0.82620804  0.34319129  0.87926315  1
  In  In34  1  0.83285990  0.66870532  0.36341943  1
  In  In35  1  0.84647028  0.64504732  0.89552485  1
  In  In36  1  0.01208602  0.17192300  0.36193683  1
  In  In37  1  0.00483881  0.16617680  0.88364213  1
  In  In38  1  0.00298380  0.50257485  0.36595520  1
  In  In39  1  -0.00663908  0.50963331  0.88184345  1
  In  In40  1  0.00334494  0.83242634  0.36836730  1
  In  In41  1  0.00052797  0.81307819  0.87570779  1
  In  In42  1  0.34109384  0.17652515  0.36644903  1
  In  In43  1  0.31780226  0.18692593  0.88670646  1
  In  In44  1  0.33831704  0.49928413  0.36757665  1
  In  In45  1  0.32731929  0.49344147  0.87201277  1
  In  In46  1  0.33288767  0.83122460  0.37515250  1
  In  In47  1  0.34384559  0.82946854  0.87140307  1
  In  In48  1  0.65957261  0.15803600  0.37567287  1
  In  In49  1  0.66566096  0.16899843  0.87534602  1
  In  In50  1  0.64319477  0.49905422  0.37031055  1
  In  In51  1  0.69616786  0.49320693  0.87463439  1
  In  In52  1  0.66574235  0.81960161  0.37343602  1
  In  In53  1  0.66539573  0.84070907  0.87518316  1
  In  In54  1  0.16149919  0.00879705  0.13008917  1
  In  In55  1  0.17751393  -0.00050835  0.62062173  1
  In  In56  1  0.16640204  0.33320834  0.12423270  1
  In  In57  1  0.17031539  0.34511832  0.62633932  1
  In  In58  1  0.17342150  0.65440519  0.13162581  1
  In  In59  1  0.16081173  0.67113310  0.62647192  1
  In  In60  1  0.48866923  0.00445164  0.13050899  1
  In  In61  1  0.50498562  0.00696364  0.62008738  1
  In  In62  1  0.50542035  0.32696836  0.12704026  1
  In  In63  1  0.49464408  0.33490459  0.62547286  1
  In  In64  1  0.50013085  0.66145877  0.14210749  1
  In  In65  1  0.48690852  0.65289112  0.61489349  1
  In  In66  1  0.84303080  0.01150318  0.11358880  1
  In  In67  1  0.82699751  -0.01381615  0.63207694  1
  In  In68  1  0.84112947  0.34537708  0.11428578  1
  In  In69  1  0.83323241  0.32267269  0.63015695  1
  In  In70  1  0.83519825  0.66623484  0.12206696  1
  In  In71  1  0.83817765  0.66659992  0.63085688  1
  In  In72  1  0.17196270  0.50387244  0.49247541  1
  In  In73  1  0.17424237  0.16984792  0.49605086  1
  In  In74  1  -0.00137283  -0.00179498  0.76175344  1
  In  In75  1  0.50393820  0.49903748  0.00264055  1
  In  In76  1  0.82877701  0.16407868  0.50517747  1
  In  In77  1  0.00011821  0.34086340  0.75104530  1
  In  In78  1  0.16395693  0.83625519  0.00138133  1
  In  In79  1  0.66908123  -0.00393311  0.25094642  1
  In  In80  1  0.83106622  0.50120337  0.50188834  1
  In  In81  1  0.66635059  0.66174092  0.75353707  1
  In  In82  1  0.33870478  0.00199518  0.74643126  1
  In  In83  1  0.66385294  0.33644465  0.24609654  1
  In  In84  1  0.50404719  0.83806905  0.00000972  1
  In  In85  1  0.82897765  0.83263574  0.49825665  1
  Cu  Cu86  1  0.17067770  0.50695214  0.75045647  1
  Cu  Cu87  1  0.83531981  0.50091418  0.24301887  1
  Cu  Cu88  1  0.00332730  0.00103753  0.49033297  1
  Cu  Cu89  1  0.33158599  0.66647908  0.00603549  1
  Cu  Cu90  1  0.00377376  0.33445441  0.00135588  1
  Cu  Cu91  1  0.49433352  0.82623935  0.74387407  1
  Cu  Cu92  1  0.82925235  0.16281035  0.75673737  1
  Cu  Cu93  1  0.84529178  0.16704871  0.24156704  1
  Cu  Cu94  1  0.33397781  0.66526904  0.49354304  1
  Cu  Cu95  1  0.16645880  0.82991212  0.74478690  1
  Cu  Cu96  1  0.49896234  0.49398720  0.74973559  1
  Cu  Cu97  1  0.65802758  0.32761379  0.50585103  1
  Cu  Cu98  1  0.00190008  0.66098680  0.00485684  1
  Cu  Cu99  1  0.00065531  -0.00035923  0.00374666  1
  Cu  Cu100  1  0.66583734  0.33140661  -0.00365558  1
  Cu  Cu101  1  0.83998222  0.83377762  0.24460633  1
  Cu  Cu102  1  0.49922166  0.16668178  0.75166192  1
  Cu  Cu103  1  0.16182123  0.49384392  0.24882808  1
  Cu  Cu104  1  0.16914464  0.82583927  0.24983424  1
  Cu  Cu105  1  0.82907763  0.82814004  0.75330584  1
  Cu  Cu106  1  0.33043475  -0.00622066  0.49586237  1
  Cu  Cu107  1  0.49613255  0.17204746  0.25257156  1
  Cu  Cu108  1  0.65592329  0.00181013  0.50506284  1
  Cu  Cu109  1  0.66744545  0.00365708  -0.00173489  1
  Cu  Cu110  1  0.17072453  0.16393232  0.24523032  1
  Cu  Cu111  1  0.65986395  0.66319844  0.49615379  1
  Cu  Cu112  1  0.49706355  0.83485619  0.25466617  1
  Cu  Cu113  1  0.33265301  0.33470377  0.00209659  1
  Cu  Cu114  1  0.33510885  0.01333565  0.00523762  1
  Se  Se115  1  0.08735837  0.08351201  0.05257470  1
  Se  Se116  1  0.07604075  0.08113627  0.55620270  1
  Se  Se117  1  0.08615928  0.41853878  0.05476511  1
  Se  Se118  1  0.07835804  0.41065765  0.55159265  1
  Se  Se119  1  0.08180363  0.74375354  0.06405159  1
  Se  Se120  1  0.09126363  0.75422996  0.55141595  1
  Se  Se121  1  0.42384760  0.09162434  0.05639093  1
  Se  Se122  1  0.40876070  0.07713966  0.55363945  1
  Se  Se123  1  0.41034464  0.41527827  0.06389494  1
  Se  Se124  1  0.42183890  0.42092247  0.55331972  1
  Se  Se125  1  0.41578286  0.74618505  0.06163779  1
  Se  Se126  1  0.41676238  0.74913299  0.54880347  1
  Se  Se127  1  0.75256656  0.08950234  0.04826062  1
  Se  Se128  1  0.73985505  0.07620137  0.56730634  1
  Se  Se129  1  0.74557326  0.41858888  0.04950757  1
  Se  Se130  1  0.74243939  0.40798459  0.56265996  1
  Se  Se131  1  0.75622169  0.74904028  0.05056743  1
  Se  Se132  1  0.74079102  0.73907869  0.55950609  1
  Se  Se133  1  0.24964176  0.24946369  0.05509331  1
  Se  Se134  1  0.25881862  0.25976737  0.55900886  1
  Se  Se135  1  0.24819736  0.57940459  0.05374918  1
  Se  Se136  1  0.25821010  0.58653109  0.56057882  1
  Se  Se137  1  0.25942323  0.92195486  0.06053964  1
  Se  Se138  1  0.24146510  0.91382128  0.54598325  1
  Se  Se139  1  0.57924316  0.25198069  0.04953738  1
  Se  Se140  1  0.57750323  0.24325644  0.55954839  1
  Se  Se141  1  0.58511858  0.59711186  0.06103596  1
  Se  Se142  1  0.57761445  0.57707022  0.54713289  1
  Se  Se143  1  0.59052915  0.92762202  0.06491122  1
  Se  Se144  1  0.57911674  0.91000747  0.55515114  1
  Se  Se145  1  0.91879215  0.24960076  0.05276495  1
  Se  Se146  1  0.92473106  0.26377027  0.55044600  1
  Se  Se147  1  0.91705343  0.57638756  0.05620773  1
  Se  Se148  1  0.92501849  0.59465037  0.55556151  1
  Se  Se149  1  0.91634206  0.91226035  0.05073453  1
  Se  Se150  1  0.92206599  0.92671982  0.55564991  1
  Se  Se151  1  0.07776305  0.25784824  0.44028213  1
  Se  Se152  1  0.08844329  0.25214466  0.94802541  1
  Se  Se153  1  0.07381429  0.59176313  0.44027111  1
  Se  Se154  1  0.08799846  0.58241121  0.94940126  1
  Se  Se155  1  0.08290366  0.91268281  0.44132102  1
  Se  Se156  1  0.07664127  0.92407219  0.93587363  1
  Se  Se157  1  0.41833985  0.22974189  0.45078055  1
  Se  Se158  1  0.41970479  0.25197694  0.95105159  1
  Se  Se159  1  0.41558370  0.58080131  0.44072139  1
  Se  Se160  1  0.41249197  0.59052069  0.94233177  1
  Se  Se161  1  0.41812091  0.91149624  0.44593221  1
  Se  Se162  1  0.40854180  0.92894176  0.94264697  1
  Se  Se163  1  0.74180409  0.25704140  0.44166101  1
  Se  Se164  1  0.75199116  0.24863289  0.94454514  1
  Se  Se165  1  0.74436841  0.58744165  0.43625139  1
  Se  Se166  1  0.73828490  0.58404298  0.95368261  1
  Se  Se167  1  0.73843296  0.92838733  0.44125546  1
  Se  Se168  1  0.74807434  0.91477917  0.94851939  1
  Se  Se169  1  0.25303317  0.07530963  0.43291961  1
  Se  Se170  1  0.24566631  0.09012065  0.95258842  1
  Se  Se171  1  0.26033052  0.40596708  0.44109037  1
  Se  Se172  1  0.25066678  0.42019720  0.94933526  1
  Se  Se173  1  0.24765418  0.74902176  0.44456024  1
  Se  Se174  1  0.25650883  0.74760581  0.94163683  1
  Se  Se175  1  0.57877392  0.09021323  0.45217076  1
  Se  Se176  1  0.58194338  0.08546209  0.94588972  1
  Se  Se177  1  0.58408197  0.41783019  0.45116901  1
  Se  Se178  1  0.58657036  0.41216342  0.93486212  1
  Se  Se179  1  0.57902419  0.75063884  0.44537743  1
  Se  Se180  1  0.58984766  0.74220957  0.94316714  1
  Se  Se181  1  0.92050221  0.08390672  0.43619170  1
  Se  Se182  1  0.91860058  0.08571008  0.95021136  1
  Se  Se183  1  0.92210862  0.41477398  0.43999427  1
  Se  Se184  1  0.91778213  0.41614829  0.94723571  1
  Se  Se185  1  0.91813296  0.74430502  0.43917613  1
  Se  Se186  1  0.91980879  0.74862095  0.95392365  1
  Se  Se187  1  0.24982298  0.25102742  0.29989729  1
  Se  Se188  1  0.25404525  0.25478840  0.80336747  1
  Se  Se189  1  0.24538247  0.57668239  0.30377938  1
  Se  Se190  1  0.25439914  0.58866891  0.80577648  1
  Se  Se191  1  0.25182851  0.91172544  0.30225492  1
  Se  Se192  1  0.24363249  0.91026760  0.80718682  1
  Se  Se193  1  0.57851697  0.25017985  0.31209319  1
  Se  Se194  1  0.58427074  0.25045609  0.80417191  1
  Se  Se195  1  0.59549419  0.59968908  0.30111927  1
  Se  Se196  1  0.57909603  0.56877512  0.81474094  1
  Se  Se197  1  0.57588262  0.91706633  0.31540360  1
  Se  Se198  1  0.57560421  0.90655408  0.80146219  1
  Se  Se199  1  0.92134041  0.25338641  0.29836520  1
  Se  Se200  1  0.91515179  0.24392171  0.81133133  1
  Se  Se201  1  0.91777158  0.58417792  0.29871835  1
  Se  Se202  1  0.91238744  0.58515605  0.80942086  1
  Se  Se203  1  0.92319443  0.91752538  0.29755315  1
  Se  Se204  1  0.90629987  0.90775566  0.81772780  1
  Se  Se205  1  0.08404278  0.07940128  0.29614481  1
  Se  Se206  1  0.09373260  0.09722213  0.80534195  1
  Se  Se207  1  0.07748129  0.40967886  0.30029468  1
  Se  Se208  1  0.09113994  0.42647318  0.81322504  1
  Se  Se209  1  0.08238694  0.74425459  0.30153184  1
  Se  Se210  1  0.08332039  0.74710192  0.79941518  1
  Se  Se211  1  0.41636696  0.08053074  0.30156877  1
  Se  Se212  1  0.41674162  0.09082225  0.81474840  1
  Se  Se213  1  0.42377608  0.40684096  0.30923731  1
  Se  Se214  1  0.41191210  0.41368648  0.80323424  1
  Se  Se215  1  0.41455069  0.74811233  0.30567310  1
  Se  Se216  1  0.41174696  0.74386041  0.79739603  1
  Se  Se217  1  0.76285285  0.09308308  0.30599135  1
  Se  Se218  1  0.74459102  0.07810517  0.80689951  1
  Se  Se219  1  0.75529508  0.42540017  0.30910259  1
  Se  Se220  1  0.75442608  0.40952837  0.79699200  1
  Se  Se221  1  0.75130410  0.75592376  0.29748099  1
  Se  Se222  1  0.75536295  0.74687111  0.81661167  1
  Se  Se223  1  0.25758299  0.08118816  0.19477913  1
  Se  Se224  1  0.24147182  0.09291935  0.69328248  1
  Se  Se225  1  0.24879807  0.41392082  0.19573591  1
  Se  Se226  1  0.25136963  0.41934380  0.69926149  1
  Se  Se227  1  0.25387299  0.74134388  0.19903393  1
  Se  Se228  1  0.25276498  0.74800954  0.69369344  1
  Se  Se229  1  0.58379321  0.09549030  0.19396246  1
  Se  Se230  1  0.57953277  0.07607518  0.70108597  1
  Se  Se231  1  0.57396891  0.43144422  0.19129132  1
  Se  Se232  1  0.58296255  0.41233618  0.69619391  1
  Se  Se233  1  0.58346700  0.75802238  0.19884541  1
  Se  Se234  1  0.57843289  0.74569059  0.68622082  1
  Se  Se235  1  0.92442224  0.07841631  0.19104629  1
  Se  Se236  1  0.91061994  0.08740094  0.69366290  1
  Se  Se237  1  0.91695006  0.41124602  0.19527037  1
  Se  Se238  1  0.91220808  0.42729968  0.68737635  1
  Se  Se239  1  0.92043816  0.74591849  0.19307963  1
  Se  Se240  1  0.91688666  0.75466952  0.69723555  1
  Se  Se241  1  0.08497352  0.24841060  0.19392644  1
  Se  Se242  1  0.08984844  0.24745391  0.69161296  1
  Se  Se243  1  0.07972226  0.58091955  0.19756625  1
  Se  Se244  1  0.08284048  0.58614250  0.69782478  1
  Se  Se245  1  0.08965533  0.91270260  0.19508284  1
  Se  Se246  1  0.08588239  0.91693809  0.69046333  1
  Se  Se247  1  0.41614447  0.25503087  0.19668694  1
  Se  Se248  1  0.41623709  0.25003713  0.69815267  1
  Se  Se249  1  0.40917440  0.58614998  0.20496598  1
  Se  Se250  1  0.41902758  0.58295284  0.69808461  1
  Se  Se251  1  0.41533493  0.91875911  0.20084416  1
  Se  Se252  1  0.41696461  0.90750508  0.68254174  1
  Se  Se253  1  0.75787307  0.24713459  0.18732663  1
  Se  Se254  1  0.75021628  0.24972401  0.70275327  1
  Se  Se255  1  0.75069472  0.58566077  0.19374192  1
  Se  Se256  1  0.75489236  0.57225910  0.69159822  1
  Se  Se257  1  0.75880328  0.91580956  0.18493437  1
  Se  Se258  1  0.74409453  0.91476789  0.70574214  1
