# generated using pymatgen
data_In86Cu29Se144
_symmetry_space_group_name_H-M   'P 1'
_cell_length_a   17.56894062
_cell_length_b   17.56807190
_cell_length_c   23.42597602
_cell_angle_alpha   89.98471038
_cell_angle_beta   89.99175509
_cell_angle_gamma   90.02913067
_symmetry_Int_Tables_number   1
_chemical_formula_structural   In86Cu29Se144
_chemical_formula_sum   'In86 Cu29 Se144'
_cell_volume   7230.48273377
_cell_formula_units_Z   1
loop_
 _symmetry_equiv_pos_site_id
 _symmetry_equiv_pos_as_xyz
  1  'x, y, z'
loop_
 _atom_site_type_symbol
 _atom_site_label
 _atom_site_symmetry_multiplicity
 _atom_site_fract_x
 _atom_site_fract_y
 _atom_site_fract_z
 _atom_site_occupancy
  In  In0  1  0.00179093  0.16709726  0.12471951  1
  In  In1  1  0.00977718  0.16264751  0.62615847  1
  In  In2  1  -0.02444234  0.51298009  0.14558387  1
  In  In3  1  0.00594427  0.49160633  0.62845584  1
  In  In4  1  -0.01743005  0.84020097  0.14384038  1
  In  In5  1  -0.01170487  0.82428708  0.61712551  1
  In  In6  1  0.34217984  0.18096519  0.11067139  1
  In  In7  1  0.32416687  0.18001763  0.63825315  1
  In  In8  1  0.32820576  0.48233718  0.12214879  1
  In  In9  1  0.31769016  0.49700207  0.62268271  1
  In  In10  1  0.32893881  0.83702378  0.12645112  1
  In  In11  1  0.33104484  0.83768314  0.62497395  1
  In  In12  1  0.67416842  0.17791925  0.11294884  1
  In  In13  1  0.67090508  0.17245672  0.63394032  1
  In  In14  1  0.67303255  0.49665390  0.12440392  1
  In  In15  1  0.66797135  0.50058239  0.63072209  1
  In  In16  1  0.67851834  0.81269365  0.13213625  1
  In  In17  1  0.66191916  0.82399426  0.62509902  1
  In  In18  1  0.15889385  0.00597813  0.38443913  1
  In  In19  1  0.18622282  0.00436924  0.86361941  1
  In  In20  1  0.17005413  0.33242967  0.37575316  1
  In  In21  1  0.15304244  0.32523892  0.87003685  1
  In  In22  1  0.15691379  0.67409395  0.39182008  1
  In  In23  1  0.15577083  0.67599799  0.86724834  1
  In  In24  1  0.50755387  0.00919913  0.37483481  1
  In  In25  1  0.49809391  0.02580205  0.87045801  1
  In  In26  1  0.51214530  0.35811042  0.35576647  1
  In  In27  1  0.50380528  0.32923690  0.86958721  1
  In  In28  1  0.50938426  0.65520949  0.37249975  1
  In  In29  1  0.50426463  0.64829830  0.87879793  1
  In  In30  1  0.83841149  -0.02285870  0.37512490  1
  In  In31  1  0.83563572  0.00100817  0.88794149  1
  In  In32  1  0.83744560  0.34602109  0.35292211  1
  In  In33  1  0.83430674  0.33968493  0.87981322  1
  In  In34  1  0.86676821  0.68717025  0.33712946  1
  In  In35  1  0.83455401  0.66637195  0.87640919  1
  In  In36  1  0.01118456  0.17622389  0.36785887  1
  In  In37  1  -0.01123431  0.17912520  0.88842568  1
  In  In38  1  0.00469716  0.50382259  0.36672294  1
  In  In39  1  -0.00694494  0.49482913  0.87309095  1
  In  In40  1  -0.00143175  0.83711259  0.37617476  1
  In  In41  1  0.00321836  0.82215167  0.87395656  1
  In  In42  1  0.32305671  0.17402172  0.37915822  1
  In  In43  1  0.33232757  0.16997658  0.86912131  1
  In  In44  1  0.33802943  0.48895405  0.37691702  1
  In  In45  1  0.35285279  0.50061330  0.87814996  1
  In  In46  1  0.31886266  0.82053384  0.38547793  1
  In  In47  1  0.32439715  0.84708035  0.86665533  1
  In  In48  1  0.66254766  0.17467168  0.37223926  1
  In  In49  1  0.65457986  0.18300265  0.88872633  1
  In  In50  1  0.69135486  0.52972978  0.33600779  1
  In  In51  1  0.66979407  0.49964570  0.87613772  1
  In  In52  1  0.70629868  0.82866124  0.37879051  1
  In  In53  1  0.68297240  0.83596223  0.87616918  1
  In  In54  1  0.15261121  -0.00087021  0.12725709  1
  In  In55  1  0.16987359  0.00940404  0.61575992  1
  In  In56  1  0.16862078  0.33005277  0.12811851  1
  In  In57  1  0.16742417  0.33095796  0.62496425  1
  In  In58  1  0.14753603  0.65265932  0.12923995  1
  In  In59  1  0.15881903  0.65079604  0.61103657  1
  In  In60  1  0.49035188  0.00818467  0.11966337  1
  In  In61  1  0.49350082  -0.00933039  0.63105758  1
  In  In62  1  0.50455648  0.34014324  0.11953189  1
  In  In63  1  0.50013411  0.32819724  0.63862060  1
  In  In64  1  0.52189278  0.65528780  0.12912939  1
  In  In65  1  0.50813656  0.67402214  0.63107225  1
  In  In66  1  0.84003162  0.00438165  0.12040246  1
  In  In67  1  0.84430524  -0.00107913  0.62127569  1
  In  In68  1  0.83286633  0.33166724  0.12749537  1
  In  In69  1  0.83186477  0.33811235  0.63696847  1
  In  In70  1  0.83261276  0.66488231  0.12496370  1
  In  In71  1  0.82854665  0.66960498  0.62736093  1
  In  In72  1  0.83716446  0.16409679  0.49975801  1
  In  In73  1  0.83347584  0.50248852  0.48315423  1
  In  In74  1  0.32868736  0.00696524  0.25535784  1
  In  In75  1  0.66529798  0.00346241  0.75400511  1
  In  In76  1  0.16308636  0.49199833  0.00295944  1
  In  In77  1  0.00411797  -0.00066983  0.74668447  1
  In  In78  1  0.50446635  0.83478911  0.00316864  1
  In  In79  1  0.16304725  0.83611504  -0.00500335  1
  In  In80  1  0.49998755  0.49737141  0.49256188  1
  In  In81  1  0.32880251  0.66260353  0.25417013  1
  In  In82  1  0.49527974  0.17068434  0.49878674  1
  In  In83  1  0.67222793  0.00292704  0.24812254  1
  In  In84  1  0.49648331  0.83403431  0.50608626  1
  In  In85  1  0.33409644  0.66037080  0.74697378  1
  Cu  Cu86  1  0.00054914  -0.00612980  0.49919262  1
  Cu  Cu87  1  0.67445874  0.65996110  0.00262332  1
  Cu  Cu88  1  0.17029044  0.16784444  0.25029494  1
  Cu  Cu89  1  0.67035164  0.33655502  0.49603307  1
  Cu  Cu90  1  0.83545925  0.82765273  0.74973659  1
  Cu  Cu91  1  0.16679404  0.49758469  0.74574290  1
  Cu  Cu92  1  0.50051120  0.82969442  0.75092159  1
  Cu  Cu93  1  -0.00563148  0.33788486  0.00676455  1
  Cu  Cu94  1  0.33107237  0.33148394  0.50079686  1
  Cu  Cu95  1  0.83013707  0.17679497  0.76190486  1
  Cu  Cu96  1  0.67119649  0.67210756  0.49753916  1
  Cu  Cu97  1  0.00278139  0.00152717  0.00498436  1
  Cu  Cu98  1  0.49815737  0.18060810  0.23963085  1
  Cu  Cu99  1  0.15683341  0.82685173  0.25672145  1
  Cu  Cu100  1  0.50526627  0.83599612  0.25597478  1
  Cu  Cu101  1  0.50825858  0.49372441  0.75432911  1
  Cu  Cu102  1  0.33798179  0.66791899  0.00022567  1
  Cu  Cu103  1  0.16335312  0.49569277  0.25374565  1
  Cu  Cu104  1  0.66611327  0.33827673  -0.00084983  1
  Cu  Cu105  1  0.66934349  -0.00318182  0.00200609  1
  Cu  Cu106  1  -0.00621867  0.66822684  0.00296188  1
  Cu  Cu107  1  0.33211574  0.00139550  0.50223246  1
  Cu  Cu108  1  0.83557929  0.50724484  0.75519834  1
  Cu  Cu109  1  0.01079596  0.32920884  0.50070336  1
  Cu  Cu110  1  0.16199089  0.17177156  0.74964605  1
  Cu  Cu111  1  0.33397692  0.32885316  -0.00439324  1
  Cu  Cu112  1  0.33302461  0.01309800  -0.00752980  1
  Cu  Cu113  1  0.83973637  0.16097278  0.24353814  1
  Cu  Cu114  1  -0.01115945  0.66420157  0.49306188  1
  Se  Se115  1  0.08823652  0.08673404  0.05342001  1
  Se  Se116  1  0.07955538  0.08615039  0.54807659  1
  Se  Se117  1  0.06980518  0.41910762  0.07004926  1
  Se  Se118  1  0.08812151  0.41723334  0.55468061  1
  Se  Se119  1  0.07635169  0.74984061  0.06106057  1
  Se  Se120  1  0.07398595  0.74280802  0.54951091  1
  Se  Se121  1  0.42190282  0.09081434  0.04482951  1
  Se  Se122  1  0.41021064  0.08105791  0.56339274  1
  Se  Se123  1  0.41469316  0.41575388  0.04829507  1
  Se  Se124  1  0.41812987  0.40683193  0.56002590  1
  Se  Se125  1  0.41511208  0.74423342  0.06528044  1
  Se  Se126  1  0.40975392  0.73651660  0.56081690  1
  Se  Se127  1  0.75372356  0.08287714  0.05211698  1
  Se  Se128  1  0.74281691  0.08114554  0.56228989  1
  Se  Se129  1  0.75452797  0.41398463  0.05421354  1
  Se  Se130  1  0.75122009  0.41600471  0.55647746  1
  Se  Se131  1  0.75564545  0.74963261  0.05113260  1
  Se  Se132  1  0.75167688  0.75332302  0.55434678  1
  Se  Se133  1  0.24262374  0.25423695  0.04932899  1
  Se  Se134  1  0.25121484  0.24624918  0.55575634  1
  Se  Se135  1  0.25206512  0.59141325  0.05979882  1
  Se  Se136  1  0.25328747  0.57693729  0.54619385  1
  Se  Se137  1  0.25788446  0.92854135  0.05450373  1
  Se  Se138  1  0.24945306  0.91502789  0.55278297  1
  Se  Se139  1  0.57977813  0.25165409  0.04822477  1
  Se  Se140  1  0.59182959  0.25947077  0.55815327  1
  Se  Se141  1  0.58712936  0.57626522  0.05086150  1
  Se  Se142  1  0.59060523  0.59066394  0.55591451  1
  Se  Se143  1  0.59402687  0.91946624  0.06823536  1
  Se  Se144  1  0.59069293  0.92732370  0.55954149  1
  Se  Se145  1  0.91464731  0.24741736  0.05703014  1
  Se  Se146  1  0.92110684  0.25934857  0.56190505  1
  Se  Se147  1  0.91683052  0.57909598  0.05680569  1
  Se  Se148  1  0.91542823  0.58155487  0.55748818  1
  Se  Se149  1  0.92370017  0.91215296  0.05718488  1
  Se  Se150  1  0.91085464  0.91286942  0.54737133  1
  Se  Se151  1  0.09092096  0.24465521  0.44609803  1
  Se  Se152  1  0.08166451  0.25785828  0.95301095  1
  Se  Se153  1  0.07479939  0.57476587  0.44802453  1
  Se  Se154  1  0.08038130  0.59179916  0.94368230  1
  Se  Se155  1  0.08627354  0.90936392  0.44860246  1
  Se  Se156  1  0.07850436  0.92981937  0.93439649  1
  Se  Se157  1  0.41939118  0.26713995  0.43476615  1
  Se  Se158  1  0.41717134  0.24869369  0.93943929  1
  Se  Se159  1  0.40769992  0.59419557  0.44215335  1
  Se  Se160  1  0.42334372  0.57952706  0.95571319  1
  Se  Se161  1  0.41132326  0.92589899  0.43863705  1
  Se  Se162  1  0.41316929  0.92152415  0.94023611  1
  Se  Se163  1  0.75510803  0.26008555  0.43692886  1
  Se  Se164  1  0.75473854  0.25344543  0.94979771  1
  Se  Se165  1  0.74266648  0.59549722  0.42978477  1
  Se  Se166  1  0.75640926  0.57908763  0.94542869  1
  Se  Se167  1  0.74548989  0.92782105  0.45228949  1
  Se  Se168  1  0.75491073  0.91175674  0.95356939  1
  Se  Se169  1  0.25050532  0.08639907  0.44851005  1
  Se  Se170  1  0.24414059  0.09105717  0.94113868  1
  Se  Se171  1  0.24963869  0.41656386  0.44754873  1
  Se  Se172  1  0.25394854  0.41219937  0.93627586  1
  Se  Se173  1  0.24754254  0.74564917  0.46096866  1
  Se  Se174  1  0.25885040  0.74358838  0.93864337  1
  Se  Se175  1  0.59655850  0.08090299  0.44770819  1
  Se  Se176  1  0.58432178  0.07969012  0.95028978  1
  Se  Se177  1  0.60060214  0.42127063  0.43382502  1
  Se  Se178  1  0.58187322  0.41553617  0.94063006  1
  Se  Se179  1  0.58717074  0.75175241  0.43827295  1
  Se  Se180  1  0.59255148  0.74315095  0.94245965  1
  Se  Se181  1  0.92545295  0.07794398  0.43601530  1
  Se  Se182  1  0.91593103  0.08625602  0.95515628  1
  Se  Se183  1  0.92579918  0.40079510  0.43768634  1
  Se  Se184  1  0.91634433  0.42322281  0.95057650  1
  Se  Se185  1  0.90772630  0.74400711  0.43466381  1
  Se  Se186  1  0.91595685  0.75314674  0.94625344  1
  Se  Se187  1  0.25357334  0.25249230  0.30243786  1
  Se  Se188  1  0.24698198  0.25514917  0.80228866  1
  Se  Se189  1  0.23787112  0.57942072  0.31734148  1
  Se  Se190  1  0.24487185  0.57330067  0.81293258  1
  Se  Se191  1  0.24327876  0.90829834  0.31170671  1
  Se  Se192  1  0.22522363  0.89611112  0.79580154  1
  Se  Se193  1  0.58440327  0.25208746  0.29956456  1
  Se  Se194  1  0.58188411  0.23809200  0.80402079  1
  Se  Se195  1  0.55903307  0.56632058  0.29566837  1
  Se  Se196  1  0.58864298  0.58352900  0.80323766  1
  Se  Se197  1  0.58859618  0.91209494  0.31514033  1
  Se  Se198  1  0.57522072  0.91156942  0.81554428  1
  Se  Se199  1  0.91963383  0.24683579  0.29872666  1
  Se  Se200  1  0.92065708  0.25770834  0.80982240  1
  Se  Se201  1  0.88477127  0.54691703  0.31048205  1
  Se  Se202  1  0.92239584  0.58990947  0.80605038  1
  Se  Se203  1  0.91687301  0.90834470  0.29987727  1
  Se  Se204  1  0.90840440  0.91580331  0.80855947  1
  Se  Se205  1  0.09031741  0.08153987  0.30425949  1
  Se  Se206  1  0.08082164  0.09427440  0.81265877  1
  Se  Se207  1  0.08195987  0.40797773  0.30530378  1
  Se  Se208  1  0.08154804  0.41987381  0.80366658  1
  Se  Se209  1  0.07959393  0.74191450  0.31224228  1
  Se  Se210  1  0.08560854  0.76079268  0.79625569  1
  Se  Se211  1  0.42696606  0.10001993  0.30703255  1
  Se  Se212  1  0.38798062  0.06063519  0.80519319  1
  Se  Se213  1  0.40735406  0.42123708  0.29581233  1
  Se  Se214  1  0.41679523  0.41525318  0.80285565  1
  Se  Se215  1  0.41920898  0.75851318  0.31309193  1
  Se  Se216  1  0.42160624  0.74941642  0.81394340  1
  Se  Se217  1  0.76207324  0.08904128  0.31299537  1
  Se  Se218  1  0.75353132  0.08961754  0.81838550  1
  Se  Se219  1  0.72349620  0.39678813  0.29624303  1
  Se  Se220  1  0.75388322  0.41866170  0.80644387  1
  Se  Se221  1  0.73841150  0.73797543  0.29805666  1
  Se  Se222  1  0.75035729  0.74750775  0.80431239  1
  Se  Se223  1  0.24975808  0.09145559  0.18468850  1
  Se  Se224  1  0.24103577  0.08325157  0.69597019  1
  Se  Se225  1  0.24684708  0.41555865  0.19909297  1
  Se  Se226  1  0.25147955  0.41148592  0.69699918  1
  Se  Se227  1  0.23617370  0.75390842  0.19116119  1
  Se  Se228  1  0.24402759  0.74169475  0.68322210  1
  Se  Se229  1  0.57798691  0.09111924  0.18735962  1
  Se  Se230  1  0.57165640  0.08984352  0.69466755  1
  Se  Se231  1  0.59202081  0.40944271  0.19141438  1
  Se  Se232  1  0.59183465  0.41247337  0.69873683  1
  Se  Se233  1  0.58231382  0.74918130  0.20162502  1
  Se  Se234  1  0.59029967  0.74820718  0.70407412  1
  Se  Se235  1  0.92423115  0.07682646  0.19401588  1
  Se  Se236  1  0.90501976  0.09583891  0.69649333  1
  Se  Se237  1  0.91955178  0.40125554  0.20134419  1
  Se  Se238  1  0.91747394  0.42151070  0.70092564  1
  Se  Se239  1  0.92514242  0.72871176  0.19998598  1
  Se  Se240  1  0.91854645  0.74596731  0.69575719  1
  Se  Se241  1  0.08422161  0.24803620  0.19614530  1
  Se  Se242  1  0.07817379  0.25399713  0.69556924  1
  Se  Se243  1  0.07585343  0.58422449  0.20990699  1
  Se  Se244  1  0.08509259  0.58338500  0.69357817  1
  Se  Se245  1  0.08300562  0.91714338  0.20219059  1
  Se  Se246  1  0.08326847  0.91349470  0.67861652  1
  Se  Se247  1  0.41235010  0.25980886  0.18734035  1
  Se  Se248  1  0.42027617  0.24446705  0.70471659  1
  Se  Se249  1  0.41123636  0.58090547  0.18436272  1
  Se  Se250  1  0.42732591  0.56888263  0.68799271  1
  Se  Se251  1  0.42368094  0.91306260  0.19655515  1
  Se  Se252  1  0.41250426  0.91003151  0.70080571  1
  Se  Se253  1  0.74992408  0.24176796  0.19441154  1
  Se  Se254  1  0.74695258  0.25581592  0.70417901  1
  Se  Se255  1  0.73579671  0.59656688  0.19160919  1
  Se  Se256  1  0.74994917  0.58513673  0.69744171  1
  Se  Se257  1  0.76167543  0.90982024  0.19242455  1
  Se  Se258  1  0.75644378  0.91379646  0.69164816  1
