# generated using pymatgen
data_In86Cu29Se144
_symmetry_space_group_name_H-M   'P 1'
_cell_length_a   17.57410604
_cell_length_b   17.57514004
_cell_length_c   23.43298913
_cell_angle_alpha   90.01047750
_cell_angle_beta   90.02271135
_cell_angle_gamma   89.98425942
_symmetry_Int_Tables_number   1
_chemical_formula_structural   In86Cu29Se144
_chemical_formula_sum   'In86 Cu29 Se144'
_cell_volume   7237.68487184
_cell_formula_units_Z   1
loop_
 _symmetry_equiv_pos_site_id
 _symmetry_equiv_pos_as_xyz
  1  'x, y, z'
loop_
 _atom_site_type_symbol
 _atom_site_label
 _atom_site_symmetry_multiplicity
 _atom_site_fract_x
 _atom_site_fract_y
 _atom_site_fract_z
 _atom_site_occupancy
  In  In0  1  0.01784707  0.15630048  0.14785530  1
  In  In1  1  0.00517240  0.15653863  0.61615208  1
  In  In2  1  -0.00739901  0.50035289  0.12723309  1
  In  In3  1  0.01125879  0.50636083  0.62081129  1
  In  In4  1  0.00874234  0.83178885  0.12361973  1
  In  In5  1  -0.01867143  0.82618396  0.61876325  1
  In  In6  1  0.34020413  0.15874659  0.13440082  1
  In  In7  1  0.35303863  0.18358596  0.61225206  1
  In  In8  1  0.33714093  0.48653608  0.12611070  1
  In  In9  1  0.33078359  0.51175780  0.62826605  1
  In  In10  1  0.34496571  0.84067977  0.11848291  1
  In  In11  1  0.34589353  0.81318071  0.62597190  1
  In  In12  1  0.65050611  0.16361932  0.12465561  1
  In  In13  1  0.65247392  0.18662039  0.62784544  1
  In  In14  1  0.67512780  0.50656155  0.12036886  1
  In  In15  1  0.67481157  0.49548075  0.62460363  1
  In  In16  1  0.65670151  0.83932283  0.13117492  1
  In  In17  1  0.66606829  0.82154575  0.61710906  1
  In  In18  1  0.18666349  0.02270357  0.35446709  1
  In  In19  1  0.15964266  -0.00522211  0.87932909  1
  In  In20  1  0.16875303  0.33162635  0.37730368  1
  In  In21  1  0.17511177  0.32202637  0.87324367  1
  In  In22  1  0.15841757  0.66642858  0.38376762  1
  In  In23  1  0.17826895  0.67586108  0.86713419  1
  In  In24  1  0.49985180  -0.00029762  0.37588456  1
  In  In25  1  0.49169108  0.00324569  0.88300711  1
  In  In26  1  0.48361743  0.33335815  0.37570670  1
  In  In27  1  0.50497921  0.33548506  0.87106630  1
  In  In28  1  0.51774740  0.66647881  0.38277477  1
  In  In29  1  0.49700245  0.66577076  0.87225888  1
  In  In30  1  0.82552056  -0.00441061  0.36809695  1
  In  In31  1  0.83975424  -0.00395596  0.87670282  1
  In  In32  1  0.84041527  0.33111069  0.38085032  1
  In  In33  1  0.83314414  0.35033231  0.87838250  1
  In  In34  1  0.80769444  0.68489602  0.40354710  1
  In  In35  1  0.81163807  0.65589660  0.85589264  1
  In  In36  1  0.01658355  0.18240908  0.35935032  1
  In  In37  1  0.00554428  0.15574262  0.87652709  1
  In  In38  1  -0.00235748  0.50015291  0.38178076  1
  In  In39  1  -0.01619581  0.50064211  0.87914421  1
  In  In40  1  -0.01120691  0.83293911  0.37722223  1
  In  In41  1  0.00649583  0.83475971  0.87353467  1
  In  In42  1  0.33317680  0.16918144  0.37601594  1
  In  In43  1  0.34092723  0.18510201  0.86571735  1
  In  In44  1  0.33836131  0.48400796  0.37614461  1
  In  In45  1  0.34729744  0.51204859  0.86527574  1
  In  In46  1  0.32804017  0.84691040  0.37565652  1
  In  In47  1  0.34756351  0.81921459  0.88479719  1
  In  In48  1  0.67170050  0.15306190  0.37718681  1
  In  In49  1  0.64647562  0.16111287  0.86947039  1
  In  In50  1  0.66176579  0.51291183  0.38191619  1
  In  In51  1  0.66444747  0.50026970  0.87121222  1
  In  In52  1  0.66144637  0.83532586  0.37962877  1
  In  In53  1  0.65407730  0.81442460  0.86239180  1
  In  In54  1  0.17900178  -0.00579199  0.13782354  1
  In  In55  1  0.16058068  0.00177909  0.61539604  1
  In  In56  1  0.18025299  0.31496505  0.14828559  1
  In  In57  1  0.18104268  0.34470601  0.61739873  1
  In  In58  1  0.15463468  0.67080527  0.12099928  1
  In  In59  1  0.18059741  0.64967378  0.63351892  1
  In  In60  1  0.49729253  -0.00039035  0.12639213  1
  In  In61  1  0.49939284  -0.00321477  0.61762610  1
  In  In62  1  0.49446940  0.32552837  0.11636500  1
  In  In63  1  0.50865514  0.32559952  0.63178162  1
  In  In64  1  0.51170961  0.67579628  0.11742623  1
  In  In65  1  0.50212525  0.67982062  0.63164257  1
  In  In66  1  0.83082223  -0.00434098  0.13521065  1
  In  In67  1  0.83809946  -0.00684876  0.61520200  1
  In  In68  1  0.83611549  0.34945231  0.12949666  1
  In  In69  1  0.80820000  0.34476685  0.62233967  1
  In  In70  1  0.82865741  0.65100686  0.12257896  1
  In  In71  1  0.83306861  0.66892816  0.62745472  1
  In  In72  1  0.49915456  0.50343548  0.50582938  1
  In  In73  1  0.83376209  0.16548408  0.49813943  1
  In  In74  1  0.82405258  0.18253305  0.01498248  1
  In  In75  1  0.82374066  0.82557734  -0.01110441  1
  In  In76  1  -0.00978703  0.66511004  0.25268197  1
  In  In77  1  -0.00117186  -0.00759234  0.75123635  1
  In  In78  1  0.33145047  -0.00447608  0.74750307  1
  In  In79  1  0.16722567  0.49831253  0.00359274  1
  In  In80  1  0.16573049  0.83385800  0.49731902  1
  In  In81  1  0.66601282  0.33188841  0.24888793  1
  In  In82  1  0.33783744  0.66900563  0.25168066  1
  In  In83  1  -0.00016896  0.33388244  0.75203668  1
  In  In84  1  0.66366993  -0.00387685  0.74099339  1
  In  In85  1  0.17386864  0.16329150  0.00675688  1
  Cu  Cu86  1  0.66479273  0.33976068  -0.00225039  1
  Cu  Cu87  1  0.34395559  0.33741881  -0.00365251  1
  Cu  Cu88  1  0.83235347  0.50196073  0.74871729  1
  Cu  Cu89  1  0.66614614  -0.00232040  0.49822941  1
  Cu  Cu90  1  0.50308036  0.49967090  0.25379455  1
  Cu  Cu91  1  0.16809213  0.49264669  0.25772576  1
  Cu  Cu92  1  0.00867259  0.00658095  0.48638466  1
  Cu  Cu93  1  0.49822509  0.16115419  0.25115143  1
  Cu  Cu94  1  0.33044075  0.00229317  0.00553726  1
  Cu  Cu95  1  0.16766712  0.83871514  0.24805968  1
  Cu  Cu96  1  0.83334566  0.16428168  0.25311619  1
  Cu  Cu97  1  0.32891609  0.33081240  0.50037832  1
  Cu  Cu98  1  -0.00451120  -0.00327675  0.00253837  1
  Cu  Cu99  1  0.82388196  0.82608246  0.25668582  1
  Cu  Cu100  1  0.33369140  0.66839295  -0.00634208  1
  Cu  Cu101  1  0.16599840  0.82614807  0.74853643  1
  Cu  Cu102  1  0.33588850  -0.00084305  0.49476855  1
  Cu  Cu103  1  0.50110702  0.83895747  0.25064996  1
  Cu  Cu104  1  0.82825404  0.17014932  0.74772738  1
  Cu  Cu105  1  0.50311474  0.50128219  0.74694360  1
  Cu  Cu106  1  0.17766630  0.17258145  0.73983221  1
  Cu  Cu107  1  0.00127583  0.33630274  0.00935998  1
  Cu  Cu108  1  0.65395864  -0.00592503  0.00025058  1
  Cu  Cu109  1  -0.00239869  0.66776438  -0.00219222  1
  Cu  Cu110  1  0.83097962  0.50691109  0.25475808  1
  Cu  Cu111  1  0.16666315  0.49937156  0.74769225  1
  Cu  Cu112  1  0.00105183  0.66024228  0.50617072  1
  Cu  Cu113  1  0.66456493  0.66126063  -0.00859738  1
  Cu  Cu114  1  0.00098813  0.33079141  0.49883679  1
  Se  Se115  1  0.07821183  0.07451562  0.06205848  1
  Se  Se116  1  0.09016069  0.08772726  0.54193755  1
  Se  Se117  1  0.08883342  0.40687651  0.07045436  1
  Se  Se118  1  0.08427396  0.41521336  0.55259534  1
  Se  Se119  1  0.08156891  0.75265043  0.04734760  1
  Se  Se120  1  0.08514119  0.74295839  0.56337468  1
  Se  Se121  1  0.41579896  0.08578240  0.05696539  1
  Se  Se122  1  0.41971616  0.08198774  0.54907798  1
  Se  Se123  1  0.42358452  0.42304281  0.05025640  1
  Se  Se124  1  0.40931612  0.41021885  0.56312154  1
  Se  Se125  1  0.41731098  0.74888059  0.05133813  1
  Se  Se126  1  0.42459867  0.74499580  0.55020505  1
  Se  Se127  1  0.74134725  0.07012904  0.05861340  1
  Se  Se128  1  0.73964628  0.08230757  0.56192311  1
  Se  Se129  1  0.75287930  0.41598819  0.05287323  1
  Se  Se130  1  0.74600925  0.42322363  0.54282263  1
  Se  Se131  1  0.74004889  0.74202461  0.05783723  1
  Se  Se132  1  0.77130054  0.76256898  0.55421171  1
  Se  Se133  1  0.26236326  0.26072036  0.05992431  1
  Se  Se134  1  0.24435717  0.24339223  0.55124444  1
  Se  Se135  1  0.25916605  0.59139246  0.06180183  1
  Se  Se136  1  0.24482085  0.57666185  0.55231917  1
  Se  Se137  1  0.24663387  0.91853790  0.05731508  1
  Se  Se138  1  0.26191054  0.91741255  0.55984128  1
  Se  Se139  1  0.58610469  0.24990854  0.04935500  1
  Se  Se140  1  0.57527216  0.25225046  0.54970897  1
  Se  Se141  1  0.58467699  0.58090705  0.05169775  1
  Se  Se142  1  0.59058054  0.59223656  0.56268753  1
  Se  Se143  1  0.57481208  0.91082642  0.05617842  1
  Se  Se144  1  0.58560497  0.91329272  0.55307759  1
  Se  Se145  1  0.93084565  0.25205499  0.07296902  1
  Se  Se146  1  0.91776115  0.25821312  0.56341861  1
  Se  Se147  1  0.91925751  0.58142196  0.05214635  1
  Se  Se148  1  0.91388143  0.58014271  0.55859466  1
  Se  Se149  1  0.91063506  0.91432400  0.05666280  1
  Se  Se150  1  0.92915010  0.92487125  0.54483435  1
  Se  Se151  1  0.08276568  0.24710847  0.44533405  1
  Se  Se152  1  0.07657140  0.25479540  0.94643332  1
  Se  Se153  1  0.08405201  0.57896436  0.45178371  1
  Se  Se154  1  0.08230423  0.58749853  0.93880219  1
  Se  Se155  1  0.08984232  0.92399310  0.42828018  1
  Se  Se156  1  0.07989610  0.91437947  0.94988892  1
  Se  Se157  1  0.41546366  0.24780294  0.44968066  1
  Se  Se158  1  0.42280098  0.25044443  0.94269390  1
  Se  Se159  1  0.41081626  0.58692132  0.43852430  1
  Se  Se160  1  0.41867181  0.58223988  0.94593731  1
  Se  Se161  1  0.42031882  0.91294918  0.44615783  1
  Se  Se162  1  0.41340078  0.91767445  0.95142446  1
  Se  Se163  1  0.73854915  0.25641691  0.44342488  1
  Se  Se164  1  0.74329636  0.25445734  0.93775558  1
  Se  Se165  1  0.75721290  0.56595232  0.45559452  1
  Se  Se166  1  0.75308302  0.58127758  0.94051285  1
  Se  Se167  1  0.75340757  0.91803335  0.44537844  1
  Se  Se168  1  0.73295647  0.92163698  0.93423022  1
  Se  Se169  1  0.24935195  0.08177069  0.44375405  1
  Se  Se170  1  0.25978884  0.08170853  0.93578468  1
  Se  Se171  1  0.24839925  0.41767324  0.44801319  1
  Se  Se172  1  0.25761546  0.41420199  0.93819621  1
  Se  Se173  1  0.26108258  0.74289434  0.44261063  1
  Se  Se174  1  0.24411593  0.75289558  0.94812954  1
  Se  Se175  1  0.58228656  0.08269485  0.44717203  1
  Se  Se176  1  0.57762483  0.08661277  0.94962688  1
  Se  Se177  1  0.58064224  0.41077284  0.44006018  1
  Se  Se178  1  0.58176932  0.42093081  0.94281396  1
  Se  Se179  1  0.59039970  0.74975935  0.45353997  1
  Se  Se180  1  0.58011358  0.74895297  0.94392313  1
  Se  Se181  1  0.92084850  0.08498010  0.43046433  1
  Se  Se182  1  0.91455476  0.08536081  0.95157034  1
  Se  Se183  1  0.91548445  0.41642100  0.45110765  1
  Se  Se184  1  0.91711964  0.41625474  0.95540294  1
  Se  Se185  1  0.92336330  0.74955178  0.45353767  1
  Se  Se186  1  0.91654401  0.73771068  0.93153715  1
  Se  Se187  1  0.25016363  0.25081156  0.30769152  1
  Se  Se188  1  0.25511251  0.25891196  0.79384353  1
  Se  Se189  1  0.24492352  0.58140607  0.31280376  1
  Se  Se190  1  0.25140959  0.58388223  0.80046549  1
  Se  Se191  1  0.25883603  0.91973059  0.29478147  1
  Se  Se192  1  0.24164460  0.90891534  0.81040727  1
  Se  Se193  1  0.57817363  0.24306729  0.31148250  1
  Se  Se194  1  0.59027902  0.25749615  0.80065041  1
  Se  Se195  1  0.58478205  0.58548427  0.30419436  1
  Se  Se196  1  0.58342608  0.58554695  0.80325551  1
  Se  Se197  1  0.58591550  0.91919752  0.30649963  1
  Se  Se198  1  0.57121215  0.91848600  0.80883678  1
  Se  Se199  1  0.91095489  0.25524618  0.30272214  1
  Se  Se200  1  0.91126601  0.24019158  0.81361345  1
  Se  Se201  1  0.90161943  0.58894585  0.32080807  1
  Se  Se202  1  0.91932069  0.58224521  0.80163121  1
  Se  Se203  1  0.91273925  0.91048323  0.30276091  1
  Se  Se204  1  0.90297199  0.90142555  0.80427207  1
  Se  Se205  1  0.06664638  0.06802354  0.30229961  1
  Se  Se206  1  0.09870612  0.09108754  0.80058229  1
  Se  Se207  1  0.07988619  0.41828435  0.31245559  1
  Se  Se208  1  0.08977606  0.42338407  0.81444584  1
  Se  Se209  1  0.08914676  0.75592736  0.30691498  1
  Se  Se210  1  0.07981589  0.74767810  0.80289701  1
  Se  Se211  1  0.41446093  0.08145683  0.30719503  1
  Se  Se212  1  0.42276538  0.08886769  0.80418121  1
  Se  Se213  1  0.41527770  0.41341271  0.29762709  1
  Se  Se214  1  0.41969662  0.41682622  0.80077978  1
  Se  Se215  1  0.42531690  0.75733766  0.31403797  1
  Se  Se216  1  0.41107598  0.74713152  0.80412279  1
  Se  Se217  1  0.74439172  0.08028822  0.29858493  1
  Se  Se218  1  0.75611015  0.08397478  0.80882415  1
  Se  Se219  1  0.75106159  0.42177169  0.31307621  1
  Se  Se220  1  0.75110859  0.41664557  0.80248310  1
  Se  Se221  1  0.74553732  0.74428051  0.31380682  1
  Se  Se222  1  0.74492499  0.75301353  0.79099400  1
  Se  Se223  1  0.22811184  0.10924475  0.19430605  1
  Se  Se224  1  0.25000598  0.08590582  0.68108248  1
  Se  Se225  1  0.25686317  0.41778199  0.20301086  1
  Se  Se226  1  0.25317185  0.41909831  0.69580572  1
  Se  Se227  1  0.24457189  0.75393603  0.18808059  1
  Se  Se228  1  0.25409709  0.74697768  0.69699031  1
  Se  Se229  1  0.58276288  0.07845122  0.19819336  1
  Se  Se230  1  0.56980991  0.09126916  0.69127170  1
  Se  Se231  1  0.57918897  0.42136935  0.18708410  1
  Se  Se232  1  0.58766105  0.41865842  0.69428834  1
  Se  Se233  1  0.58051965  0.74885034  0.19912991  1
  Se  Se234  1  0.59518471  0.75286847  0.69886173  1
  Se  Se235  1  0.91568129  0.07731983  0.20172305  1
  Se  Se236  1  0.91023439  0.08917863  0.69096926  1
  Se  Se237  1  0.91675514  0.42401190  0.20394714  1
  Se  Se238  1  0.91170181  0.41962990  0.68817525  1
  Se  Se239  1  0.90411289  0.75534310  0.18763713  1
  Se  Se240  1  0.92492103  0.74326184  0.69689503  1
  Se  Se241  1  0.06770788  0.26766916  0.20740960  1
  Se  Se242  1  0.08621309  0.24758098  0.68523293  1
  Se  Se243  1  0.09133468  0.57623247  0.19671025  1
  Se  Se244  1  0.08000953  0.58407557  0.69990370  1
  Se  Se245  1  0.07762829  0.91714689  0.19639275  1
  Se  Se246  1  0.08897974  0.90785664  0.68686786  1
  Se  Se247  1  0.42324310  0.25114910  0.19596224  1
  Se  Se248  1  0.41223056  0.25351208  0.69660683  1
  Se  Se249  1  0.42553643  0.57989131  0.18938178  1
  Se  Se250  1  0.42067637  0.58769713  0.69519043  1
  Se  Se251  1  0.41350374  0.91833572  0.19729357  1
  Se  Se252  1  0.42690082  0.90736024  0.69235594  1
  Se  Se253  1  0.75593182  0.24174682  0.18703996  1
  Se  Se254  1  0.74621221  0.25486090  0.69731283  1
  Se  Se255  1  0.74544519  0.58527628  0.19938249  1
  Se  Se256  1  0.74829798  0.58404850  0.69535556  1
  Se  Se257  1  0.74554716  0.91299001  0.20051573  1
  Se  Se258  1  0.76134753  0.91063924  0.68738210  1
