# generated using pymatgen
data_In86Cu29Se144
_symmetry_space_group_name_H-M   'P 1'
_cell_length_a   17.57053089
_cell_length_b   17.56828208
_cell_length_c   23.42483798
_cell_angle_alpha   90.00467099
_cell_angle_beta   90.02405083
_cell_angle_gamma   89.97582700
_symmetry_Int_Tables_number   1
_chemical_formula_structural   In86Cu29Se144
_chemical_formula_sum   'In86 Cu29 Se144'
_cell_volume   7230.87239021
_cell_formula_units_Z   1
loop_
 _symmetry_equiv_pos_site_id
 _symmetry_equiv_pos_as_xyz
  1  'x, y, z'
loop_
 _atom_site_type_symbol
 _atom_site_label
 _atom_site_symmetry_multiplicity
 _atom_site_fract_x
 _atom_site_fract_y
 _atom_site_fract_z
 _atom_site_occupancy
  In  In0  1  -0.00311135  0.16318437  0.11639205  1
  In  In1  1  0.00879263  0.17534583  0.61943256  1
  In  In2  1  -0.00072301  0.51235363  0.12059087  1
  In  In3  1  -0.00917496  0.50085214  0.64091695  1
  In  In4  1  -0.00409282  0.83935562  0.12623545  1
  In  In5  1  -0.00986590  0.82220848  0.63184152  1
  In  In6  1  0.33999155  0.17957545  0.12488439  1
  In  In7  1  0.33173617  0.16837391  0.62112431  1
  In  In8  1  0.34204752  0.49211022  0.13191208  1
  In  In9  1  0.35026401  0.48253636  0.63394086  1
  In  In10  1  0.31745334  0.83004108  0.12709495  1
  In  In11  1  0.34672222  0.82325617  0.63340048  1
  In  In12  1  0.68117868  0.16986442  0.12616677  1
  In  In13  1  0.66912074  0.17827204  0.60439797  1
  In  In14  1  0.65687045  0.49086935  0.11568858  1
  In  In15  1  0.66179326  0.49989162  0.63291435  1
  In  In16  1  0.67143208  0.82822362  0.12067016  1
  In  In17  1  0.65733561  0.83122838  0.62981493  1
  In  In18  1  0.16018401  0.01469004  0.37485611  1
  In  In19  1  0.17110308  0.00035031  0.87615746  1
  In  In20  1  0.17436749  0.31693621  0.37994335  1
  In  In21  1  0.15798893  0.32880442  0.86871828  1
  In  In22  1  0.16383281  0.66355962  0.37207002  1
  In  In23  1  0.16509342  0.66614898  0.86959740  1
  In  In24  1  0.50155198  0.00642915  0.39468465  1
  In  In25  1  0.49923973  0.01180072  0.86635793  1
  In  In26  1  0.50009950  0.34025193  0.38407901  1
  In  In27  1  0.51282450  0.34143568  0.86210355  1
  In  In28  1  0.49462375  0.67334795  0.38560522  1
  In  In29  1  0.49081350  0.65698273  0.86841616  1
  In  In30  1  0.84574478  0.01002031  0.36665316  1
  In  In31  1  0.83719152  -0.00227211  0.89327307  1
  In  In32  1  0.82040657  0.33807924  0.37547403  1
  In  In33  1  0.82596852  0.33461391  0.87180150  1
  In  In34  1  0.83434259  0.66176440  0.37028823  1
  In  In35  1  0.82876325  0.66277922  0.86842897  1
  In  In36  1  0.00727905  0.16341864  0.37807022  1
  In  In37  1  -0.01509636  0.17590988  0.88500281  1
  In  In38  1  -0.01009001  0.50708687  0.37052810  1
  In  In39  1  -0.02500355  0.48404707  0.85394339  1
  In  In40  1  -0.00930587  0.83140802  0.36468299  1
  In  In41  1  -0.00725126  0.82724850  0.87443868  1
  In  In42  1  0.33574590  0.17426697  0.38872255  1
  In  In43  1  0.33002863  0.16528704  0.86336798  1
  In  In44  1  0.33935521  0.50394611  0.37676103  1
  In  In45  1  0.34187079  0.50413233  0.86743197  1
  In  In46  1  0.34398613  0.83178303  0.37828113  1
  In  In47  1  0.33037496  0.83688134  0.86616734  1
  In  In48  1  0.64928267  0.18690266  0.39993736  1
  In  In49  1  0.66840411  0.17503814  0.87216514  1
  In  In50  1  0.66543558  0.48499320  0.37832597  1
  In  In51  1  0.66528695  0.49605848  0.86959442  1
  In  In52  1  0.66040153  0.82607503  0.37902027  1
  In  In53  1  0.69560993  0.82347495  0.86991631  1
  In  In54  1  0.15182055  -0.00265563  0.11917487  1
  In  In55  1  0.16592694  0.02035666  0.62215613  1
  In  In56  1  0.18513383  0.33468154  0.12258808  1
  In  In57  1  0.17654173  0.32054988  0.63060711  1
  In  In58  1  0.16390390  0.66817807  0.13183788  1
  In  In59  1  0.16651317  0.67064333  0.63332548  1
  In  In60  1  0.50142474  -0.00347975  0.12924897  1
  In  In61  1  0.50447769  -0.01268714  0.61720015  1
  In  In62  1  0.49279362  0.34015436  0.13323255  1
  In  In63  1  0.49488192  0.33258064  0.61578101  1
  In  In64  1  0.50880950  0.65098133  0.12565281  1
  In  In65  1  0.49994430  0.66136821  0.62692234  1
  In  In66  1  0.85558038  0.02053355  0.09840756  1
  In  In67  1  0.81602082  0.01127377  0.62628636  1
  In  In68  1  0.82242250  0.32646553  0.11778616  1
  In  In69  1  0.83395412  0.32981354  0.63518444  1
  In  In70  1  0.84023309  0.67679068  0.11144643  1
  In  In71  1  0.82365635  0.66193265  0.66168363  1
  In  In72  1  0.16052106  0.83503639  -0.00811828  1
  In  In73  1  0.00171175  0.00050228  0.75835684  1
  In  In74  1  0.17218788  0.49143393  0.50533035  1
  In  In75  1  0.66834670  0.66415515  0.24694361  1
  In  In76  1  0.00541194  0.33677355  0.25038198  1
  In  In77  1  0.50683733  0.17364556  -0.00801393  1
  In  In78  1  0.66318603  -0.00088576  0.74726869  1
  In  In79  1  0.82747481  0.49724327  0.51442914  1
  In  In80  1  0.32495174  0.00497784  0.26386142  1
  In  In81  1  0.50751129  0.82855408  0.00261179  1
  In  In82  1  0.82258258  0.83722391  0.51061701  1
  In  In83  1  0.17098969  0.83983691  0.49266187  1
  In  In84  1  0.67233519  0.00098200  0.25078915  1
  In  In85  1  0.16253528  0.49849903  -0.00309782  1
  Cu  Cu86  1  0.66931530  0.65870575  -0.00739657  1
  Cu  Cu87  1  0.16753338  0.50391970  0.74975881  1
  Cu  Cu88  1  -0.00852727  0.00807231  0.49982280  1
  Cu  Cu89  1  -0.00502028  0.33478471  -0.00857989  1
  Cu  Cu90  1  0.83405966  0.50495424  0.24647095  1
  Cu  Cu91  1  0.49079702  0.83177911  0.25848717  1
  Cu  Cu92  1  0.17295640  0.49936679  0.24923174  1
  Cu  Cu93  1  0.49616847  0.49640600  0.74570354  1
  Cu  Cu94  1  0.50125774  0.82710133  0.74961572  1
  Cu  Cu95  1  0.33955513  0.65617290  -0.00033927  1
  Cu  Cu96  1  0.17452534  0.84626093  0.74898032  1
  Cu  Cu97  1  0.49786841  0.49915172  0.25380665  1
  Cu  Cu98  1  -0.00781188  0.66327959  -0.00818038  1
  Cu  Cu99  1  0.84133076  0.83787392  0.23953845  1
  Cu  Cu100  1  0.83241791  0.16808183  0.75001657  1
  Cu  Cu101  1  0.33138281  -0.00175351  0.50341532  1
  Cu  Cu102  1  0.66366466  0.66471794  0.50763732  1
  Cu  Cu103  1  -0.00249592  0.33311891  0.50627863  1
  Cu  Cu104  1  0.66850743  0.33586340  -0.00606774  1
  Cu  Cu105  1  0.34364108  0.65868655  0.50894816  1
  Cu  Cu106  1  0.16611929  0.17667454  0.74673960  1
  Cu  Cu107  1  -0.00715875  0.66507148  0.50459188  1
  Cu  Cu108  1  0.50624244  0.17857883  0.25952476  1
  Cu  Cu109  1  0.49592554  0.16898532  0.74016542  1
  Cu  Cu110  1  0.33952066  0.33755476  0.00022172  1
  Cu  Cu111  1  0.83386433  0.16994933  0.24358385  1
  Cu  Cu112  1  0.15983216  0.82472101  0.24931624  1
  Cu  Cu113  1  0.33751843  0.00881765  -0.00915906  1
  Cu  Cu114  1  0.16987016  0.16603851  0.25199306  1
  Se  Se115  1  0.09402079  0.09393526  0.05109993  1
  Se  Se116  1  0.08290167  0.08901697  0.54719860  1
  Se  Se117  1  0.07603809  0.40601374  0.05953985  1
  Se  Se118  1  0.07336764  0.41472146  0.56764373  1
  Se  Se119  1  0.07802621  0.73875116  0.05344935  1
  Se  Se120  1  0.07995661  0.74951094  0.55559231  1
  Se  Se121  1  0.41844066  0.07973705  0.05640404  1
  Se  Se122  1  0.41651915  0.07750826  0.55742335  1
  Se  Se123  1  0.42135548  0.41932655  0.05528500  1
  Se  Se124  1  0.41520094  0.42145835  0.54859559  1
  Se  Se125  1  0.40985709  0.74300596  0.06245020  1
  Se  Se126  1  0.42373953  0.75134121  0.55609771  1
  Se  Se127  1  0.74317441  0.08770108  0.05002341  1
  Se  Se128  1  0.74979962  0.08145701  0.54556739  1
  Se  Se129  1  0.75152532  0.41941568  0.04901016  1
  Se  Se130  1  0.73630037  0.40160320  0.56350116  1
  Se  Se131  1  0.74518605  0.74917118  0.04589841  1
  Se  Se132  1  0.75112357  0.73190314  0.57071922  1
  Se  Se133  1  0.25686879  0.24963954  0.04928892  1
  Se  Se134  1  0.24282392  0.24465358  0.55212759  1
  Se  Se135  1  0.25251217  0.58493819  0.06104937  1
  Se  Se136  1  0.25533898  0.58615098  0.56650471  1
  Se  Se137  1  0.25849599  0.92502791  0.05111009  1
  Se  Se138  1  0.25345572  0.91794072  0.56518471  1
  Se  Se139  1  0.58818885  0.26026540  0.06038572  1
  Se  Se140  1  0.55657286  0.23290587  0.54485047  1
  Se  Se141  1  0.58110141  0.58058646  0.04640356  1
  Se  Se142  1  0.58274019  0.57745207  0.55826450  1
  Se  Se143  1  0.59271868  0.92923828  0.05719436  1
  Se  Se144  1  0.60105117  0.91619902  0.55202591  1
  Se  Se145  1  0.91577609  0.25321690  0.05200060  1
  Se  Se146  1  0.91115833  0.25217836  0.55868086  1
  Se  Se147  1  0.91198376  0.57836813  0.04674175  1
  Se  Se148  1  0.91357134  0.59562959  0.57038360  1
  Se  Se149  1  0.91238613  0.90228832  0.05044008  1
  Se  Se150  1  0.92278545  0.92637936  0.56504343  1
  Se  Se151  1  0.07964574  0.25261356  0.44910500  1
  Se  Se152  1  0.08542421  0.25206122  0.94565619  1
  Se  Se153  1  0.07521066  0.58457271  0.44716235  1
  Se  Se154  1  0.07311442  0.58180304  0.93315462  1
  Se  Se155  1  0.06694145  0.92295575  0.43923517  1
  Se  Se156  1  0.06794465  0.92927636  0.94027063  1
  Se  Se157  1  0.44151182  0.23361954  0.45149568  1
  Se  Se158  1  0.41366643  0.25950364  0.93315679  1
  Se  Se159  1  0.42281154  0.57714471  0.45079848  1
  Se  Se160  1  0.42112029  0.57487001  0.94582843  1
  Se  Se161  1  0.41577400  0.91287051  0.45231670  1
  Se  Se162  1  0.41764889  0.92011067  0.93917523  1
  Se  Se163  1  0.75757311  0.25707139  0.45210508  1
  Se  Se164  1  0.75146484  0.24812478  0.94546466  1
  Se  Se165  1  0.74661471  0.59026149  0.44434035  1
  Se  Se166  1  0.75172603  0.57605827  0.93881868  1
  Se  Se167  1  0.75535407  0.91814039  0.43194148  1
  Se  Se168  1  0.73794993  0.91613172  0.94693649  1
  Se  Se169  1  0.25026443  0.07994316  0.44678093  1
  Se  Se170  1  0.25241585  0.09066857  0.94055540  1
  Se  Se171  1  0.26194742  0.40479776  0.44455691  1
  Se  Se172  1  0.25588228  0.41240691  0.93735655  1
  Se  Se173  1  0.26000220  0.73483930  0.44602346  1
  Se  Se174  1  0.26121958  0.74183148  0.94233287  1
  Se  Se175  1  0.61004132  0.06365573  0.45238115  1
  Se  Se176  1  0.59388480  0.07434106  0.93955770  1
  Se  Se177  1  0.58593453  0.41880176  0.45382208  1
  Se  Se178  1  0.58088709  0.41658135  0.94242109  1
  Se  Se179  1  0.58330380  0.75114528  0.45390061  1
  Se  Se180  1  0.58740772  0.74186091  0.93410769  1
  Se  Se181  1  0.91175441  0.09181010  0.44494072  1
  Se  Se182  1  0.91849179  0.08496468  0.95561741  1
  Se  Se183  1  0.92192689  0.41744852  0.44542002  1
  Se  Se184  1  0.91132203  0.41912498  0.94064372  1
  Se  Se185  1  0.91536725  0.74770215  0.44444079  1
  Se  Se186  1  0.90723946  0.74863782  0.94229829  1
  Se  Se187  1  0.25717127  0.24161719  0.30748498  1
  Se  Se188  1  0.25210673  0.25872211  0.79986824  1
  Se  Se189  1  0.25199625  0.58238830  0.30754148  1
  Se  Se190  1  0.25209887  0.58613849  0.80319298  1
  Se  Se191  1  0.23482105  0.90391008  0.31585105  1
  Se  Se192  1  0.25593153  0.93141944  0.80110331  1
  Se  Se193  1  0.58832374  0.25839236  0.31474651  1
  Se  Se194  1  0.58363071  0.24332199  0.79760443  1
  Se  Se195  1  0.58005901  0.58118348  0.31293708  1
  Se  Se196  1  0.57866230  0.57857719  0.80124915  1
  Se  Se197  1  0.57375706  0.91562119  0.31185356  1
  Se  Se198  1  0.58061353  0.90552245  0.81221200  1
  Se  Se199  1  0.91232259  0.24926494  0.30894126  1
  Se  Se200  1  0.91489286  0.25024293  0.80534443  1
  Se  Se201  1  0.91829746  0.59010143  0.29627996  1
  Se  Se202  1  0.93877807  0.60898471  0.80446983  1
  Se  Se203  1  0.91994322  0.92308913  0.29560453  1
  Se  Se204  1  0.90150974  0.91446890  0.80979925  1
  Se  Se205  1  0.07836957  0.08490458  0.29912494  1
  Se  Se206  1  0.08826235  0.09870615  0.81223780  1
  Se  Se207  1  0.09526944  0.42299752  0.31548408  1
  Se  Se208  1  0.08326057  0.41639944  0.79879013  1
  Se  Se209  1  0.07693182  0.74243301  0.30422722  1
  Se  Se210  1  0.09368039  0.76636541  0.80762467  1
  Se  Se211  1  0.42886174  0.08887455  0.31479340  1
  Se  Se212  1  0.41517137  0.08371371  0.79453468  1
  Se  Se213  1  0.41754193  0.41488111  0.30893732  1
  Se  Se214  1  0.41287261  0.41145744  0.79865789  1
  Se  Se215  1  0.41234903  0.74123823  0.30718532  1
  Se  Se216  1  0.41235216  0.74845839  0.80261600  1
  Se  Se217  1  0.75098602  0.09979299  0.30976128  1
  Se  Se218  1  0.75905297  0.08160948  0.81027932  1
  Se  Se219  1  0.75162705  0.42321732  0.30078779  1
  Se  Se220  1  0.74197832  0.40986607  0.79926192  1
  Se  Se221  1  0.75826890  0.76274589  0.30293500  1
  Se  Se222  1  0.73907819  0.73000828  0.79380632  1
  Se  Se223  1  0.24843071  0.08587647  0.18798406  1
  Se  Se224  1  0.24875113  0.08944426  0.69636823  1
  Se  Se225  1  0.25564177  0.41208786  0.20023918  1
  Se  Se226  1  0.24721574  0.41722982  0.69620879  1
  Se  Se227  1  0.25149722  0.74489044  0.20156093  1
  Se  Se228  1  0.25178509  0.75303962  0.69966102  1
  Se  Se229  1  0.57610229  0.09550388  0.19404832  1
  Se  Se230  1  0.58128225  0.08956852  0.68293883  1
  Se  Se231  1  0.58416487  0.42121719  0.19728919  1
  Se  Se232  1  0.57466334  0.40875097  0.69191795  1
  Se  Se233  1  0.57321972  0.76039308  0.19319079  1
  Se  Se234  1  0.58428194  0.74184864  0.69828527  1
  Se  Se235  1  0.91417019  0.08589371  0.18851544  1
  Se  Se236  1  0.91570933  0.08824013  0.69113156  1
  Se  Se237  1  0.91304543  0.42072039  0.18728966  1
  Se  Se238  1  0.90604005  0.41852298  0.70503077  1
  Se  Se239  1  0.91908499  0.74433505  0.19070037  1
  Se  Se240  1  0.92125728  0.74986849  0.71028882  1
  Se  Se241  1  0.09355798  0.24722286  0.18882780  1
  Se  Se242  1  0.07514450  0.25650553  0.69751115  1
  Se  Se243  1  0.08442117  0.57791430  0.19697870  1
  Se  Se244  1  0.08179443  0.58840430  0.69944034  1
  Se  Se245  1  0.08495867  0.91480969  0.19554437  1
  Se  Se246  1  0.08824315  0.91723556  0.68703521  1
  Se  Se247  1  0.41685201  0.25119227  0.20229068  1
  Se  Se248  1  0.41203889  0.25410844  0.68979194  1
  Se  Se249  1  0.41917407  0.58481117  0.19782460  1
  Se  Se250  1  0.41202177  0.58667195  0.69787423  1
  Se  Se251  1  0.41242652  0.91331996  0.19716012  1
  Se  Se252  1  0.42485967  0.91796772  0.69634542  1
  Se  Se253  1  0.74761328  0.25862928  0.19936712  1
  Se  Se254  1  0.74258802  0.23759870  0.69121110  1
  Se  Se255  1  0.75475930  0.58011712  0.18122438  1
  Se  Se256  1  0.76264164  0.54490782  0.70817651  1
  Se  Se257  1  0.75805360  0.91828564  0.18307004  1
  Se  Se258  1  0.75978419  0.90622353  0.69429436  1
