# generated using pymatgen
data_In86Cu29Se144
_symmetry_space_group_name_H-M   'P 1'
_cell_length_a   17.58192633
_cell_length_b   17.58254254
_cell_length_c   23.43580451
_cell_angle_alpha   90.00047198
_cell_angle_beta   90.00258855
_cell_angle_gamma   90.00278270
_symmetry_Int_Tables_number   1
_chemical_formula_structural   In86Cu29Se144
_chemical_formula_sum   'In86 Cu29 Se144'
_cell_volume   7244.82665434
_cell_formula_units_Z   1
loop_
 _symmetry_equiv_pos_site_id
 _symmetry_equiv_pos_as_xyz
  1  'x, y, z'
loop_
 _atom_site_type_symbol
 _atom_site_label
 _atom_site_symmetry_multiplicity
 _atom_site_fract_x
 _atom_site_fract_y
 _atom_site_fract_z
 _atom_site_occupancy
  In  In0  1  0.01929953  0.18993457  0.10022964  1
  In  In1  1  -0.00584952  0.15666060  0.61265245  1
  In  In2  1  -0.00493825  0.49006989  0.11535595  1
  In  In3  1  0.00402002  0.49882506  0.62743347  1
  In  In4  1  0.00377477  0.82619301  0.12848792  1
  In  In5  1  0.01729071  0.85873809  0.60332314  1
  In  In6  1  0.34158971  0.17568963  0.12339372  1
  In  In7  1  0.32847367  0.18911936  0.62262450  1
  In  In8  1  0.33191699  0.50041174  0.12074836  1
  In  In9  1  0.34023742  0.48227255  0.62489555  1
  In  In10  1  0.33032219  0.82236053  0.12524929  1
  In  In11  1  0.33842289  0.83161388  0.61628130  1
  In  In12  1  0.66484910  0.16563584  0.11980081  1
  In  In13  1  0.67789105  0.16443140  0.62545179  1
  In  In14  1  0.66624724  0.51218558  0.12365467  1
  In  In15  1  0.65362052  0.50637731  0.62713115  1
  In  In16  1  0.65171125  0.85126336  0.14927198  1
  In  In17  1  0.66749428  0.83280207  0.60998298  1
  In  In18  1  0.15547555  0.00599857  0.38987461  1
  In  In19  1  0.16167599  0.00591090  0.88067677  1
  In  In20  1  0.16026616  0.33999800  0.36010788  1
  In  In21  1  0.17137883  0.32001177  0.88262107  1
  In  In22  1  0.18436535  0.66572212  0.36891040  1
  In  In23  1  0.17450516  0.66385097  0.89289275  1
  In  In24  1  0.50015340  -0.02438449  0.36804739  1
  In  In25  1  0.49679094  -0.00015002  0.88416032  1
  In  In26  1  0.49842744  0.34883886  0.37790226  1
  In  In27  1  0.49972726  0.33437692  0.87816190  1
  In  In28  1  0.49315136  0.67173857  0.35990428  1
  In  In29  1  0.49378085  0.65556588  0.90127113  1
  In  In30  1  0.82839557  0.00659940  0.37229136  1
  In  In31  1  0.85258917  -0.00520568  0.86919838  1
  In  In32  1  0.83875963  0.31783056  0.37592570  1
  In  In33  1  0.82141670  0.33690803  0.88764996  1
  In  In34  1  0.82748412  0.68638200  0.35996519  1
  In  In35  1  0.82553226  0.66056827  0.87933786  1
  In  In36  1  -0.00587177  0.17086965  0.37671050  1
  In  In37  1  0.00914529  0.16166447  0.88493236  1
  In  In38  1  0.01890982  0.49115376  0.36622066  1
  In  In39  1  0.00905932  0.47441196  0.90327683  1
  In  In40  1  -0.00827842  0.84604457  0.38971034  1
  In  In41  1  0.00211843  0.84604193  0.87157027  1
  In  In42  1  0.32231065  0.17150568  0.37261002  1
  In  In43  1  0.32315832  0.17789240  0.88227473  1
  In  In44  1  0.33037781  0.51152245  0.35700914  1
  In  In45  1  0.35206143  0.48888935  0.89513878  1
  In  In46  1  0.33934769  0.82432855  0.37799731  1
  In  In47  1  0.33589085  0.82666691  0.89144149  1
  In  In48  1  0.68424647  0.16524581  0.37380445  1
  In  In49  1  0.65126565  0.17309732  0.88331904  1
  In  In50  1  0.64924437  0.49865694  0.37208219  1
  In  In51  1  0.67420306  0.49362939  0.88946481  1
  In  In52  1  0.66312125  0.83210406  0.35944738  1
  In  In53  1  0.66636806  0.82073928  0.87661717  1
  In  In54  1  0.16184183  0.00141476  0.12076945  1
  In  In55  1  0.16393312  -0.00149494  0.61777520  1
  In  In56  1  0.16951882  0.33724902  0.12183544  1
  In  In57  1  0.18400984  0.32919671  0.62511858  1
  In  In58  1  0.18019555  0.67393636  0.11540060  1
  In  In59  1  0.15879476  0.67209876  0.62167872  1
  In  In60  1  0.50604811  0.00289003  0.12569367  1
  In  In61  1  0.50813362  -0.00514334  0.62043678  1
  In  In62  1  0.48678550  0.32754888  0.12354772  1
  In  In63  1  0.48918313  0.34824282  0.63092644  1
  In  In64  1  0.50240217  0.67468199  0.12757172  1
  In  In65  1  0.50240744  0.66258791  0.61370412  1
  In  In66  1  0.82208921  0.00601730  0.13200681  1
  In  In67  1  0.84589295  0.01422632  0.60767461  1
  In  In68  1  0.84475430  0.34390491  0.11043814  1
  In  In69  1  0.84024272  0.31636019  0.62762595  1
  In  In70  1  0.83292004  0.66361219  0.13118621  1
  In  In71  1  0.81703375  0.67282085  0.62194945  1
  In  In72  1  0.00784907  0.66185921  0.24713720  1
  In  In73  1  0.82606573  0.50255380  0.50159600  1
  In  In74  1  0.49903866  0.16449367  0.50126173  1
  In  In75  1  0.33700548  0.66459641  0.75809528  1
  In  In76  1  0.66545572  0.66295985  0.75733796  1
  In  In77  1  -0.00758153  0.00805641  0.25488136  1
  In  In78  1  0.17693524  0.50336289  0.49640876  1
  In  In79  1  -0.00718264  0.66617680  0.75446815  1
  In  In80  1  0.66828100  0.33033693  0.25117112  1
  In  In81  1  0.83250396  0.83197107  0.00219384  1
  In  In82  1  0.33339229  -0.00651106  0.25129662  1
  In  In83  1  0.32969928  0.00492842  0.75614219  1
  In  In84  1  0.00095493  0.32236560  0.75692726  1
  In  In85  1  0.67175132  0.00305521  0.74623933  1
  Cu  Cu86  1  0.49779775  0.18064536  0.75305101  1
  Cu  Cu87  1  0.33643198  -0.00232584  0.00704113  1
  Cu  Cu88  1  0.49106390  0.50079657  0.24418164  1
  Cu  Cu89  1  0.83448274  0.49182973  0.76580299  1
  Cu  Cu90  1  0.84642371  0.84043762  0.73859545  1
  Cu  Cu91  1  0.84309124  0.16955382  0.24491110  1
  Cu  Cu92  1  0.00065690  0.66596629  0.00769725  1
  Cu  Cu93  1  0.66343059  0.67264733  0.00851722  1
  Cu  Cu94  1  0.16852569  0.17645845  0.24439907  1
  Cu  Cu95  1  0.16682248  0.83134336  0.25714125  1
  Cu  Cu96  1  0.66096920  -0.00754891  0.49095749  1
  Cu  Cu97  1  0.00390589  0.33168165  0.49409011  1
  Cu  Cu98  1  -0.00240925  0.67323749  0.49608580  1
  Cu  Cu99  1  0.17688782  0.49432906  0.75657663  1
  Cu  Cu100  1  0.50533152  0.16193727  0.24892689  1
  Cu  Cu101  1  0.66820611  0.32928806  0.49934911  1
  Cu  Cu102  1  0.65766067  0.66996442  0.48694036  1
  Cu  Cu103  1  0.50187701  0.82943601  0.75054161  1
  Cu  Cu104  1  0.66598114  -0.00534429  0.00470891  1
  Cu  Cu105  1  0.65560654  0.33458582  0.00540751  1
  Cu  Cu106  1  0.84243475  0.48909906  0.24757135  1
  Cu  Cu107  1  0.16089881  0.16326102  0.75434399  1
  Cu  Cu108  1  0.16308489  0.83791335  0.74800679  1
  Cu  Cu109  1  0.33294730  0.33053203  0.00282244  1
  Cu  Cu110  1  0.00012254  -0.00090868  -0.00080991  1
  Cu  Cu111  1  0.83479849  0.16287519  0.75020805  1
  Cu  Cu112  1  0.33988248  0.66622115  0.49209203  1
  Cu  Cu113  1  0.50103215  0.49310278  0.75792963  1
  Cu  Cu114  1  0.33207783  -0.00265799  0.49572798  1
  Se  Se115  1  0.09092641  0.08302402  0.04532761  1
  Se  Se116  1  0.09696312  0.09458570  0.55147780  1
  Se  Se117  1  0.07796115  0.40531391  0.04987512  1
  Se  Se118  1  0.08136999  0.41286659  0.55659608  1
  Se  Se119  1  0.08376326  0.75519870  0.05451815  1
  Se  Se120  1  0.08798057  0.75171063  0.54677807  1
  Se  Se121  1  0.41931449  0.08313075  0.05886386  1
  Se  Se122  1  0.40536252  0.07638463  0.56342141  1
  Se  Se123  1  0.41820292  0.41707199  0.05162941  1
  Se  Se124  1  0.42403375  0.42135918  0.54889402  1
  Se  Se125  1  0.42625494  0.75911735  0.05641623  1
  Se  Se126  1  0.42192944  0.74989181  0.54857227  1
  Se  Se127  1  0.75067029  0.08040800  0.05321080  1
  Se  Se128  1  0.73863213  0.07878012  0.54791616  1
  Se  Se129  1  0.74009149  0.41918210  0.05633357  1
  Se  Se130  1  0.74593027  0.40848919  0.56548655  1
  Se  Se131  1  0.74244078  0.75434092  0.06848244  1
  Se  Se132  1  0.74622777  0.74522029  0.54230330  1
  Se  Se133  1  0.24931645  0.24481887  0.05428632  1
  Se  Se134  1  0.25219466  0.25768066  0.54496337  1
  Se  Se135  1  0.25681111  0.58517712  0.04705640  1
  Se  Se136  1  0.26368273  0.59264924  0.56296375  1
  Se  Se137  1  0.25123739  0.91641748  0.06065669  1
  Se  Se138  1  0.25138011  0.91431405  0.55334602  1
  Se  Se139  1  0.57496806  0.24702950  0.05647046  1
  Se  Se140  1  0.58656628  0.25462421  0.56377754  1
  Se  Se141  1  0.57686985  0.58535006  0.05453971  1
  Se  Se142  1  0.58637547  0.58085829  0.54573571  1
  Se  Se143  1  0.58724296  0.91111795  0.06042524  1
  Se  Se144  1  0.57622281  0.91189607  0.54555919  1
  Se  Se145  1  0.89506385  0.23088483  0.05140659  1
  Se  Se146  1  0.91741164  0.25152259  0.54758103  1
  Se  Se147  1  0.91081232  0.58677073  0.05729392  1
  Se  Se148  1  0.92421854  0.59165098  0.56040914  1
  Se  Se149  1  0.92170367  0.92271552  0.06352193  1
  Se  Se150  1  0.89017453  0.89308658  0.55685691  1
  Se  Se151  1  0.08748800  0.25711023  0.43547944  1
  Se  Se152  1  0.06530910  0.26765722  0.94812614  1
  Se  Se153  1  0.07866076  0.59066213  0.43871467  1
  Se  Se154  1  0.08398885  0.58103554  0.95515144  1
  Se  Se155  1  0.08018257  0.91860394  0.45692694  1
  Se  Se156  1  0.08353954  0.91454284  0.94763694  1
  Se  Se157  1  0.41305173  0.25517194  0.44060577  1
  Se  Se158  1  0.41848708  0.24887294  0.94739298  1
  Se  Se159  1  0.41410743  0.58452922  0.43132886  1
  Se  Se160  1  0.38004064  0.60598702  0.96017088  1
  Se  Se161  1  0.41683689  0.91351476  0.44615093  1
  Se  Se162  1  0.42144839  0.91433140  0.95357183  1
  Se  Se163  1  0.75411789  0.24699518  0.45008353  1
  Se  Se164  1  0.73878750  0.24902514  0.95248812  1
  Se  Se165  1  0.74520963  0.58833059  0.43199262  1
  Se  Se166  1  0.74775073  0.58894834  0.95515349  1
  Se  Se167  1  0.74282353  0.91473156  0.43241076  1
  Se  Se168  1  0.74600061  0.92333200  0.93659746  1
  Se  Se169  1  0.25293959  0.08744631  0.44695991  1
  Se  Se170  1  0.25669565  0.07749181  0.94644247  1
  Se  Se171  1  0.25643245  0.41614464  0.43049457  1
  Se  Se172  1  0.24770408  0.41201403  0.94898875  1
  Se  Se173  1  0.24793714  0.74889523  0.44690617  1
  Se  Se174  1  0.23252913  0.76895436  0.95461999  1
  Se  Se175  1  0.58351012  0.07872570  0.43310599  1
  Se  Se176  1  0.58147421  0.07979884  0.95188232  1
  Se  Se177  1  0.58634294  0.41694813  0.45116063  1
  Se  Se178  1  0.57505432  0.42078540  0.95044706  1
  Se  Se179  1  0.57804947  0.75178587  0.43077713  1
  Se  Se180  1  0.58304265  0.75381358  0.95125223  1
  Se  Se181  1  0.92520892  0.07247877  0.43922709  1
  Se  Se182  1  0.91480138  0.07929349  0.94593849  1
  Se  Se183  1  0.92297442  0.41843784  0.43985152  1
  Se  Se184  1  0.89353075  0.42582033  0.95736234  1
  Se  Se185  1  0.90641061  0.74628493  0.44215088  1
  Se  Se186  1  0.92562663  0.74412871  0.93983613  1
  Se  Se187  1  0.25418486  0.25613422  0.29814124  1
  Se  Se188  1  0.24668163  0.24860547  0.80346837  1
  Se  Se189  1  0.22478843  0.57011391  0.29321312  1
  Se  Se190  1  0.25038713  0.57469702  0.81930251  1
  Se  Se191  1  0.23881742  0.91730308  0.31799338  1
  Se  Se192  1  0.24654225  0.90720585  0.81374617  1
  Se  Se193  1  0.57830848  0.24367400  0.31533673  1
  Se  Se194  1  0.58600302  0.25677788  0.80623951  1
  Se  Se195  1  0.57843140  0.57930958  0.29772631  1
  Se  Se196  1  0.57274668  0.57986971  0.81997205  1
  Se  Se197  1  0.58709493  0.92200274  0.29095967  1
  Se  Se198  1  0.58217726  0.91192768  0.80853064  1
  Se  Se199  1  0.92356086  0.25310009  0.29981246  1
  Se  Se200  1  0.90533778  0.24196256  0.81769764  1
  Se  Se201  1  0.91329036  0.57535718  0.31053179  1
  Se  Se202  1  0.91985950  0.57010487  0.82192948  1
  Se  Se203  1  0.90921907  0.90702452  0.30721725  1
  Se  Se204  1  0.92938977  0.92131670  0.79265963  1
  Se  Se205  1  0.09504487  0.09338801  0.30732419  1
  Se  Se206  1  0.07849600  0.08075278  0.80697456  1
  Se  Se207  1  0.08777515  0.42330240  0.28600659  1
  Se  Se208  1  0.08664166  0.41980448  0.81322986  1
  Se  Se209  1  0.08033122  0.75773894  0.31696274  1
  Se  Se210  1  0.09245251  0.75093462  0.81100503  1
  Se  Se211  1  0.42260833  0.08659552  0.31175075  1
  Se  Se212  1  0.42442840  0.09365048  0.81251118  1
  Se  Se213  1  0.41599680  0.41400527  0.30066884  1
  Se  Se214  1  0.41135886  0.41593026  0.80978086  1
  Se  Se215  1  0.40016421  0.75031018  0.29628076  1
  Se  Se216  1  0.43016443  0.75269844  0.81758907  1
  Se  Se217  1  0.75516266  0.08822192  0.29596698  1
  Se  Se218  1  0.75402604  0.08783209  0.81474846  1
  Se  Se219  1  0.75848409  0.41915665  0.31469561  1
  Se  Se220  1  0.74223907  0.41300107  0.81125711  1
  Se  Se221  1  0.72425666  0.73054031  0.28967239  1
  Se  Se222  1  0.76796829  0.76114986  0.80244548  1
  Se  Se223  1  0.24638557  0.08663558  0.19100843  1
  Se  Se224  1  0.24575765  0.09195336  0.69061610  1
  Se  Se225  1  0.26555131  0.40459718  0.18910521  1
  Se  Se226  1  0.25583791  0.41273846  0.69966706  1
  Se  Se227  1  0.24478459  0.75000211  0.19895136  1
  Se  Se228  1  0.24692276  0.75569109  0.69276885  1
  Se  Se229  1  0.59029253  0.08437335  0.19535412  1
  Se  Se230  1  0.57193315  0.09452644  0.69282046  1
  Se  Se231  1  0.57843335  0.41780820  0.18991997  1
  Se  Se232  1  0.58593598  0.41734263  0.69909493  1
  Se  Se233  1  0.60451683  0.72889500  0.19922812  1
  Se  Se234  1  0.58212749  0.75216365  0.68871613  1
  Se  Se235  1  0.92563001  0.09702767  0.18065836  1
  Se  Se236  1  0.91453246  0.08465989  0.69038759  1
  Se  Se237  1  0.92157203  0.40818501  0.19177172  1
  Se  Se238  1  0.91242232  0.42049499  0.69695182  1
  Se  Se239  1  0.90996592  0.75846678  0.19886697  1
  Se  Se240  1  0.91947316  0.75096219  0.68095838  1
  Se  Se241  1  0.08176624  0.25140242  0.18880778  1
  Se  Se242  1  0.08710136  0.24243303  0.68727962  1
  Se  Se243  1  0.08686029  0.58205071  0.17587533  1
  Se  Se244  1  0.09616173  0.57537355  0.69792406  1
  Se  Se245  1  0.08828145  0.91358162  0.19841306  1
  Se  Se246  1  0.08383557  0.91983406  0.69126610  1
  Se  Se247  1  0.41865915  0.24704571  0.20187848  1
  Se  Se248  1  0.41163629  0.25772982  0.69797144  1
  Se  Se249  1  0.41382782  0.58643603  0.18957279  1
  Se  Se250  1  0.42823953  0.57929639  0.69375271  1
  Se  Se251  1  0.42386881  0.90814780  0.19134326  1
  Se  Se252  1  0.42168165  0.91249040  0.69425305  1
  Se  Se253  1  0.75843684  0.24984887  0.18661716  1
  Se  Se254  1  0.75055433  0.24795519  0.69943813  1
  Se  Se255  1  0.75694719  0.57341411  0.19879036  1
  Se  Se256  1  0.76015508  0.57282612  0.69861862  1
  Se  Se257  1  0.76278226  0.91400990  0.20301558  1
  Se  Se258  1  0.75366718  0.91184040  0.68284250  1
