# generated using pymatgen
data_In86Cu29Se144
_symmetry_space_group_name_H-M   'P 1'
_cell_length_a   17.56689467
_cell_length_b   17.56825781
_cell_length_c   23.42207831
_cell_angle_alpha   89.99146956
_cell_angle_beta   89.99496621
_cell_angle_gamma   90.00475424
_symmetry_Int_Tables_number   1
_chemical_formula_structural   In86Cu29Se144
_chemical_formula_sum   'In86 Cu29 Se144'
_cell_volume   7228.51545712
_cell_formula_units_Z   1
loop_
 _symmetry_equiv_pos_site_id
 _symmetry_equiv_pos_as_xyz
  1  'x, y, z'
loop_
 _atom_site_type_symbol
 _atom_site_label
 _atom_site_symmetry_multiplicity
 _atom_site_fract_x
 _atom_site_fract_y
 _atom_site_fract_z
 _atom_site_occupancy
  In  In0  1  0.02868437  0.14319601  0.15135062  1
  In  In1  1  0.02444922  0.17143456  0.62854591  1
  In  In2  1  -0.00257570  0.50377367  0.12905730  1
  In  In3  1  -0.01205417  0.49868021  0.61733906  1
  In  In4  1  0.00943683  0.83612174  0.12311354  1
  In  In5  1  0.00280316  0.82555277  0.61943077  1
  In  In6  1  0.33536277  0.16305345  0.12854728  1
  In  In7  1  0.33191987  0.15175570  0.62496315  1
  In  In8  1  0.32156134  0.49334630  0.12823895  1
  In  In9  1  0.34882199  0.49468922  0.62252922  1
  In  In10  1  0.34305800  0.83310828  0.11996507  1
  In  In11  1  0.33127932  0.83354722  0.62809501  1
  In  In12  1  0.66320663  0.17949203  0.13006690  1
  In  In13  1  0.66342160  0.18111661  0.62439286  1
  In  In14  1  0.67788088  0.49005615  0.13058803  1
  In  In15  1  0.65952937  0.49190724  0.61690413  1
  In  In16  1  0.65724488  0.82158400  0.12311334  1
  In  In17  1  0.65336919  0.84679072  0.62895112  1
  In  In18  1  0.17447530  -0.00244384  0.36104323  1
  In  In19  1  0.18156242  -0.00836589  0.88461320  1
  In  In20  1  0.17298487  0.32060947  0.35751234  1
  In  In21  1  0.15369301  0.33814611  0.87890058  1
  In  In22  1  0.17759992  0.70097392  0.36790490  1
  In  In23  1  0.18190553  0.68115602  0.86817007  1
  In  In24  1  0.48330471  0.01121608  0.37841859  1
  In  In25  1  0.48540552  0.01022165  0.87977884  1
  In  In26  1  0.50704326  0.33544968  0.36845913  1
  In  In27  1  0.49373104  0.31658787  0.87332711  1
  In  In28  1  0.50169130  0.65690055  0.38350564  1
  In  In29  1  0.48760788  0.68270830  0.87955476  1
  In  In30  1  0.84125789  -0.01007115  0.36923687  1
  In  In31  1  0.82317825  -0.00236946  0.88553387  1
  In  In32  1  0.84082338  0.34265411  0.36990530  1
  In  In33  1  0.83673217  0.34196178  0.87531802  1
  In  In34  1  0.82921298  0.66045001  0.36918610  1
  In  In35  1  0.83447562  0.66312630  0.88782366  1
  In  In36  1  0.01003676  0.16411238  0.35841008  1
  In  In37  1  0.00165480  0.18214071  0.88019778  1
  In  In38  1  -0.00719384  0.49378568  0.37149504  1
  In  In39  1  -0.00283979  0.48743668  0.88145076  1
  In  In40  1  0.02405059  0.84618399  0.35502102  1
  In  In41  1  0.00832034  0.82899739  0.88798868  1
  In  In42  1  0.35361223  0.18257814  0.34270683  1
  In  In43  1  0.33741104  0.15850493  0.88301471  1
  In  In44  1  0.34962420  0.50676484  0.37822586  1
  In  In45  1  0.31987886  0.50323076  0.87071713  1
  In  In46  1  0.32086674  0.83612164  0.38731161  1
  In  In47  1  0.32498010  0.84267018  0.87508810  1
  In  In48  1  0.64159762  0.17107205  0.36883003  1
  In  In49  1  0.65136355  0.16594444  0.87561175  1
  In  In50  1  0.66780668  0.50177950  0.37634480  1
  In  In51  1  0.67754522  0.50276070  0.87468008  1
  In  In52  1  0.66776192  0.81822131  0.37074052  1
  In  In53  1  0.65900790  0.83692922  0.88848896  1
  In  In54  1  0.17761732  0.00220213  0.13008524  1
  In  In55  1  0.18848122  -0.00168165  0.63302212  1
  In  In56  1  0.18388969  0.31375255  0.14492584  1
  In  In57  1  0.16103051  0.31481651  0.63057354  1
  In  In58  1  0.16024080  0.66615921  0.12455045  1
  In  In59  1  0.17264474  0.68691189  0.61642641  1
  In  In60  1  0.49050195  -0.00638665  0.12548898  1
  In  In61  1  0.48158403  -0.01637818  0.61150797  1
  In  In62  1  0.50617956  0.32189372  0.13540951  1
  In  In63  1  0.50888250  0.34296162  0.61527520  1
  In  In64  1  0.49898418  0.68270828  0.12734626  1
  In  In65  1  0.48573256  0.65824538  0.61459814  1
  In  In66  1  0.84893762  -0.00331537  0.12485338  1
  In  In67  1  0.83794215  -0.01194030  0.62599953  1
  In  In68  1  0.83414505  0.33553067  0.12799639  1
  In  In69  1  0.82786926  0.33989235  0.62771145  1
  In  In70  1  0.83607341  0.66383608  0.12380980  1
  In  In71  1  0.84661512  0.66149369  0.61946465  1
  In  In72  1  0.00226090  0.00793664  0.75398068  1
  In  In73  1  0.16890148  0.50313115  0.49335995  1
  In  In74  1  0.82989921  0.16771814  0.49954497  1
  In  In75  1  0.82797442  0.81862747  0.49327680  1
  In  In76  1  0.17368229  0.15934536  0.49491716  1
  In  In77  1  0.32971470  0.33398911  0.74978982  1
  In  In78  1  0.00878912  0.66315898  0.75821731  1
  In  In79  1  0.65778171  0.00986817  0.75661152  1
  In  In80  1  0.50028061  0.50089901  -0.00374146  1
  In  In81  1  0.66763946  0.00131568  0.24576444  1
  In  In82  1  0.33499654  0.66698202  0.25074415  1
  In  In83  1  0.83537505  0.16777943  0.00832438  1
  In  In84  1  0.66224816  0.66343519  0.74857397  1
  In  In85  1  0.15916632  0.50455173  0.00278201  1
  Cu  Cu86  1  0.00167201  0.33169128  0.01065230  1
  Cu  Cu87  1  0.66587760  0.66484473  0.49795835  1
  Cu  Cu88  1  0.66494442  0.33171735  0.00676192  1
  Cu  Cu89  1  -0.00237473  0.33244676  0.49561207  1
  Cu  Cu90  1  0.83172507  0.48962483  0.74769384  1
  Cu  Cu91  1  0.66826191  0.66302265  0.00391109  1
  Cu  Cu92  1  0.33379197  -0.00083882  0.00430992  1
  Cu  Cu93  1  0.82805411  0.50366634  0.24948701  1
  Cu  Cu94  1  -0.00106528  0.66741517  0.00459581  1
  Cu  Cu95  1  0.84214426  0.82441721  0.24643444  1
  Cu  Cu96  1  0.50647969  0.50015382  0.25410241  1
  Cu  Cu97  1  0.50036147  0.16768405  0.74710543  1
  Cu  Cu98  1  0.16290010  0.49874782  0.25194930  1
  Cu  Cu99  1  0.00951484  -0.00569921  0.48683736  1
  Cu  Cu100  1  0.33193159  0.00029613  0.49590585  1
  Cu  Cu101  1  0.49927537  0.83541382  0.25149324  1
  Cu  Cu102  1  0.66376532  0.33423432  0.49574305  1
  Cu  Cu103  1  0.34165542  0.32934200  0.49036447  1
  Cu  Cu104  1  0.83476098  0.82926176  0.76094923  1
  Cu  Cu105  1  0.00947951  0.00053852  0.00897795  1
  Cu  Cu106  1  0.83832916  0.17900255  0.74968365  1
  Cu  Cu107  1  0.00336903  0.66912149  0.49209117  1
  Cu  Cu108  1  0.16017123  0.50662165  0.74825022  1
  Cu  Cu109  1  0.33468900  0.32419193  0.00619285  1
  Cu  Cu110  1  0.48355016  0.83839596  0.75024331  1
  Cu  Cu111  1  0.82861845  0.17361380  0.25012555  1
  Cu  Cu112  1  0.66162700  -0.00589013  0.00571546  1
  Cu  Cu113  1  0.65879621  0.00463499  0.49733226  1
  Cu  Cu114  1  0.50377143  0.50118660  0.74233162  1
  Se  Se115  1  0.09064666  0.08640707  0.06094331  1
  Se  Se116  1  0.08254372  0.07018739  0.55671894  1
  Se  Se117  1  0.08849925  0.40856631  0.06914562  1
  Se  Se118  1  0.08437431  0.40631083  0.55663142  1
  Se  Se119  1  0.08775586  0.75029816  0.05127902  1
  Se  Se120  1  0.08396122  0.75604613  0.54373734  1
  Se  Se121  1  0.41760702  0.08440828  0.05623608  1
  Se  Se122  1  0.41539250  0.08695743  0.54818420  1
  Se  Se123  1  0.41364204  0.41186387  0.06063224  1
  Se  Se124  1  0.41954530  0.41626441  0.54517557  1
  Se  Se125  1  0.41944868  0.74663168  0.05030184  1
  Se  Se126  1  0.43430033  0.77415710  0.56187242  1
  Se  Se127  1  0.74116608  0.07583221  0.06584360  1
  Se  Se128  1  0.74391939  0.07245765  0.56174644  1
  Se  Se129  1  0.75341231  0.41380361  0.05371908  1
  Se  Se130  1  0.75084543  0.41370780  0.55086646  1
  Se  Se131  1  0.75079899  0.74888720  0.05609303  1
  Se  Se132  1  0.73782940  0.74418327  0.56691913  1
  Se  Se133  1  0.24728575  0.24569514  0.05931191  1
  Se  Se134  1  0.25974284  0.25684992  0.55525200  1
  Se  Se135  1  0.25918434  0.59074424  0.05674406  1
  Se  Se136  1  0.25645520  0.58415909  0.56062763  1
  Se  Se137  1  0.25105249  0.91594887  0.05787444  1
  Se  Se138  1  0.25131874  0.91847720  0.55402809  1
  Se  Se139  1  0.57860117  0.24785955  0.05469838  1
  Se  Se140  1  0.58132718  0.24811279  0.54775491  1
  Se  Se141  1  0.58717583  0.58329504  0.06429415  1
  Se  Se142  1  0.58159354  0.58181342  0.55208900  1
  Se  Se143  1  0.57697817  0.91157062  0.05826682  1
  Se  Se144  1  0.58106181  0.91340846  0.54763612  1
  Se  Se145  1  0.93025341  0.24397607  0.07156709  1
  Se  Se146  1  0.92650412  0.24987810  0.56099243  1
  Se  Se147  1  0.91767724  0.57842901  0.05334023  1
  Se  Se148  1  0.91846246  0.58447168  0.54266239  1
  Se  Se149  1  0.92027903  0.91353212  0.05154697  1
  Se  Se150  1  0.92253396  0.91956030  0.54745990  1
  Se  Se151  1  0.07964593  0.25236212  0.43787110  1
  Se  Se152  1  0.08592856  0.25289065  0.95449768  1
  Se  Se153  1  0.08310924  0.59074855  0.43009264  1
  Se  Se154  1  0.07758007  0.59464774  0.93495137  1
  Se  Se155  1  0.09674796  0.91500350  0.43659983  1
  Se  Se156  1  0.08957767  0.91680960  0.95217189  1
  Se  Se157  1  0.41639505  0.24651315  0.43094817  1
  Se  Se158  1  0.42040972  0.24440443  0.95136753  1
  Se  Se159  1  0.41150140  0.58867880  0.45504233  1
  Se  Se160  1  0.40169731  0.58756248  0.94194764  1
  Se  Se161  1  0.41860497  0.91452572  0.44691067  1
  Se  Se162  1  0.41581695  0.91660593  0.94694873  1
  Se  Se163  1  0.74233410  0.25273060  0.43484495  1
  Se  Se164  1  0.74417614  0.25115891  0.94263849  1
  Se  Se165  1  0.75304321  0.58465803  0.44593309  1
  Se  Se166  1  0.75067375  0.57645934  0.95268106  1
  Se  Se167  1  0.74227118  0.92343858  0.44006475  1
  Se  Se168  1  0.74994363  0.91209920  0.95594995  1
  Se  Se169  1  0.26469191  0.08304828  0.42831533  1
  Se  Se170  1  0.24953051  0.08614647  0.95434793  1
  Se  Se171  1  0.25256054  0.40372568  0.43325654  1
  Se  Se172  1  0.25649019  0.40948308  0.94701220  1
  Se  Se173  1  0.26412658  0.73026336  0.45242389  1
  Se  Se174  1  0.24689304  0.75761158  0.94615347  1
  Se  Se175  1  0.57578856  0.08782330  0.44539242  1
  Se  Se176  1  0.58415182  0.07793942  0.94760559  1
  Se  Se177  1  0.58050082  0.41900126  0.44291662  1
  Se  Se178  1  0.58875368  0.40596262  0.93819149  1
  Se  Se179  1  0.58491314  0.75066328  0.44613372  1
  Se  Se180  1  0.58114511  0.74448518  0.95185117  1
  Se  Se181  1  0.92478396  0.08124834  0.43801908  1
  Se  Se182  1  0.92594776  0.07703299  0.94578660  1
  Se  Se183  1  0.91352369  0.41870420  0.44842885  1
  Se  Se184  1  0.91655453  0.41099102  0.95447199  1
  Se  Se185  1  0.92731225  0.75137432  0.42848943  1
  Se  Se186  1  0.91439610  0.75249313  0.95166807  1
  Se  Se187  1  0.22491366  0.21416882  0.29233558  1
  Se  Se188  1  0.24742774  0.25017268  0.81768099  1
  Se  Se189  1  0.24404784  0.57856512  0.31377842  1
  Se  Se190  1  0.24848170  0.58720159  0.79756893  1
  Se  Se191  1  0.24842933  0.89435358  0.30364308  1
  Se  Se192  1  0.25730780  0.93257283  0.80215359  1
  Se  Se193  1  0.57765744  0.25211473  0.29263833  1
  Se  Se194  1  0.58382795  0.25077233  0.79963899  1
  Se  Se195  1  0.58476291  0.58724405  0.30752327  1
  Se  Se196  1  0.57168666  0.57965862  0.81373311  1
  Se  Se197  1  0.58133714  0.91522910  0.31193471  1
  Se  Se198  1  0.57250896  0.91026055  0.81115081  1
  Se  Se199  1  0.91729033  0.25237968  0.30288530  1
  Se  Se200  1  0.91981475  0.25757040  0.80754598  1
  Se  Se201  1  0.91756308  0.58227400  0.30169646  1
  Se  Se202  1  0.90665564  0.57467415  0.80965823  1
  Se  Se203  1  0.92020964  0.91677660  0.29529814  1
  Se  Se204  1  0.91273952  0.91417350  0.81677868  1
  Se  Se205  1  0.07575550  0.06558847  0.29546501  1
  Se  Se206  1  0.08880296  0.08824563  0.82054967  1
  Se  Se207  1  0.08132702  0.41273853  0.30461479  1
  Se  Se208  1  0.08208350  0.42296161  0.80478979  1
  Se  Se209  1  0.07532355  0.73455021  0.29475304  1
  Se  Se210  1  0.09157820  0.77055137  0.80349762  1
  Se  Se211  1  0.41531716  0.06847541  0.29182093  1
  Se  Se212  1  0.41484612  0.08944276  0.80254971  1
  Se  Se213  1  0.41655725  0.42078463  0.30437935  1
  Se  Se214  1  0.42392413  0.42471509  0.80864511  1
  Se  Se215  1  0.42298604  0.75322268  0.31442585  1
  Se  Se216  1  0.40561268  0.75241093  0.80501483  1
  Se  Se217  1  0.75357280  0.09053289  0.31291660  1
  Se  Se218  1  0.76119426  0.09590014  0.81053524  1
  Se  Se219  1  0.74768316  0.41862040  0.30509333  1
  Se  Se220  1  0.74575391  0.41241663  0.80354514  1
  Se  Se221  1  0.75254104  0.74712687  0.29829733  1
  Se  Se222  1  0.74890946  0.75144495  0.81626012  1
  Se  Se223  1  0.24200394  0.09751247  0.20187814  1
  Se  Se224  1  0.22370623  0.11550761  0.69323405  1
  Se  Se225  1  0.25476312  0.41565975  0.20718898  1
  Se  Se226  1  0.24038013  0.42445436  0.68692097  1
  Se  Se227  1  0.24718078  0.75492716  0.18926482  1
  Se  Se228  1  0.24520017  0.75305661  0.69604586  1
  Se  Se229  1  0.57270788  0.08999083  0.19185303  1
  Se  Se230  1  0.57340565  0.08436526  0.68296878  1
  Se  Se231  1  0.58618515  0.41553206  0.19762752  1
  Se  Se232  1  0.58648175  0.41404527  0.69421014  1
  Se  Se233  1  0.58402901  0.74870464  0.20340102  1
  Se  Se234  1  0.57067664  0.75769315  0.69468561  1
  Se  Se235  1  0.90913901  0.08441553  0.20057795  1
  Se  Se236  1  0.90969554  0.09318876  0.68753204  1
  Se  Se237  1  0.91345146  0.42114490  0.19716245  1
  Se  Se238  1  0.92216521  0.41457048  0.69399245  1
  Se  Se239  1  0.92496242  0.74671381  0.18857442  1
  Se  Se240  1  0.91176848  0.75399369  0.69643417  1
  Se  Se241  1  0.06129365  0.27242470  0.19678197  1
  Se  Se242  1  0.07753152  0.25562783  0.70877033  1
  Se  Se243  1  0.08500945  0.58359830  0.19682968  1
  Se  Se244  1  0.08476125  0.58263234  0.68115240  1
  Se  Se245  1  0.07598616  0.93052724  0.19158227  1
  Se  Se246  1  0.08211307  0.91479866  0.68831245  1
  Se  Se247  1  0.39811451  0.26500137  0.19517350  1
  Se  Se248  1  0.42128795  0.24959718  0.68544287  1
  Se  Se249  1  0.42489211  0.57478318  0.18918223  1
  Se  Se250  1  0.41553769  0.58453692  0.69572504  1
  Se  Se251  1  0.41225921  0.91365175  0.19852694  1
  Se  Se252  1  0.40758972  0.92831059  0.69692369  1
  Se  Se253  1  0.74702147  0.25823227  0.19864045  1
  Se  Se254  1  0.74804409  0.25372430  0.69631835  1
  Se  Se255  1  0.74733196  0.58862777  0.19495359  1
  Se  Se256  1  0.75834099  0.57741718  0.68841763  1
  Se  Se257  1  0.75730498  0.90657940  0.18869445  1
  Se  Se258  1  0.75417488  0.91152970  0.70239525  1
