# generated using pymatgen
data_In86Cu29Se144
_symmetry_space_group_name_H-M   'P 1'
_cell_length_a   17.57468989
_cell_length_b   17.57823428
_cell_length_c   23.43743385
_cell_angle_alpha   90.00397162
_cell_angle_beta   90.01504078
_cell_angle_gamma   89.99274530
_symmetry_Int_Tables_number   1
_chemical_formula_structural   In86Cu29Se144
_chemical_formula_sum   'In86 Cu29 Se144'
_cell_volume   7240.57337127
_cell_formula_units_Z   1
loop_
 _symmetry_equiv_pos_site_id
 _symmetry_equiv_pos_as_xyz
  1  'x, y, z'
loop_
 _atom_site_type_symbol
 _atom_site_label
 _atom_site_symmetry_multiplicity
 _atom_site_fract_x
 _atom_site_fract_y
 _atom_site_fract_z
 _atom_site_occupancy
  In  In0  1  -0.00418818  0.15919003  0.12471064  1
  In  In1  1  0.02312872  0.15663837  0.64087691  1
  In  In2  1  0.00341855  0.51155267  0.12689884  1
  In  In3  1  -0.00752765  0.49019630  0.62405173  1
  In  In4  1  0.00504279  0.84326595  0.12666605  1
  In  In5  1  0.02275350  0.85573364  0.60221942  1
  In  In6  1  0.31926730  0.17116403  0.13710803  1
  In  In7  1  0.31643782  0.17036417  0.61885515  1
  In  In8  1  0.33557227  0.49277058  0.12642306  1
  In  In9  1  0.34448763  0.49673118  0.62027937  1
  In  In10  1  0.33366229  0.83798559  0.12485413  1
  In  In11  1  0.31350899  0.83461040  0.62278508  1
  In  In12  1  0.68314199  0.16427249  0.12372739  1
  In  In13  1  0.67753920  0.16187514  0.63977303  1
  In  In14  1  0.65946168  0.49314240  0.11844466  1
  In  In15  1  0.65696050  0.49864793  0.62488034  1
  In  In16  1  0.66797717  0.83937762  0.11384514  1
  In  In17  1  0.68209007  0.83985080  0.62051173  1
  In  In18  1  0.16089228  0.00469266  0.36299683  1
  In  In19  1  0.14996229  0.01018254  0.88402873  1
  In  In20  1  0.19006849  0.31409812  0.39298627  1
  In  In21  1  0.15146410  0.32530529  0.87195443  1
  In  In22  1  0.13968429  0.68414040  0.39858657  1
  In  In23  1  0.18152653  0.66695237  0.87204941  1
  In  In24  1  0.49691529  0.01128885  0.37552699  1
  In  In25  1  0.49916518  -0.01808577  0.87391175  1
  In  In26  1  0.50046867  0.33679333  0.37099642  1
  In  In27  1  0.51278596  0.33099856  0.87661748  1
  In  In28  1  0.48287421  0.66486254  0.37248703  1
  In  In29  1  0.49092034  0.67106286  0.88208983  1
  In  In30  1  0.84692440  -0.03159847  0.38925638  1
  In  In31  1  0.83750459  0.00216219  0.87318594  1
  In  In32  1  0.82271697  0.33631219  0.36978155  1
  In  In33  1  0.83544168  0.33158671  0.88109311  1
  In  In34  1  0.85790913  0.67143424  0.37433885  1
  In  In35  1  0.82962306  0.66875197  0.88445800  1
  In  In36  1  0.02126936  0.14883729  0.37533304  1
  In  In37  1  0.00138288  0.16148873  0.87684853  1
  In  In38  1  0.00757430  0.51348218  0.37245723  1
  In  In39  1  -0.00014098  0.48613800  0.87801262  1
  In  In40  1  0.00750909  0.83305958  0.36632998  1
  In  In41  1  -0.01024927  0.84534051  0.88130949  1
  In  In42  1  0.31951957  0.15694901  0.35653545  1
  In  In43  1  0.31932470  0.15525842  0.87788126  1
  In  In44  1  0.33396530  0.49436924  0.38273507  1
  In  In45  1  0.32742570  0.51372451  0.87691212  1
  In  In46  1  0.28182352  0.84234679  0.36703683  1
  In  In47  1  0.33681980  0.82940351  0.87975579  1
  In  In48  1  0.65729753  0.16629866  0.37297231  1
  In  In49  1  0.67888711  0.18042518  0.86683948  1
  In  In50  1  0.66668522  0.48350108  0.37451264  1
  In  In51  1  0.67203781  0.49350492  0.88389699  1
  In  In52  1  0.68815862  0.83434648  0.37653984  1
  In  In53  1  0.66509214  0.83387520  0.87573771  1
  In  In54  1  0.16344522  -0.00151267  0.12863000  1
  In  In55  1  0.16540493  0.00142549  0.61842813  1
  In  In56  1  0.17948291  0.33461464  0.13296801  1
  In  In57  1  0.15680225  0.32143256  0.60748699  1
  In  In58  1  0.15065669  0.67443236  0.13611520  1
  In  In59  1  0.17224356  0.67938737  0.62001947  1
  In  In60  1  0.50322289  -0.00875341  0.11989026  1
  In  In61  1  0.50293881  0.00733496  0.62801070  1
  In  In62  1  0.49007891  0.33963209  0.12644910  1
  In  In63  1  0.49757176  0.34656867  0.62837073  1
  In  In64  1  0.50174008  0.67177556  0.11696774  1
  In  In65  1  0.50313593  0.64754717  0.62293765  1
  In  In66  1  0.84081491  0.00614520  0.11567685  1
  In  In67  1  0.84382743  -0.00222677  0.62969722  1
  In  In68  1  0.82654646  0.32189036  0.12100386  1
  In  In69  1  0.84151277  0.32736423  0.63716079  1
  In  In70  1  0.84615586  0.67925664  0.11471301  1
  In  In71  1  0.83111867  0.67736616  0.62279003  1
  In  In72  1  0.49937493  0.16223741  -0.00448792  1
  In  In73  1  0.66714687  0.66439094  0.74717575  1
  In  In74  1  0.16681552  0.50090375  0.00350957  1
  In  In75  1  0.00422948  0.32941672  0.25454738  1
  In  In76  1  0.84221818  0.15765934  0.50272231  1
  In  In77  1  0.33224286  0.33271887  0.74765013  1
  In  In78  1  0.83451472  0.50384076  0.49973704  1
  In  In79  1  0.00096851  0.66976358  0.74640500  1
  In  In80  1  0.32162395  0.67021883  0.25016647  1
  In  In81  1  0.67037618  0.00563029  0.25153883  1
  In  In82  1  0.49373027  0.17212505  0.50208148  1
  In  In83  1  0.33145800  -0.00537056  0.74710573  1
  In  In84  1  0.66688406  0.66158532  0.23655575  1
  In  In85  1  0.49453182  0.83194792  0.49472264  1
  Cu  Cu86  1  0.83741155  0.17078552  0.75730830  1
  Cu  Cu87  1  -0.00270391  0.32668809  -0.00016589  1
  Cu  Cu88  1  0.32168381  0.00025009  0.48919042  1
  Cu  Cu89  1  0.66258398  0.33240133  0.50280549  1
  Cu  Cu90  1  0.83353667  0.49308496  0.75782954  1
  Cu  Cu91  1  0.50411885  0.16466324  0.75144529  1
  Cu  Cu92  1  0.32517287  -0.00208775  0.00257123  1
  Cu  Cu93  1  0.84009901  0.84388045  0.74788237  1
  Cu  Cu94  1  0.84447856  0.83054798  0.24448964  1
  Cu  Cu95  1  0.33225761  0.67077293  0.00249952  1
  Cu  Cu96  1  0.66513139  0.66375699  0.49963362  1
  Cu  Cu97  1  0.49391234  0.84110554  0.25240554  1
  Cu  Cu98  1  0.50002985  0.82354378  0.75457896  1
  Cu  Cu99  1  0.16241454  0.83844610  0.74720520  1
  Cu  Cu100  1  0.17099898  0.50124919  0.26119674  1
  Cu  Cu101  1  0.32990436  0.33147240  0.00618559  1
  Cu  Cu102  1  0.00214517  0.33350395  0.49855852  1
  Cu  Cu103  1  0.50130307  0.49598258  0.24986735  1
  Cu  Cu104  1  0.33594372  0.65770294  0.49993343  1
  Cu  Cu105  1  0.16979779  0.49958035  0.75012808  1
  Cu  Cu106  1  0.50113285  0.50023246  0.75006022  1
  Cu  Cu107  1  0.83099054  0.16598743  0.25112538  1
  Cu  Cu108  1  0.66476271  0.66399994  -0.00098574  1
  Cu  Cu109  1  0.00138915  0.67107456  0.00273344  1
  Cu  Cu110  1  0.50014266  0.17959941  0.24892433  1
  Cu  Cu111  1  0.67118383  -0.00149889  -0.00664058  1
  Cu  Cu112  1  -0.00041268  -0.00349047  0.00195403  1
  Cu  Cu113  1  0.66813062  0.33184382  -0.00072212  1
  Cu  Cu114  1  0.83480523  0.49830862  0.24980356  1
  Se  Se115  1  0.08227116  0.08026235  0.05632036  1
  Se  Se116  1  0.08582205  0.09288905  0.55503403  1
  Se  Se117  1  0.07763718  0.40682361  0.06254022  1
  Se  Se118  1  0.07980660  0.42319826  0.55024696  1
  Se  Se119  1  0.08405638  0.75280607  0.05751385  1
  Se  Se120  1  0.08145818  0.74361945  0.54829568  1
  Se  Se121  1  0.40804261  0.08164968  0.06056031  1
  Se  Se122  1  0.40250599  0.07060053  0.55614551  1
  Se  Se123  1  0.41541454  0.41958145  0.05086638  1
  Se  Se124  1  0.41726531  0.40729409  0.55062920  1
  Se  Se125  1  0.41605555  0.75675447  0.05385915  1
  Se  Se126  1  0.41193970  0.74329418  0.56199920  1
  Se  Se127  1  0.75168788  0.08371172  0.04742105  1
  Se  Se128  1  0.74427525  0.07749000  0.56208627  1
  Se  Se129  1  0.75149153  0.41416356  0.05418764  1
  Se  Se130  1  0.74995891  0.40783963  0.56175487  1
  Se  Se131  1  0.74883707  0.75010237  0.05021695  1
  Se  Se132  1  0.74871156  0.74922271  0.54846937  1
  Se  Se133  1  0.24710637  0.24846697  0.05811501  1
  Se  Se134  1  0.26374815  0.26286741  0.54558619  1
  Se  Se135  1  0.25165381  0.59401977  0.06680680  1
  Se  Se136  1  0.25326256  0.58320575  0.55985307  1
  Se  Se137  1  0.24386886  0.91449849  0.05722517  1
  Se  Se138  1  0.24444032  0.91615755  0.54765479  1
  Se  Se139  1  0.58599756  0.25067650  0.05997467  1
  Se  Se140  1  0.59143373  0.24996598  0.56710123  1
  Se  Se141  1  0.57983684  0.58209223  0.05207053  1
  Se  Se142  1  0.58415712  0.57529675  0.54755985  1
  Se  Se143  1  0.58268574  0.91805977  0.04453623  1
  Se  Se144  1  0.58251657  0.92078903  0.55734220  1
  Se  Se145  1  0.91502447  0.24318342  0.05494879  1
  Se  Se146  1  0.92450400  0.25506068  0.56104016  1
  Se  Se147  1  0.92061474  0.58067051  0.05155773  1
  Se  Se148  1  0.92349764  0.59515937  0.55800064  1
  Se  Se149  1  0.91443012  0.91046252  0.05229958  1
  Se  Se150  1  0.90355454  0.90968717  0.55346188  1
  Se  Se151  1  0.08095523  0.24455856  0.44667681  1
  Se  Se152  1  0.08410123  0.24502247  0.94897591  1
  Se  Se153  1  0.07583165  0.57729230  0.45610746  1
  Se  Se154  1  0.07929489  0.59080866  0.93938661  1
  Se  Se155  1  0.10365049  0.90514189  0.43218371  1
  Se  Se156  1  0.08506419  0.91134089  0.95079501  1
  Se  Se157  1  0.40972478  0.24471683  0.42960996  1
  Se  Se158  1  0.40566214  0.25533073  0.93826914  1
  Se  Se159  1  0.42333743  0.57842225  0.44868218  1
  Se  Se160  1  0.41277805  0.58247427  0.95088813  1
  Se  Se161  1  0.40352156  0.91789142  0.43156488  1
  Se  Se162  1  0.41303130  0.91803940  0.94943952  1
  Se  Se163  1  0.74476313  0.25140134  0.44553979  1
  Se  Se164  1  0.75172039  0.24596400  0.94920132  1
  Se  Se165  1  0.74635904  0.58952350  0.43291591  1
  Se  Se166  1  0.75239202  0.57996611  0.95082564  1
  Se  Se167  1  0.73492579  0.92715950  0.45220839  1
  Se  Se168  1  0.75467563  0.91409890  0.94050434  1
  Se  Se169  1  0.24344439  0.08689921  0.43569745  1
  Se  Se170  1  0.24142199  0.08452124  0.95368819  1
  Se  Se171  1  0.23712475  0.42929293  0.44996144  1
  Se  Se172  1  0.25131672  0.40900068  0.93993882  1
  Se  Se173  1  0.25638326  0.74745402  0.44859956  1
  Se  Se174  1  0.24745028  0.75074165  0.94806978  1
  Se  Se175  1  0.58975642  0.07765160  0.44919964  1
  Se  Se176  1  0.59058395  0.07834081  0.93200258  1
  Se  Se177  1  0.58102203  0.41334024  0.44718209  1
  Se  Se178  1  0.58048622  0.41586433  0.95098252  1
  Se  Se179  1  0.58872561  0.74239650  0.43424571  1
  Se  Se180  1  0.58382407  0.75007222  0.94454308  1
  Se  Se181  1  0.93403030  0.06632357  0.44665730  1
  Se  Se182  1  0.91727182  0.08100009  0.94690163  1
  Se  Se183  1  0.91876273  0.40968455  0.43733004  1
  Se  Se184  1  0.91592411  0.41690097  0.95193880  1
  Se  Se185  1  0.90562170  0.77713396  0.43886050  1
  Se  Se186  1  0.91609575  0.75228438  0.94826730  1
  Se  Se187  1  0.24646796  0.26045607  0.30028952  1
  Se  Se188  1  0.24169950  0.24017936  0.80505375  1
  Se  Se189  1  0.24291680  0.58779704  0.32136195  1
  Se  Se190  1  0.25472077  0.58562029  0.79732430  1
  Se  Se191  1  0.26444425  0.94628508  0.29177485  1
  Se  Se192  1  0.24231206  0.91342770  0.81305579  1
  Se  Se193  1  0.58825596  0.25599948  0.30278773  1
  Se  Se194  1  0.58481283  0.25433803  0.80002308  1
  Se  Se195  1  0.57936713  0.58143567  0.30758367  1
  Se  Se196  1  0.58012983  0.57966395  0.81282383  1
  Se  Se197  1  0.58272181  0.91100123  0.31255936  1
  Se  Se198  1  0.58485745  0.91069362  0.80098003  1
  Se  Se199  1  0.91295363  0.23894424  0.31596465  1
  Se  Se200  1  0.92074790  0.25331033  0.81127084  1
  Se  Se201  1  0.91971237  0.58232322  0.29933022  1
  Se  Se202  1  0.91242277  0.58153517  0.81175800  1
  Se  Se203  1  0.91808550  0.91856488  0.30078948  1
  Se  Se204  1  0.92467944  0.92412237  0.80187640  1
  Se  Se205  1  0.07264030  0.07463309  0.28920548  1
  Se  Se206  1  0.08200067  0.08165357  0.80458276  1
  Se  Se207  1  0.09314814  0.41392774  0.31821198  1
  Se  Se208  1  0.08416338  0.41914449  0.80256289  1
  Se  Se209  1  0.08885573  0.73919361  0.30510245  1
  Se  Se210  1  0.08695988  0.75740166  0.81163471  1
  Se  Se211  1  0.42457487  0.08598411  0.29833529  1
  Se  Se212  1  0.42176528  0.08694773  0.81006096  1
  Se  Se213  1  0.41386946  0.42135447  0.30576541  1
  Se  Se214  1  0.42021985  0.42159098  0.81250399  1
  Se  Se215  1  0.40870736  0.76660980  0.31173269  1
  Se  Se216  1  0.41212906  0.74548892  0.80599133  1
  Se  Se217  1  0.76175470  0.08340651  0.31858481  1
  Se  Se218  1  0.75115818  0.08266615  0.80389057  1
  Se  Se219  1  0.74578874  0.41544263  0.29594464  1
  Se  Se220  1  0.74895808  0.41307802  0.81119944  1
  Se  Se221  1  0.75907152  0.74857319  0.29960236  1
  Se  Se222  1  0.76233261  0.75458638  0.80334304  1
  Se  Se223  1  0.26190645  0.06348008  0.19890883  1
  Se  Se224  1  0.24110189  0.09027204  0.69489149  1
  Se  Se225  1  0.25302476  0.42384647  0.20217066  1
  Se  Se226  1  0.24423139  0.41902085  0.68569605  1
  Se  Se227  1  0.23543663  0.76969654  0.19713830  1
  Se  Se228  1  0.24799600  0.75152630  0.69974414  1
  Se  Se229  1  0.57753613  0.09303098  0.18868267  1
  Se  Se230  1  0.58652767  0.07723427  0.70175998  1
  Se  Se231  1  0.58279731  0.41507394  0.19342890  1
  Se  Se232  1  0.58697723  0.41609446  0.70056282  1
  Se  Se233  1  0.57558885  0.76526458  0.19053498  1
  Se  Se234  1  0.57938160  0.75385139  0.68477935  1
  Se  Se235  1  0.90948114  0.08227819  0.19539551  1
  Se  Se236  1  0.91630801  0.08958869  0.69808130  1
  Se  Se237  1  0.91564944  0.41599052  0.18974661  1
  Se  Se238  1  0.92150450  0.41614725  0.70333217  1
  Se  Se239  1  0.92685098  0.74641208  0.19197141  1
  Se  Se240  1  0.91865661  0.76467147  0.68611292  1
  Se  Se241  1  0.09048140  0.24073803  0.19229514  1
  Se  Se242  1  0.08467737  0.26842939  0.69447786  1
  Se  Se243  1  0.08523946  0.57814949  0.20444641  1
  Se  Se244  1  0.08936172  0.57768935  0.68739403  1
  Se  Se245  1  0.06607757  0.93714961  0.19974330  1
  Se  Se246  1  0.08383271  0.92049785  0.69013273  1
  Se  Se247  1  0.41090708  0.25708907  0.19648416  1
  Se  Se248  1  0.42163316  0.23757095  0.68788517  1
  Se  Se249  1  0.42444804  0.58527596  0.19319884  1
  Se  Se250  1  0.41648579  0.58071894  0.69675155  1
  Se  Se251  1  0.41752302  0.92194753  0.19317942  1
  Se  Se252  1  0.42360936  0.90270657  0.68819378  1
  Se  Se253  1  0.74825414  0.25019773  0.19968044  1
  Se  Se254  1  0.75076123  0.25492026  0.70558698  1
  Se  Se255  1  0.76302937  0.57544501  0.18112551  1
  Se  Se256  1  0.76200215  0.57274014  0.69049104  1
  Se  Se257  1  0.75578199  0.91131038  0.18959681  1
  Se  Se258  1  0.74913474  0.92208826  0.69696388  1
