# generated using pymatgen
data_In86Cu29Se144
_symmetry_space_group_name_H-M   'P 1'
_cell_length_a   17.58115804
_cell_length_b   17.58639517
_cell_length_c   23.44739986
_cell_angle_alpha   90.04397196
_cell_angle_beta   89.98579192
_cell_angle_gamma   90.01946967
_symmetry_Int_Tables_number   1
_chemical_formula_structural   In86Cu29Se144
_chemical_formula_sum   'In86 Cu29 Se144'
_cell_volume   7249.67986082
_cell_formula_units_Z   1
loop_
 _symmetry_equiv_pos_site_id
 _symmetry_equiv_pos_as_xyz
  1  'x, y, z'
loop_
 _atom_site_type_symbol
 _atom_site_label
 _atom_site_symmetry_multiplicity
 _atom_site_fract_x
 _atom_site_fract_y
 _atom_site_fract_z
 _atom_site_occupancy
  In  In0  1  -0.01004407  0.15500350  0.12583061  1
  In  In1  1  -0.00278309  0.17591333  0.62911902  1
  In  In2  1  0.00139015  0.50415262  0.11838582  1
  In  In3  1  -0.01063384  0.49555122  0.62626206  1
  In  In4  1  0.01032140  0.82627903  0.13237286  1
  In  In5  1  -0.00214753  0.83029349  0.61349178  1
  In  In6  1  0.32045622  0.14869886  0.10707195  1
  In  In7  1  0.34485412  0.17487267  0.62059718  1
  In  In8  1  0.33250534  0.51200541  0.12449555  1
  In  In9  1  0.34441973  0.48095651  0.63228356  1
  In  In10  1  0.32833755  0.83642727  0.12215077  1
  In  In11  1  0.32734745  0.84225490  0.62020551  1
  In  In12  1  0.67230471  0.17808586  0.11383875  1
  In  In13  1  0.67524023  0.17892408  0.62188687  1
  In  In14  1  0.67550446  0.48786332  0.12967848  1
  In  In15  1  0.65400190  0.51061129  0.64193373  1
  In  In16  1  0.65239856  0.83068918  0.12825629  1
  In  In17  1  0.67394167  0.82149268  0.62651902  1
  In  In18  1  0.15673564  -0.01286966  0.36172901  1
  In  In19  1  0.17021517  0.00302097  0.89394276  1
  In  In20  1  0.17174440  0.33866409  0.37496170  1
  In  In21  1  0.16636860  0.33212110  0.87850964  1
  In  In22  1  0.17626978  0.67801105  0.36648161  1
  In  In23  1  0.16150565  0.67179052  0.88556567  1
  In  In24  1  0.50486422  0.01503854  0.37089723  1
  In  In25  1  0.48759773  0.00664814  0.89219340  1
  In  In26  1  0.50757288  0.31624215  0.38498178  1
  In  In27  1  0.49289241  0.33834488  0.86133428  1
  In  In28  1  0.49863716  0.66270069  0.37084433  1
  In  In29  1  0.51492519  0.65761183  0.87677829  1
  In  In30  1  0.83566129  -0.00594571  0.37802287  1
  In  In31  1  0.84039268  0.00434447  0.87808584  1
  In  In32  1  0.81639289  0.34015868  0.37658496  1
  In  In33  1  0.83223569  0.33280114  0.87725987  1
  In  In34  1  0.84183601  0.67073651  0.36379299  1
  In  In35  1  0.80873494  0.66353811  0.86978831  1
  In  In36  1  -0.00188826  0.15301552  0.36992176  1
  In  In37  1  -0.01398340  0.17870481  0.88781699  1
  In  In38  1  -0.01496860  0.50198205  0.37059318  1
  In  In39  1  0.00907966  0.49018541  0.88329959  1
  In  In40  1  0.00042640  0.83428032  0.36992946  1
  In  In41  1  -0.00030314  0.84261055  0.87876612  1
  In  In42  1  0.35003355  0.16349192  0.36901290  1
  In  In43  1  0.32643689  0.17392951  0.88545393  1
  In  In44  1  0.33518119  0.51181977  0.37533966  1
  In  In45  1  0.34049227  0.48502789  0.87510677  1
  In  In46  1  0.32461902  0.82641154  0.36831377  1
  In  In47  1  0.33100094  0.84252786  0.89085562  1
  In  In48  1  0.66182011  0.17306464  0.37906113  1
  In  In49  1  0.65242910  0.18991573  0.89368178  1
  In  In50  1  0.65943502  0.49140791  0.36813544  1
  In  In51  1  0.66613085  0.50589104  0.86833210  1
  In  In52  1  0.67947288  0.83069445  0.37558840  1
  In  In53  1  0.66003527  0.81525507  0.87498755  1
  In  In54  1  0.16950270  -0.00545881  0.12585268  1
  In  In55  1  0.17646030  -0.00365924  0.62010222  1
  In  In56  1  0.16734138  0.33375329  0.11319611  1
  In  In57  1  0.16729047  0.32745500  0.63799721  1
  In  In58  1  0.16550788  0.66973874  0.12243933  1
  In  In59  1  0.16002889  0.67035944  0.61893097  1
  In  In60  1  0.48842502  -0.00636828  0.11233515  1
  In  In61  1  0.48491484  0.00596991  0.62058170  1
  In  In62  1  0.51933936  0.32445366  0.12276671  1
  In  In63  1  0.50377988  0.33781644  0.62626841  1
  In  In64  1  0.48636213  0.67162257  0.13522686  1
  In  In65  1  0.52658593  0.66359721  0.62297675  1
  In  In66  1  0.84012578  0.02180139  0.13158877  1
  In  In67  1  0.83112409  0.00041084  0.61494839  1
  In  In68  1  0.81074358  0.31950762  0.10917225  1
  In  In69  1  0.83504527  0.32925178  0.63233664  1
  In  In70  1  0.84147866  0.65969293  0.13121733  1
  In  In71  1  0.82221663  0.67060245  0.62020568  1
  In  In72  1  0.34168686  0.33292644  0.24768397  1
  In  In73  1  0.33905854  0.66361088  0.75406607  1
  In  In74  1  0.50320793  0.83539622  0.49995314  1
  In  In75  1  0.16643138  0.16248530  0.50112417  1
  In  In76  1  0.33001939  0.00740084  0.75169423  1
  In  In77  1  -0.00896769  0.33278516  0.24428129  1
  In  In78  1  0.17299749  0.50389314  0.49840340  1
  In  In79  1  0.82500446  0.50440345  0.50150103  1
  In  In80  1  0.50052157  0.49717939  0.00197256  1
  In  In81  1  0.00043405  0.00338090  0.76158445  1
  In  In82  1  0.83426346  0.83184570  -0.00020651  1
  In  In83  1  0.66595861  -0.00017382  0.24774072  1
  In  In84  1  0.66460104  0.00271792  0.75228690  1
  In  In85  1  -0.00665122  0.66033047  0.74222121  1
  Cu  Cu86  1  0.50414498  0.16571600  0.24534465  1
  Cu  Cu87  1  0.83685054  0.83518145  0.25180512  1
  Cu  Cu88  1  0.33942225  0.66644615  0.49548980  1
  Cu  Cu89  1  0.50389401  0.83023997  0.75588683  1
  Cu  Cu90  1  0.00626144  -0.00332724  0.00698525  1
  Cu  Cu91  1  0.16802917  0.83332155  0.24568537  1
  Cu  Cu92  1  0.83114213  0.16808893  0.75644099  1
  Cu  Cu93  1  -0.00497736  0.66385413  0.00448130  1
  Cu  Cu94  1  0.00396288  0.67655159  0.49062363  1
  Cu  Cu95  1  -0.00112224  0.32652227  0.50669177  1
  Cu  Cu96  1  0.16196282  0.83629032  0.75046817  1
  Cu  Cu97  1  0.32841089  0.67029818  0.00567454  1
  Cu  Cu98  1  0.50232211  0.49951447  0.24901608  1
  Cu  Cu99  1  0.83631920  0.49222986  0.75316486  1
  Cu  Cu100  1  0.66422733  0.00675959  0.49655221  1
  Cu  Cu101  1  0.33577686  0.33136063  -0.00426470  1
  Cu  Cu102  1  0.66370965  0.33223774  0.50385917  1
  Cu  Cu103  1  0.50239723  0.17489532  0.74940553  1
  Cu  Cu104  1  0.82842335  0.50060529  0.24644063  1
  Cu  Cu105  1  0.16564925  0.17360666  0.75932556  1
  Cu  Cu106  1  0.49275245  0.82957222  0.24786138  1
  Cu  Cu107  1  0.17043376  0.16035861  0.24276143  1
  Cu  Cu108  1  -0.00375079  -0.00399737  0.49155593  1
  Cu  Cu109  1  0.16233269  0.50881432  0.24536289  1
  Cu  Cu110  1  0.66971083  -0.00183790  0.00711026  1
  Cu  Cu111  1  0.00158222  0.33374380  0.00086519  1
  Cu  Cu112  1  0.16939898  0.49180354  0.75823975  1
  Cu  Cu113  1  0.32801453  -0.00181827  0.49345434  1
  Cu  Cu114  1  0.66201081  0.66152971  0.00191332  1
  Se  Se115  1  0.08534374  0.08401689  0.05981443  1
  Se  Se116  1  0.07139623  0.07323234  0.55998718  1
  Se  Se117  1  0.08500958  0.42172804  0.04990642  1
  Se  Se118  1  0.08153585  0.41148128  0.56007544  1
  Se  Se119  1  0.07956503  0.75075882  0.05279208  1
  Se  Se120  1  0.08961319  0.75516746  0.54641754  1
  Se  Se121  1  0.43926369  0.10632125  0.05204972  1
  Se  Se122  1  0.40867715  0.08382162  0.54677641  1
  Se  Se123  1  0.41029271  0.40722431  0.06398485  1
  Se  Se124  1  0.42292921  0.41828324  0.55451882  1
  Se  Se125  1  0.41683136  0.74930636  0.05741019  1
  Se  Se126  1  0.41475414  0.74451326  0.56318636  1
  Se  Se127  1  0.75627813  0.08313307  0.05374599  1
  Se  Se128  1  0.74848146  0.08846797  0.55238362  1
  Se  Se129  1  0.74291530  0.41966155  0.04706217  1
  Se  Se130  1  0.74417638  0.41241092  0.56452159  1
  Se  Se131  1  0.74395811  0.74363465  0.06123880  1
  Se  Se132  1  0.75093344  0.75435803  0.54844917  1
  Se  Se133  1  0.24804878  0.24884896  0.04604505  1
  Se  Se134  1  0.25078502  0.26043099  0.55725837  1
  Se  Se135  1  0.24523341  0.58154365  0.05293762  1
  Se  Se136  1  0.26293344  0.58870963  0.56316139  1
  Se  Se137  1  0.25375218  0.92307476  0.05230935  1
  Se  Se138  1  0.24543378  0.91285800  0.54498221  1
  Se  Se139  1  0.58798516  0.25364990  0.04271112  1
  Se  Se140  1  0.57893323  0.24679544  0.55531388  1
  Se  Se141  1  0.58238613  0.58743240  0.06755695  1
  Se  Se142  1  0.59991309  0.57924993  0.55346565  1
  Se  Se143  1  0.58385335  0.91116743  0.05242939  1
  Se  Se144  1  0.58970200  0.92678337  0.56320231  1
  Se  Se145  1  0.92226187  0.25046916  0.05733832  1
  Se  Se146  1  0.91111249  0.24680302  0.55711089  1
  Se  Se147  1  0.90759495  0.58051298  0.05187266  1
  Se  Se148  1  0.92834794  0.59446070  0.55397104  1
  Se  Se149  1  0.91959155  0.91926272  0.06554612  1
  Se  Se150  1  0.91357540  0.91483452  0.54877061  1
  Se  Se151  1  0.07759721  0.25555388  0.43934808  1
  Se  Se152  1  0.08701859  0.24806591  0.94955770  1
  Se  Se153  1  0.07884328  0.58678237  0.43466409  1
  Se  Se154  1  0.08193277  0.58326753  0.95034958  1
  Se  Se155  1  0.08436177  0.91508176  0.44146959  1
  Se  Se156  1  0.08445166  0.91040088  0.95240052  1
  Se  Se157  1  0.40680348  0.24760708  0.44646728  1
  Se  Se158  1  0.42462708  0.25808906  0.93998725  1
  Se  Se159  1  0.42362244  0.58218210  0.44692593  1
  Se  Se160  1  0.40839852  0.59033655  0.94291219  1
  Se  Se161  1  0.41453538  0.92099232  0.43509371  1
  Se  Se162  1  0.42124495  0.91224245  0.95858990  1
  Se  Se163  1  0.74897072  0.25190455  0.44915841  1
  Se  Se164  1  0.77411210  0.23103166  0.94526234  1
  Se  Se165  1  0.74766188  0.58719787  0.43025454  1
  Se  Se166  1  0.74436369  0.58073444  0.94679242  1
  Se  Se167  1  0.74705478  0.91911860  0.44789744  1
  Se  Se168  1  0.74151129  0.91880394  0.93881401  1
  Se  Se169  1  0.24871151  0.07753250  0.43166587  1
  Se  Se170  1  0.27007245  0.07286694  0.95292862  1
  Se  Se171  1  0.26454513  0.40957063  0.44383797  1
  Se  Se172  1  0.25096180  0.41765425  0.94647449  1
  Se  Se173  1  0.25213098  0.74833136  0.44601270  1
  Se  Se174  1  0.24496586  0.75428630  0.95220954  1
  Se  Se175  1  0.57761547  0.08996781  0.44832707  1
  Se  Se176  1  0.58826355  0.08093914  0.95093922  1
  Se  Se177  1  0.58544566  0.41418132  0.44501824  1
  Se  Se178  1  0.58527286  0.41339295  0.93603039  1
  Se  Se179  1  0.58994548  0.74432992  0.44091678  1
  Se  Se180  1  0.57808497  0.74696083  0.95178049  1
  Se  Se181  1  0.91419804  0.08601342  0.44535451  1
  Se  Se182  1  0.92042451  0.07669956  0.95251164  1
  Se  Se183  1  0.92138803  0.40968661  0.44624775  1
  Se  Se184  1  0.91551878  0.41560444  0.94794904  1
  Se  Se185  1  0.91399011  0.75302351  0.43882763  1
  Se  Se186  1  0.91798619  0.73863519  0.93635384  1
  Se  Se187  1  0.24446599  0.24280640  0.30590650  1
  Se  Se188  1  0.25526459  0.25349059  0.80889302  1
  Se  Se189  1  0.25057377  0.58251173  0.30197799  1
  Se  Se190  1  0.24157221  0.58137488  0.81453473  1
  Se  Se191  1  0.25498157  0.91690883  0.29751179  1
  Se  Se192  1  0.24166721  0.91439822  0.81132078  1
  Se  Se193  1  0.58210624  0.24861819  0.30355226  1
  Se  Se194  1  0.58897522  0.25157776  0.80468506  1
  Se  Se195  1  0.58526388  0.58462463  0.30140619  1
  Se  Se196  1  0.58822324  0.59014640  0.79832888  1
  Se  Se197  1  0.57638693  0.90745585  0.30945675  1
  Se  Se198  1  0.57265619  0.91906542  0.81673220  1
  Se  Se199  1  0.90859575  0.25033327  0.31351250  1
  Se  Se200  1  0.91896644  0.25093926  0.80636439  1
  Se  Se201  1  0.91884083  0.58248238  0.29399197  1
  Se  Se202  1  0.91359828  0.57647307  0.81348099  1
  Se  Se203  1  0.91794644  0.92162212  0.30321068  1
  Se  Se204  1  0.90319572  0.90479079  0.80572412  1
  Se  Se205  1  0.08320664  0.08289560  0.29719883  1
  Se  Se206  1  0.09152753  0.09149861  0.82093357  1
  Se  Se207  1  0.08715351  0.42329207  0.30564343  1
  Se  Se208  1  0.08079095  0.41053963  0.80710983  1
  Se  Se209  1  0.08311441  0.75066225  0.30042327  1
  Se  Se210  1  0.08190301  0.75285009  0.80650823  1
  Se  Se211  1  0.41943663  0.07908731  0.29420717  1
  Se  Se212  1  0.42377922  0.09317387  0.81029631  1
  Se  Se213  1  0.42603553  0.41938695  0.31318579  1
  Se  Se214  1  0.42557353  0.43549249  0.79554511  1
  Se  Se215  1  0.41319704  0.74491326  0.30368793  1
  Se  Se216  1  0.41880706  0.75867579  0.81776654  1
  Se  Se217  1  0.75095551  0.08691047  0.31203391  1
  Se  Se218  1  0.74899364  0.09168861  0.81693732  1
  Se  Se219  1  0.74626536  0.41390133  0.29759648  1
  Se  Se220  1  0.75017721  0.41417714  0.80696172  1
  Se  Se221  1  0.74937441  0.75061100  0.29895571  1
  Se  Se222  1  0.74722883  0.75608336  0.79945930  1
  Se  Se223  1  0.25786999  0.07960421  0.19256949  1
  Se  Se224  1  0.23957917  0.09744130  0.69085091  1
  Se  Se225  1  0.24224768  0.42006581  0.19114325  1
  Se  Se226  1  0.25266241  0.41248019  0.70206408  1
  Se  Se227  1  0.25087927  0.74884083  0.19236929  1
  Se  Se228  1  0.24454754  0.75543491  0.69312413  1
  Se  Se229  1  0.58148295  0.08546557  0.18213887  1
  Se  Se230  1  0.57383736  0.08879796  0.68831006  1
  Se  Se231  1  0.58331603  0.41282777  0.19738982  1
  Se  Se232  1  0.59932554  0.39853644  0.69776451  1
  Se  Se233  1  0.58199221  0.74589254  0.20121413  1
  Se  Se234  1  0.58673086  0.75244042  0.69964747  1
  Se  Se235  1  0.91838900  0.08952510  0.20853109  1
  Se  Se236  1  0.90855620  0.08563563  0.69565674  1
  Se  Se237  1  0.90504335  0.42082139  0.18247603  1
  Se  Se238  1  0.92218156  0.41133269  0.70022305  1
  Se  Se239  1  0.91854863  0.74939068  0.19795489  1
  Se  Se240  1  0.91009566  0.76027949  0.68866922  1
  Se  Se241  1  0.09166023  0.24824760  0.18858006  1
  Se  Se242  1  0.07744004  0.24935199  0.70373398  1
  Se  Se243  1  0.07834161  0.58741376  0.19060650  1
  Se  Se244  1  0.09596928  0.57027678  0.69103287  1
  Se  Se245  1  0.08249804  0.92090651  0.19832619  1
  Se  Se246  1  0.08464511  0.91649822  0.69011189  1
  Se  Se247  1  0.42002990  0.24054660  0.18310432  1
  Se  Se248  1  0.41550833  0.25429925  0.69570264  1
  Se  Se249  1  0.41068883  0.58020147  0.20262496  1
  Se  Se250  1  0.42778548  0.58384914  0.68859395  1
  Se  Se251  1  0.41797874  0.91609490  0.19112014  1
  Se  Se252  1  0.42187521  0.90821800  0.69581287  1
  Se  Se253  1  0.75153878  0.24487266  0.19218055  1
  Se  Se254  1  0.74844009  0.25004534  0.70155262  1
  Se  Se255  1  0.74462945  0.58621516  0.19535430  1
  Se  Se256  1  0.76314462  0.58095185  0.69571565  1
  Se  Se257  1  0.75846651  0.91102483  0.18660414  1
  Se  Se258  1  0.75633136  0.91669600  0.69148805  1
