# generated using pymatgen
data_In86Cu29Se144
_symmetry_space_group_name_H-M   'P 1'
_cell_length_a   17.58422225
_cell_length_b   17.58580231
_cell_length_c   23.44669563
_cell_angle_alpha   89.96437404
_cell_angle_beta   89.98212622
_cell_angle_gamma   89.98970938
_symmetry_Int_Tables_number   1
_chemical_formula_structural   In86Cu29Se144
_chemical_formula_sum   'In86 Cu29 Se144'
_cell_volume   7250.48210042
_cell_formula_units_Z   1
loop_
 _symmetry_equiv_pos_site_id
 _symmetry_equiv_pos_as_xyz
  1  'x, y, z'
loop_
 _atom_site_type_symbol
 _atom_site_label
 _atom_site_symmetry_multiplicity
 _atom_site_fract_x
 _atom_site_fract_y
 _atom_site_fract_z
 _atom_site_occupancy
  In  In0  1  0.00297755  0.17308586  0.12089877  1
  In  In1  1  0.01040740  0.17934959  0.61843612  1
  In  In2  1  -0.00202750  0.50079530  0.13488385  1
  In  In3  1  -0.01500118  0.48386065  0.61917800  1
  In  In4  1  0.00789336  0.81680112  0.12634725  1
  In  In5  1  -0.00538254  0.84098142  0.62177899  1
  In  In6  1  0.32460481  0.17904620  0.13378663  1
  In  In7  1  0.33046404  0.16647840  0.62427310  1
  In  In8  1  0.33160830  0.49788740  0.13607297  1
  In  In9  1  0.33678936  0.50296382  0.61291818  1
  In  In10  1  0.33024308  0.83097151  0.12357225  1
  In  In11  1  0.34630263  0.83247226  0.62418271  1
  In  In12  1  0.67178745  0.16644746  0.12494631  1
  In  In13  1  0.66731259  0.17041334  0.62064661  1
  In  In14  1  0.66756579  0.49945058  0.13698343  1
  In  In15  1  0.66760336  0.50536566  0.62782387  1
  In  In16  1  0.65867353  0.83552122  0.12422167  1
  In  In17  1  0.66591576  0.83625440  0.62424541  1
  In  In18  1  0.17209030  0.01107159  0.37601857  1
  In  In19  1  0.17215679  0.00012633  0.88132021  1
  In  In20  1  0.16841092  0.33078685  0.37136781  1
  In  In21  1  0.15079609  0.33379018  0.87447877  1
  In  In22  1  0.15816428  0.65089952  0.36684301  1
  In  In23  1  0.17614017  0.67019009  0.87887129  1
  In  In24  1  0.50470227  -0.00772067  0.38448066  1
  In  In25  1  0.48995573  -0.00476488  0.86242424  1
  In  In26  1  0.49963217  0.33776105  0.38126380  1
  In  In27  1  0.50558345  0.32368811  0.86853750  1
  In  In28  1  0.50416534  0.66590840  0.37622533  1
  In  In29  1  0.51404657  0.66751870  0.87280891  1
  In  In30  1  0.82536255  0.01060222  0.38431655  1
  In  In31  1  0.84151368  0.01112404  0.87045127  1
  In  In32  1  0.82219066  0.32609710  0.37422450  1
  In  In33  1  0.82507670  0.32649657  0.86422175  1
  In  In34  1  0.83728262  0.66718491  0.37697549  1
  In  In35  1  0.82833552  0.67587164  0.87339713  1
  In  In36  1  -0.00604401  0.17764936  0.37758323  1
  In  In37  1  -0.00563444  0.16991710  0.88203111  1
  In  In38  1  0.01399861  0.51099270  0.37067988  1
  In  In39  1  0.00550214  0.49106289  0.86938770  1
  In  In40  1  -0.00156070  0.80883758  0.38132809  1
  In  In41  1  0.00232748  0.84116112  0.87963424  1
  In  In42  1  0.31772998  0.18180377  0.38422800  1
  In  In43  1  0.33647239  0.15654960  0.87447933  1
  In  In44  1  0.33290828  0.49543223  0.37426949  1
  In  In45  1  0.33295296  0.50099681  0.87276004  1
  In  In46  1  0.35030944  0.83180950  0.37511021  1
  In  In47  1  0.33150506  0.84355162  0.88193793  1
  In  In48  1  0.64752232  0.19291283  0.40385151  1
  In  In49  1  0.67882327  0.17317812  0.86194501  1
  In  In50  1  0.65605737  0.49106548  0.37783266  1
  In  In51  1  0.67477346  0.50249046  0.85498137  1
  In  In52  1  0.67980529  0.81449785  0.39355819  1
  In  In53  1  0.65502349  0.82701760  0.86666487  1
  In  In54  1  0.16907156  0.00199195  0.11968997  1
  In  In55  1  0.16976792  0.02543868  0.63211679  1
  In  In56  1  0.16487410  0.32262451  0.13663017  1
  In  In57  1  0.15377231  0.32407054  0.61829210  1
  In  In58  1  0.16125018  0.67670930  0.13262641  1
  In  In59  1  0.17570883  0.66586619  0.61639659  1
  In  In60  1  0.51386619  -0.00538750  0.12079764  1
  In  In61  1  0.49904925  0.00455805  0.62636446  1
  In  In62  1  0.49742457  0.33173827  0.13781212  1
  In  In63  1  0.52053401  0.35018128  0.60110431  1
  In  In64  1  0.49365971  0.67123894  0.13347934  1
  In  In65  1  0.53277030  0.68784932  0.59180422  1
  In  In66  1  0.81927958  0.00695953  0.12072734  1
  In  In67  1  0.82611341  -0.01114820  0.61938641  1
  In  In68  1  0.83931559  0.32783457  0.13397518  1
  In  In69  1  0.84661105  0.33178914  0.63126236  1
  In  In70  1  0.84114088  0.65797009  0.13707926  1
  In  In71  1  0.80566450  0.65300383  0.61045040  1
  In  In72  1  0.33750121  0.32747775  0.74578757  1
  In  In73  1  0.49760069  0.16003898  -0.00296416  1
  In  In74  1  0.34101956  0.66273332  0.74698774  1
  In  In75  1  -0.00758353  0.66114852  0.74638503  1
  In  In76  1  0.33649899  0.00228422  0.24897859  1
  In  In77  1  0.00077186  0.00205308  0.75269959  1
  In  In78  1  0.66651947  0.00002687  0.25106670  1
  In  In79  1  -0.00590552  0.00031013  0.25723103  1
  In  In80  1  0.83051819  0.49634558  0.49511911  1
  In  In81  1  0.83651831  0.83733348  0.00086669  1
  In  In82  1  0.16660913  0.83714434  0.49832600  1
  In  In83  1  0.16067732  0.50607128  0.00627974  1
  In  In84  1  0.50259625  0.50213075  -0.00318050  1
  In  In85  1  0.83599351  0.49845450  0.00893542  1
  Cu  Cu86  1  0.50007464  0.49675155  0.25830852  1
  Cu  Cu87  1  0.17182489  0.49407560  0.25155752  1
  Cu  Cu88  1  0.00457239  0.33446635  0.49614395  1
  Cu  Cu89  1  0.33115935  0.65990722  0.49143609  1
  Cu  Cu90  1  0.16944357  0.82714702  0.24962275  1
  Cu  Cu91  1  0.81999931  0.82526169  0.74367976  1
  Cu  Cu92  1  0.83658540  0.82456198  0.25789792  1
  Cu  Cu93  1  0.83586708  0.16182482  0.74468983  1
  Cu  Cu94  1  0.00308825  0.00230100  -0.00058190  1
  Cu  Cu95  1  0.66954806  0.66900919  -0.00109296  1
  Cu  Cu96  1  -0.00612858  0.32505101  0.00230878  1
  Cu  Cu97  1  0.83014226  0.50042074  0.26048133  1
  Cu  Cu98  1  0.33359610  0.00377795  0.50209766  1
  Cu  Cu99  1  0.50779126  0.17076155  0.74186916  1
  Cu  Cu100  1  0.17176723  0.83910184  0.75773680  1
  Cu  Cu101  1  0.33608549  0.68081177  0.00591405  1
  Cu  Cu102  1  0.66688125  0.00124025  -0.00748975  1
  Cu  Cu103  1  0.49644222  0.17191120  0.26385660  1
  Cu  Cu104  1  0.50855042  0.82272592  0.25320761  1
  Cu  Cu105  1  0.33553022  -0.00134096  -0.00050983  1
  Cu  Cu106  1  0.32947781  0.33227761  0.49668003  1
  Cu  Cu107  1  0.66885801  0.32797423  -0.00689324  1
  Cu  Cu108  1  0.50491242  0.50241332  0.73607200  1
  Cu  Cu109  1  0.66311563  0.00110922  0.50788954  1
  Cu  Cu110  1  0.15848362  0.48986732  0.74182394  1
  Cu  Cu111  1  -0.00169944  0.00531298  0.50180744  1
  Cu  Cu112  1  0.50289270  0.83430994  0.74142606  1
  Cu  Cu113  1  0.32410824  0.33343776  0.00835904  1
  Cu  Cu114  1  0.82484834  0.17015675  0.25338680  1
  Se  Se115  1  0.08397175  0.08611950  0.05468546  1
  Se  Se116  1  0.08643636  0.08486324  0.55283055  1
  Se  Se117  1  0.07297188  0.40912551  0.06153127  1
  Se  Se118  1  0.08325869  0.41979895  0.55166638  1
  Se  Se119  1  0.09282214  0.75097993  0.05288725  1
  Se  Se120  1  0.07576451  0.74612977  0.55638247  1
  Se  Se121  1  0.40886764  0.07861292  0.06640621  1
  Se  Se122  1  0.41641250  0.08648306  0.55582685  1
  Se  Se123  1  0.41318126  0.41245293  0.06003494  1
  Se  Se124  1  0.41532336  0.41946781  0.54336457  1
  Se  Se125  1  0.42630377  0.75666145  0.05790152  1
  Se  Se126  1  0.40787966  0.74444313  0.54942245  1
  Se  Se127  1  0.74362005  0.08764004  0.04773002  1
  Se  Se128  1  0.75317065  0.08417482  0.55444436  1
  Se  Se129  1  0.73905529  0.40757810  0.06125383  1
  Se  Se130  1  0.75110271  0.40912669  0.56292767  1
  Se  Se131  1  0.75209170  0.74197672  0.06233473  1
  Se  Se132  1  0.74621143  0.75842014  0.55074273  1
  Se  Se133  1  0.24195464  0.24857028  0.05822364  1
  Se  Se134  1  0.24962791  0.24994034  0.55442861  1
  Se  Se135  1  0.26095881  0.59014312  0.06163986  1
  Se  Se136  1  0.24607955  0.57940016  0.54505246  1
  Se  Se137  1  0.25190875  0.91627053  0.05467417  1
  Se  Se138  1  0.25202597  0.92444701  0.56397494  1
  Se  Se139  1  0.58231596  0.25713951  0.05676777  1
  Se  Se140  1  0.57969634  0.23824169  0.54642449  1
  Se  Se141  1  0.59136560  0.58740292  0.06066434  1
  Se  Se142  1  0.58094425  0.56377585  0.54922640  1
  Se  Se143  1  0.58837848  0.91511764  0.04666651  1
  Se  Se144  1  0.57682965  0.91672197  0.55728857  1
  Se  Se145  1  0.90573656  0.24623851  0.05565708  1
  Se  Se146  1  0.91941026  0.25519065  0.55216797  1
  Se  Se147  1  0.93030287  0.59334906  0.05842638  1
  Se  Se148  1  0.92093125  0.58947681  0.55442309  1
  Se  Se149  1  0.92527067  0.92486219  0.06505819  1
  Se  Se150  1  0.91546512  0.91622138  0.54815134  1
  Se  Se151  1  0.08844805  0.24850529  0.44496808  1
  Se  Se152  1  0.08450486  0.24872647  0.94966485  1
  Se  Se153  1  0.07912470  0.59316043  0.44785943  1
  Se  Se154  1  0.07442921  0.58975323  0.93834241  1
  Se  Se155  1  0.07404595  0.92508651  0.43637467  1
  Se  Se156  1  0.08641594  0.91713898  0.94879991  1
  Se  Se157  1  0.41746037  0.24819097  0.44809649  1
  Se  Se158  1  0.40809638  0.26163910  0.94333688  1
  Se  Se159  1  0.41879259  0.57848869  0.44136343  1
  Se  Se160  1  0.40739293  0.59682613  0.94127816  1
  Se  Se161  1  0.41469495  0.91518581  0.45223703  1
  Se  Se162  1  0.42444418  0.92195006  0.94589131  1
  Se  Se163  1  0.76892367  0.23912374  0.45382068  1
  Se  Se164  1  0.75310004  0.24616283  0.94132412  1
  Se  Se165  1  0.73804606  0.58870097  0.44134098  1
  Se  Se166  1  0.74407660  0.58245224  0.94113699  1
  Se  Se167  1  0.74648567  0.92196948  0.45057067  1
  Se  Se168  1  0.74819801  0.91958917  0.93377332  1
  Se  Se169  1  0.24662357  0.08604176  0.45189045  1
  Se  Se170  1  0.25386080  0.08657790  0.94968181  1
  Se  Se171  1  0.24583753  0.41607674  0.44285224  1
  Se  Se172  1  0.25214926  0.41546773  0.94361824  1
  Se  Se173  1  0.25182424  0.74711544  0.43481463  1
  Se  Se174  1  0.24990364  0.75605096  0.94830931  1
  Se  Se175  1  0.57769968  0.08133446  0.45391371  1
  Se  Se176  1  0.58816389  0.08101176  0.93058372  1
  Se  Se177  1  0.59184429  0.40442924  0.45266109  1
  Se  Se178  1  0.59261914  0.41297690  0.93505089  1
  Se  Se179  1  0.56632029  0.75948011  0.44906625  1
  Se  Se180  1  0.58441488  0.75135010  0.94716124  1
  Se  Se181  1  0.91739650  0.08997286  0.44718117  1
  Se  Se182  1  0.91364345  0.08243819  0.94980268  1
  Se  Se183  1  0.92522470  0.41297250  0.43358974  1
  Se  Se184  1  0.91851230  0.40941122  0.94155539  1
  Se  Se185  1  0.90132696  0.75600188  0.45181999  1
  Se  Se186  1  0.92501697  0.74200795  0.94393884  1
  Se  Se187  1  0.25031371  0.24757873  0.30199232  1
  Se  Se188  1  0.24754772  0.24912035  0.81282654  1
  Se  Se189  1  0.25492927  0.58090905  0.30199892  1
  Se  Se190  1  0.23759805  0.57303919  0.80183452  1
  Se  Se191  1  0.24566476  0.90947220  0.31006421  1
  Se  Se192  1  0.25473087  0.92294337  0.80804724  1
  Se  Se193  1  0.58600625  0.25126130  0.31350053  1
  Se  Se194  1  0.58993376  0.25425190  0.79607434  1
  Se  Se195  1  0.58545147  0.58187906  0.30674910  1
  Se  Se196  1  0.58127375  0.58641051  0.79629453  1
  Se  Se197  1  0.58558197  0.90546487  0.31310346  1
  Se  Se198  1  0.58315070  0.91821029  0.79805145  1
  Se  Se199  1  0.91215993  0.25218993  0.30358277  1
  Se  Se200  1  0.91713203  0.24167248  0.80406125  1
  Se  Se201  1  0.91781609  0.58631212  0.30615124  1
  Se  Se202  1  0.90585285  0.57456037  0.81100221  1
  Se  Se203  1  0.90728038  0.91038994  0.31889721  1
  Se  Se204  1  0.90647751  0.90201495  0.80376969  1
  Se  Se205  1  0.08733033  0.09448902  0.30751159  1
  Se  Se206  1  0.08889626  0.08978245  0.81321870  1
  Se  Se207  1  0.08316368  0.41559303  0.30384069  1
  Se  Se208  1  0.07729768  0.40756209  0.79597136  1
  Se  Se209  1  0.08204893  0.74758699  0.30265534  1
  Se  Se210  1  0.08665304  0.75362689  0.80816976  1
  Se  Se211  1  0.41962602  0.08472223  0.31899718  1
  Se  Se212  1  0.42037742  0.09304963  0.79721879  1
  Se  Se213  1  0.41558920  0.40996421  0.30637374  1
  Se  Se214  1  0.42767305  0.42843282  0.80422527  1
  Se  Se215  1  0.41803428  0.74404412  0.30285540  1
  Se  Se216  1  0.42318763  0.75816119  0.80853095  1
  Se  Se217  1  0.74213971  0.09550236  0.31465190  1
  Se  Se218  1  0.75290373  0.07701063  0.79739852  1
  Se  Se219  1  0.74427295  0.41476449  0.30734699  1
  Se  Se220  1  0.74779620  0.40816308  0.79409404  1
  Se  Se221  1  0.74663959  0.74649317  0.30885740  1
  Se  Se222  1  0.74089933  0.74264658  0.80079643  1
  Se  Se223  1  0.23588297  0.08956168  0.19803657  1
  Se  Se224  1  0.25918992  0.08965168  0.70287403  1
  Se  Se225  1  0.25292690  0.40728306  0.19971301  1
  Se  Se226  1  0.25048597  0.42010630  0.68515253  1
  Se  Se227  1  0.25868268  0.74792098  0.19806662  1
  Se  Se228  1  0.24451948  0.75665778  0.69333283  1
  Se  Se229  1  0.57072104  0.09422067  0.19560447  1
  Se  Se230  1  0.59000964  0.08343759  0.69214473  1
  Se  Se231  1  0.58337737  0.41434679  0.20199039  1
  Se  Se232  1  0.58510436  0.41048905  0.68997426  1
  Se  Se233  1  0.59279501  0.74535357  0.19593251  1
  Se  Se234  1  0.57952557  0.74580019  0.68754219  1
  Se  Se235  1  0.90267811  0.08667215  0.19346213  1
  Se  Se236  1  0.91683968  0.08381182  0.68341298  1
  Se  Se237  1  0.91149416  0.42028442  0.20082416  1
  Se  Se238  1  0.91795760  0.42025344  0.70245721  1
  Se  Se239  1  0.92216937  0.74880298  0.20056300  1
  Se  Se240  1  0.90663050  0.75173855  0.68448688  1
  Se  Se241  1  0.06074372  0.25892716  0.19801886  1
  Se  Se242  1  0.09103640  0.24306183  0.69682410  1
  Se  Se243  1  0.08976376  0.58045519  0.19774638  1
  Se  Se244  1  0.08703985  0.57905499  0.68353055  1
  Se  Se245  1  0.08887030  0.91372265  0.19414853  1
  Se  Se246  1  0.09249700  0.91176348  0.69158827  1
  Se  Se247  1  0.41357581  0.24869376  0.20439006  1
  Se  Se248  1  0.43280203  0.25450605  0.68029340  1
  Se  Se249  1  0.41971240  0.57946258  0.19998792  1
  Se  Se250  1  0.42777007  0.58593948  0.67829429  1
  Se  Se251  1  0.43248403  0.91051744  0.19400700  1
  Se  Se252  1  0.41480138  0.91982012  0.69624487  1
  Se  Se253  1  0.74178063  0.25215297  0.19710907  1
  Se  Se254  1  0.75430492  0.24684225  0.69190658  1
  Se  Se255  1  0.74953183  0.58451299  0.20326563  1
  Se  Se256  1  0.75354478  0.58287039  0.69704842  1
  Se  Se257  1  0.76103662  0.90607757  0.19415460  1
  Se  Se258  1  0.74473024  0.92017930  0.69631069  1
