# generated using pymatgen
data_In86Cu29Se144
_symmetry_space_group_name_H-M   'P 1'
_cell_length_a   17.58871401
_cell_length_b   17.58496270
_cell_length_c   23.44519630
_cell_angle_alpha   89.99865201
_cell_angle_beta   89.96880756
_cell_angle_gamma   90.00357498
_symmetry_Int_Tables_number   1
_chemical_formula_structural   In86Cu29Se144
_chemical_formula_sum   'In86 Cu29 Se144'
_cell_volume   7251.52497507
_cell_formula_units_Z   1
loop_
 _symmetry_equiv_pos_site_id
 _symmetry_equiv_pos_as_xyz
  1  'x, y, z'
loop_
 _atom_site_type_symbol
 _atom_site_label
 _atom_site_symmetry_multiplicity
 _atom_site_fract_x
 _atom_site_fract_y
 _atom_site_fract_z
 _atom_site_occupancy
  In  In0  1  0.00327496  0.14707954  0.12456662  1
  In  In1  1  -0.01256944  0.16810044  0.62524374  1
  In  In2  1  0.01413069  0.50507805  0.12342071  1
  In  In3  1  0.00130526  0.51457504  0.62881063  1
  In  In4  1  -0.00294012  0.83935238  0.12767784  1
  In  In5  1  0.00916453  0.82440465  0.62910110  1
  In  In6  1  0.32818630  0.15877262  0.12052555  1
  In  In7  1  0.35327995  0.13721945  0.64407844  1
  In  In8  1  0.33542357  0.49944537  0.11406972  1
  In  In9  1  0.33308439  0.49270656  0.63645125  1
  In  In10  1  0.34675020  0.83651773  0.12278305  1
  In  In11  1  0.34508719  0.85316599  0.61251703  1
  In  In12  1  0.65788342  0.16707075  0.12457612  1
  In  In13  1  0.66459608  0.16416151  0.62585265  1
  In  In14  1  0.66426999  0.51594682  0.11416628  1
  In  In15  1  0.67133045  0.48872606  0.63878673  1
  In  In16  1  0.67497243  0.83799389  0.11470351  1
  In  In17  1  0.65497810  0.84823467  0.63521523  1
  In  In18  1  0.15891188  -0.00291982  0.37013759  1
  In  In19  1  0.17423469  0.01538160  0.85974341  1
  In  In20  1  0.16110205  0.33739702  0.37653798  1
  In  In21  1  0.18161037  0.31844302  0.88208141  1
  In  In22  1  0.17212641  0.68315304  0.36987231  1
  In  In23  1  0.14864365  0.66642523  0.88054834  1
  In  In24  1  0.50045628  -0.00274282  0.37394462  1
  In  In25  1  0.50300803  0.00002205  0.87835074  1
  In  In26  1  0.48578142  0.32943645  0.37620125  1
  In  In27  1  0.49381484  0.33004683  0.86689613  1
  In  In28  1  0.51044273  0.67691984  0.37370085  1
  In  In29  1  0.51806297  0.65364951  0.88793243  1
  In  In30  1  0.83751981  0.01215518  0.36739738  1
  In  In31  1  0.82211450  -0.01576063  0.86842567  1
  In  In32  1  0.83195091  0.33473223  0.38378712  1
  In  In33  1  0.82226997  0.34367888  0.87136155  1
  In  In34  1  0.83192949  0.65515539  0.37704743  1
  In  In35  1  0.83954175  0.67645402  0.87118004  1
  In  In36  1  -0.00217557  0.15491107  0.37573808  1
  In  In37  1  0.01481980  0.16312895  0.87428966  1
  In  In38  1  -0.00839614  0.49498487  0.37216740  1
  In  In39  1  0.00047345  0.51735096  0.87834273  1
  In  In40  1  0.00517187  0.84334829  0.36983993  1
  In  In41  1  -0.00962570  0.82455396  0.87052974  1
  In  In42  1  0.35060259  0.16058576  0.38317854  1
  In  In43  1  0.33349810  0.16696614  0.87016655  1
  In  In44  1  0.32690892  0.50066530  0.37567088  1
  In  In45  1  0.34514513  0.48496710  0.87740234  1
  In  In46  1  0.31868114  0.85056189  0.39011378  1
  In  In47  1  0.33945697  0.85363354  0.87164837  1
  In  In48  1  0.67644076  0.15388739  0.38655991  1
  In  In49  1  0.65430647  0.15234532  0.86755860  1
  In  In50  1  0.67135472  0.51436266  0.37746065  1
  In  In51  1  0.64953546  0.49344577  0.85618260  1
  In  In52  1  0.65091960  0.84255284  0.37977431  1
  In  In53  1  0.66514705  0.83018310  0.87683565  1
  In  In54  1  0.16129785  0.00812550  0.12912383  1
  In  In55  1  0.17862630  -0.01112201  0.63701340  1
  In  In56  1  0.17589375  0.33829209  0.11644871  1
  In  In57  1  0.17005617  0.33174063  0.63524942  1
  In  In58  1  0.16102034  0.65555040  0.12195406  1
  In  In59  1  0.15852193  0.66889868  0.62976918  1
  In  In60  1  0.50006413  0.00009245  0.12417543  1
  In  In61  1  0.49905760  0.00295515  0.62481224  1
  In  In62  1  0.49771846  0.32861937  0.11230923  1
  In  In63  1  0.51555873  0.31841310  0.64144382  1
  In  In64  1  0.51764700  0.67687311  0.09832186  1
  In  In65  1  0.49707321  0.68154150  0.63154358  1
  In  In66  1  0.84719335  -0.00807660  0.13192757  1
  In  In67  1  0.82177655  0.00705251  0.62969890  1
  In  In68  1  0.82507353  0.32771653  0.12539595  1
  In  In69  1  0.82070208  0.32457101  0.62030648  1
  In  In70  1  0.83503816  0.69142560  0.11507703  1
  In  In71  1  0.83978978  0.65907931  0.62885310  1
  In  In72  1  0.67270123  0.67582774  0.24337445  1
  In  In73  1  0.16669255  0.83837061  -0.00468129  1
  In  In74  1  0.33313814  0.67199335  0.75591634  1
  In  In75  1  0.83247782  0.83518551  0.50514645  1
  In  In76  1  0.16928639  0.16145948  0.50374570  1
  In  In77  1  0.33551916  0.67240394  0.24339904  1
  In  In78  1  0.16427522  0.50317901  0.50282909  1
  In  In79  1  0.00268529  0.32857443  0.25490422  1
  In  In80  1  0.50398743  0.50101332  0.50466061  1
  In  In81  1  0.83636959  0.16272292  0.00153068  1
  In  In82  1  0.32978187  0.32937203  0.24059904  1
  In  In83  1  0.66635301  0.32622723  0.24602738  1
  In  In84  1  -0.00274909  0.33451082  0.75431540  1
  In  In85  1  0.83022437  0.50521511  -0.00660854  1
  Cu  Cu86  1  0.83178087  0.50412753  0.75189083  1
  Cu  Cu87  1  0.33100561  0.66775685  -0.00345134  1
  Cu  Cu88  1  -0.01043829  0.33463041  0.50392111  1
  Cu  Cu89  1  0.33634203  0.32990924  -0.00628698  1
  Cu  Cu90  1  0.17222741  0.16691820  0.25005600  1
  Cu  Cu91  1  0.16749584  0.49791442  0.75607269  1
  Cu  Cu92  1  0.83452044  0.83548999  0.25054184  1
  Cu  Cu93  1  0.82773965  0.16668693  0.74754399  1
  Cu  Cu94  1  0.83588732  0.83124427  0.74657181  1
  Cu  Cu95  1  0.16304388  0.83898766  0.24975977  1
  Cu  Cu96  1  0.16712101  0.83381475  0.75294006  1
  Cu  Cu97  1  0.33715971  0.00839283  -0.00300056  1
  Cu  Cu98  1  0.67054571  0.66720105  0.50436561  1
  Cu  Cu99  1  0.49633105  0.50313871  0.23715638  1
  Cu  Cu100  1  0.33549925  0.67287881  0.50223739  1
  Cu  Cu101  1  0.00002420  -0.00150736  0.49750550  1
  Cu  Cu102  1  0.50521204  0.15503869  0.25279637  1
  Cu  Cu103  1  0.00056376  0.66825748  0.50309334  1
  Cu  Cu104  1  0.65833741  0.33095660  -0.01006646  1
  Cu  Cu105  1  0.66273193  0.33507232  0.50786579  1
  Cu  Cu106  1  0.50166253  0.16135532  0.75202649  1
  Cu  Cu107  1  0.50463727  0.83999438  0.75299798  1
  Cu  Cu108  1  0.66755456  -0.00406586  -0.00407256  1
  Cu  Cu109  1  0.49748761  0.84205995  0.24965202  1
  Cu  Cu110  1  0.83943264  0.50157841  0.25049449  1
  Cu  Cu111  1  0.00008102  -0.00660792  -0.00102087  1
  Cu  Cu112  1  0.66174571  0.00365158  0.50426722  1
  Cu  Cu113  1  0.34047116  0.32243520  0.50958424  1
  Cu  Cu114  1  0.00997723  0.33131697  -0.00111364  1
  Se  Se115  1  0.08545631  0.07866612  0.04878445  1
  Se  Se116  1  0.07692576  0.07568318  0.56342970  1
  Se  Se117  1  0.08710536  0.41960829  0.05188680  1
  Se  Se118  1  0.07603954  0.40894958  0.56333710  1
  Se  Se119  1  0.07931570  0.75041383  0.05742957  1
  Se  Se120  1  0.08761763  0.74903759  0.55300826  1
  Se  Se121  1  0.42158365  0.08714040  0.05373385  1
  Se  Se122  1  0.40857373  0.07564980  0.55507090  1
  Se  Se123  1  0.41842972  0.41617580  0.04705001  1
  Se  Se124  1  0.41775253  0.40965525  0.56571766  1
  Se  Se125  1  0.41380510  0.75519177  0.04602881  1
  Se  Se126  1  0.42234145  0.75316547  0.55346308  1
  Se  Se127  1  0.74680725  0.07349732  0.06119002  1
  Se  Se128  1  0.74964617  0.08643494  0.55353655  1
  Se  Se129  1  0.74120239  0.40666655  0.05272716  1
  Se  Se130  1  0.74640864  0.42203617  0.55681455  1
  Se  Se131  1  0.71646901  0.71939987  0.05602292  1
  Se  Se132  1  0.74336772  0.74966919  0.56797899  1
  Se  Se133  1  0.25427751  0.24882116  0.05176288  1
  Se  Se134  1  0.25597531  0.24793604  0.56802198  1
  Se  Se135  1  0.24908200  0.58516184  0.05072050  1
  Se  Se136  1  0.26080813  0.58820450  0.56319244  1
  Se  Se137  1  0.25609795  0.92651907  0.05804877  1
  Se  Se138  1  0.24012610  0.91727644  0.55319595  1
  Se  Se139  1  0.58435352  0.24469676  0.04824416  1
  Se  Se140  1  0.58024876  0.24886480  0.55726865  1
  Se  Se141  1  0.57332174  0.56699603  0.03906092  1
  Se  Se142  1  0.58912617  0.59007658  0.56680233  1
  Se  Se143  1  0.58152397  0.91755929  0.05309706  1
  Se  Se144  1  0.58092623  0.91629898  0.55511414  1
  Se  Se145  1  0.92786137  0.25596714  0.06110464  1
  Se  Se146  1  0.90818991  0.24607691  0.55231258  1
  Se  Se147  1  0.91836125  0.58818404  0.05894242  1
  Se  Se148  1  0.91790915  0.58217645  0.55271362  1
  Se  Se149  1  0.91477558  0.91331351  0.05248996  1
  Se  Se150  1  0.92354251  0.92307690  0.56453120  1
  Se  Se151  1  0.07401784  0.25605251  0.44511533  1
  Se  Se152  1  0.08905486  0.24202538  0.94901611  1
  Se  Se153  1  0.07920309  0.59027612  0.43778590  1
  Se  Se154  1  0.08237053  0.58153368  0.95488004  1
  Se  Se155  1  0.08447778  0.91620863  0.44570971  1
  Se  Se156  1  0.08062045  0.92441119  0.93074165  1
  Se  Se157  1  0.42584040  0.24534354  0.45453373  1
  Se  Se158  1  0.41905627  0.24609194  0.94062179  1
  Se  Se159  1  0.41274302  0.59110764  0.44035885  1
  Se  Se160  1  0.41321127  0.58176155  0.94477763  1
  Se  Se161  1  0.43712524  0.89826870  0.44154127  1
  Se  Se162  1  0.41944983  0.91926973  0.95002164  1
  Se  Se163  1  0.74558548  0.25418539  0.44971639  1
  Se  Se164  1  0.74525280  0.24887980  0.93797508  1
  Se  Se165  1  0.75288863  0.58199381  0.45353847  1
  Se  Se166  1  0.74256756  0.58044111  0.92478503  1
  Se  Se167  1  0.74622058  0.92555134  0.44324764  1
  Se  Se168  1  0.75277715  0.90953312  0.94820581  1
  Se  Se169  1  0.25506213  0.07337255  0.44077338  1
  Se  Se170  1  0.24982173  0.08303853  0.94074190  1
  Se  Se171  1  0.25975602  0.40410031  0.45010489  1
  Se  Se172  1  0.25003485  0.41719760  0.94666897  1
  Se  Se173  1  0.24545433  0.74968495  0.45080236  1
  Se  Se174  1  0.25708969  0.74961424  0.93366863  1
  Se  Se175  1  0.57651695  0.08274227  0.44762463  1
  Se  Se176  1  0.58376775  0.08435870  0.94963610  1
  Se  Se177  1  0.59004630  0.41138233  0.43769887  1
  Se  Se178  1  0.58012656  0.41458401  0.93470765  1
  Se  Se179  1  0.58623556  0.74866385  0.45111617  1
  Se  Se180  1  0.57092646  0.76424753  0.94725208  1
  Se  Se181  1  0.91349948  0.08183577  0.44816894  1
  Se  Se182  1  0.91937429  0.07338989  0.93708322  1
  Se  Se183  1  0.91401943  0.42276799  0.44877794  1
  Se  Se184  1  0.92429683  0.40702627  0.94051146  1
  Se  Se185  1  0.92040521  0.74747335  0.44092575  1
  Se  Se186  1  0.92237313  0.74396134  0.94704530  1
  Se  Se187  1  0.24823617  0.24560541  0.31416454  1
  Se  Se188  1  0.24407886  0.24315963  0.80175366  1
  Se  Se189  1  0.24576033  0.58069143  0.30420994  1
  Se  Se190  1  0.24498724  0.58076783  0.81690208  1
  Se  Se191  1  0.25015456  0.91597858  0.30515142  1
  Se  Se192  1  0.25437158  0.92095288  0.79751985  1
  Se  Se193  1  0.57613833  0.24491472  0.31180964  1
  Se  Se194  1  0.58548747  0.24858085  0.80149258  1
  Se  Se195  1  0.57782393  0.57903448  0.30038213  1
  Se  Se196  1  0.58116331  0.59859129  0.79845856  1
  Se  Se197  1  0.58692998  0.92114487  0.30040689  1
  Se  Se198  1  0.58870838  0.92133415  0.80809993  1
  Se  Se199  1  0.90618709  0.24383043  0.31131020  1
  Se  Se200  1  0.90611575  0.24200737  0.81345498  1
  Se  Se201  1  0.91900569  0.58698709  0.30351473  1
  Se  Se202  1  0.91843712  0.58580852  0.80267895  1
  Se  Se203  1  0.91703826  0.92124530  0.30322427  1
  Se  Se204  1  0.91788709  0.91520705  0.80112115  1
  Se  Se205  1  0.08335898  0.08699647  0.30179123  1
  Se  Se206  1  0.06933083  0.07654618  0.79712966  1
  Se  Se207  1  0.09534906  0.42906818  0.30375708  1
  Se  Se208  1  0.08665041  0.41931227  0.81788014  1
  Se  Se209  1  0.08092345  0.75281935  0.30124760  1
  Se  Se210  1  0.08316373  0.74798751  0.80269938  1
  Se  Se211  1  0.41406123  0.07963241  0.30478745  1
  Se  Se212  1  0.41921935  0.07821471  0.80667512  1
  Se  Se213  1  0.42013361  0.42703308  0.30204854  1
  Se  Se214  1  0.41344502  0.41398109  0.79741801  1
  Se  Se215  1  0.41914842  0.75955395  0.30974426  1
  Se  Se216  1  0.42709110  0.75779068  0.81445520  1
  Se  Se217  1  0.73764606  0.07986826  0.30461347  1
  Se  Se218  1  0.74923613  0.07962817  0.80292056  1
  Se  Se219  1  0.75296840  0.42411414  0.30712563  1
  Se  Se220  1  0.74579620  0.41381903  0.79432562  1
  Se  Se221  1  0.75444638  0.76030617  0.31538384  1
  Se  Se222  1  0.75063517  0.75359492  0.80395954  1
  Se  Se223  1  0.25409669  0.08196029  0.19726810  1
  Se  Se224  1  0.23838676  0.09117325  0.70193566  1
  Se  Se225  1  0.24412289  0.43160204  0.19135049  1
  Se  Se226  1  0.25007107  0.41285909  0.70554365  1
  Se  Se227  1  0.24096096  0.76135570  0.18491131  1
  Se  Se228  1  0.25097313  0.75941171  0.68837268  1
  Se  Se229  1  0.58753803  0.07770159  0.19495540  1
  Se  Se230  1  0.58507100  0.07956383  0.69583708  1
  Se  Se231  1  0.58085948  0.42116663  0.18373144  1
  Se  Se232  1  0.57068231  0.42601984  0.70257345  1
  Se  Se233  1  0.57286813  0.75789013  0.18748260  1
  Se  Se234  1  0.58595562  0.75186753  0.70238331  1
  Se  Se235  1  0.91684595  0.08666710  0.19860439  1
  Se  Se236  1  0.91270968  0.08377340  0.69685985  1
  Se  Se237  1  0.91252045  0.41645780  0.18931111  1
  Se  Se238  1  0.91036741  0.42134120  0.68905011  1
  Se  Se239  1  0.91511746  0.75153027  0.19572781  1
  Se  Se240  1  0.92023021  0.74573003  0.69586189  1
  Se  Se241  1  0.09436718  0.24725715  0.18808753  1
  Se  Se242  1  0.08331416  0.24024289  0.69594038  1
  Se  Se243  1  0.07778810  0.59011542  0.19804647  1
  Se  Se244  1  0.08661247  0.58332567  0.70280325  1
  Se  Se245  1  0.07956559  0.92245331  0.19589321  1
  Se  Se246  1  0.08050622  0.91426390  0.69915019  1
  Se  Se247  1  0.42933334  0.23991447  0.19111697  1
  Se  Se248  1  0.41461762  0.24717288  0.70230009  1
  Se  Se249  1  0.42688845  0.59048735  0.17774792  1
  Se  Se250  1  0.42325496  0.58083258  0.69661768  1
  Se  Se251  1  0.41266065  0.92350692  0.19647584  1
  Se  Se252  1  0.41854222  0.91665636  0.69586950  1
  Se  Se253  1  0.76130109  0.23145814  0.19576251  1
  Se  Se254  1  0.74376714  0.25100375  0.69658692  1
  Se  Se255  1  0.76114911  0.57937118  0.18690278  1
  Se  Se256  1  0.74885335  0.58765988  0.69836625  1
  Se  Se257  1  0.75034097  0.91156095  0.19221067  1
  Se  Se258  1  0.74966098  0.91953507  0.70096572  1
