# generated using pymatgen
data_In86Cu29Se144
_symmetry_space_group_name_H-M   'P 1'
_cell_length_a   17.58877591
_cell_length_b   17.60110957
_cell_length_c   23.45726918
_cell_angle_alpha   89.98989982
_cell_angle_beta   89.99880074
_cell_angle_gamma   89.99085138
_symmetry_Int_Tables_number   1
_chemical_formula_structural   In86Cu29Se144
_chemical_formula_sum   'In86 Cu29 Se144'
_cell_volume   7261.94744579
_cell_formula_units_Z   1
loop_
 _symmetry_equiv_pos_site_id
 _symmetry_equiv_pos_as_xyz
  1  'x, y, z'
loop_
 _atom_site_type_symbol
 _atom_site_label
 _atom_site_symmetry_multiplicity
 _atom_site_fract_x
 _atom_site_fract_y
 _atom_site_fract_z
 _atom_site_occupancy
  In  In0  1  0.00905954  0.14751658  0.13258256  1
  In  In1  1  0.00648438  0.16390218  0.62317873  1
  In  In2  1  -0.00272107  0.49497751  0.11549007  1
  In  In3  1  0.00108498  0.49647862  0.62137799  1
  In  In4  1  0.01203854  0.83625399  0.13462659  1
  In  In5  1  0.00386010  0.84279890  0.62059576  1
  In  In6  1  0.33524017  0.17021734  0.12858521  1
  In  In7  1  0.34776400  0.17030038  0.59469642  1
  In  In8  1  0.33469275  0.49429559  0.12433091  1
  In  In9  1  0.34237441  0.51343184  0.61735463  1
  In  In10  1  0.36847320  0.79097053  0.17515837  1
  In  In11  1  0.33832332  0.82644023  0.62174074  1
  In  In12  1  0.65794721  0.17446435  0.13225179  1
  In  In13  1  0.65927632  0.17005219  0.62600442  1
  In  In14  1  0.66035423  0.50220223  0.12298181  1
  In  In15  1  0.66619633  0.49477545  0.62750072  1
  In  In16  1  0.65061596  0.83544056  0.13574681  1
  In  In17  1  0.65528573  0.83473037  0.62595367  1
  In  In18  1  0.20440463  0.01603547  0.34312287  1
  In  In19  1  0.18108290  0.00617979  0.87936634  1
  In  In20  1  0.19463347  0.31717347  0.39519270  1
  In  In21  1  0.17083757  0.33172767  0.88382479  1
  In  In22  1  0.17594696  0.65572308  0.37532336  1
  In  In23  1  0.17263331  0.65638261  0.87873366  1
  In  In24  1  0.50110323  0.00154519  0.38049165  1
  In  In25  1  0.50604632  -0.00913160  0.88667899  1
  In  In26  1  0.48473898  0.31915329  0.36720926  1
  In  In27  1  0.50827163  0.32435251  0.87969486  1
  In  In28  1  0.51015916  0.69021476  0.35736577  1
  In  In29  1  0.50327493  0.67071725  0.87905254  1
  In  In30  1  0.82026429  -0.00773329  0.36601365  1
  In  In31  1  0.82163390  0.01577851  0.87866377  1
  In  In32  1  0.82866721  0.34597827  0.37817576  1
  In  In33  1  0.82644573  0.34443603  0.88017900  1
  In  In34  1  0.81088500  0.66244538  0.38100823  1
  In  In35  1  0.81273358  0.66954561  0.88060320  1
  In  In36  1  0.01567132  0.16464435  0.37450846  1
  In  In37  1  0.00504796  0.17244139  0.87765668  1
  In  In38  1  0.00482123  0.50268245  0.38066591  1
  In  In39  1  0.00147334  0.49472059  0.88509472  1
  In  In40  1  -0.00131292  0.84217773  0.37047927  1
  In  In41  1  0.00210749  0.83555791  0.87298909  1
  In  In42  1  0.33510285  0.16672242  0.38184774  1
  In  In43  1  0.33333963  0.16485630  0.88691718  1
  In  In44  1  0.33119715  0.49660259  0.36426676  1
  In  In45  1  0.32954156  0.50998678  0.88262055  1
  In  In46  1  0.37620714  0.87298251  0.32362625  1
  In  In47  1  0.35331069  0.83250940  0.88142691  1
  In  In48  1  0.64191486  0.14991242  0.37032694  1
  In  In49  1  0.65198630  0.15997194  0.86838674  1
  In  In50  1  0.67066106  0.50781523  0.37034360  1
  In  In51  1  0.66424750  0.50155399  0.87948194  1
  In  In52  1  0.65027390  0.83135078  0.37042808  1
  In  In53  1  0.64599501  0.81879461  0.86354566  1
  In  In54  1  0.17183932  -0.00213817  0.14081500  1
  In  In55  1  0.16969847  0.00763396  0.61322203  1
  In  In56  1  0.17815472  0.34226652  0.11954569  1
  In  In57  1  0.17611553  0.33066412  0.61244715  1
  In  In58  1  0.18689241  0.66509239  0.13548243  1
  In  In59  1  0.18838919  0.67260278  0.62043945  1
  In  In60  1  0.49460381  0.00180855  0.13219777  1
  In  In61  1  0.51580030  0.00648825  0.60034880  1
  In  In62  1  0.50023566  0.33571068  0.12505844  1
  In  In63  1  0.50462364  0.34313342  0.62180455  1
  In  In64  1  0.50493219  0.65854390  0.12604476  1
  In  In65  1  0.49813203  0.66512997  0.62856501  1
  In  In66  1  0.83268124  -0.00715390  0.13482866  1
  In  In67  1  0.82168872  -0.01351044  0.61883192  1
  In  In68  1  0.82224777  0.33716108  0.12667671  1
  In  In69  1  0.81619821  0.33302141  0.62613619  1
  In  In70  1  0.82288866  0.65070368  0.11683035  1
  In  In71  1  0.83077318  0.65293712  0.62472026  1
  In  In72  1  0.49416237  0.49470709  0.49269039  1
  In  In73  1  0.00241410  0.33316266  0.25965195  1
  In  In74  1  0.18000976  0.83800566  0.48729912  1
  In  In75  1  -0.00944551  0.66435952  0.74608679  1
  In  In76  1  0.17945099  0.83699575  0.02115395  1
  In  In77  1  0.83344720  0.17347456  0.50198301  1
  In  In78  1  -0.00673706  0.66387033  0.24655744  1
  In  In79  1  0.82273626  0.83427991  0.00838555  1
  In  In80  1  0.83620492  0.17131308  0.00635818  1
  In  In81  1  0.33703022  -0.00038174  0.74410954  1
  In  In82  1  -0.00415858  0.33557145  0.75993054  1
  In  In83  1  0.82100461  0.82944501  0.48666028  1
  In  In84  1  0.34143998  0.33714205  0.74558358  1
  In  In85  1  -0.00829120  -0.00012485  0.74149590  1
  Cu  Cu86  1  0.33632634  0.00484947  0.01131537  1
  Cu  Cu87  1  0.17140653  0.49372098  0.25048769  1
  Cu  Cu88  1  0.33869872  0.66994358  0.01132568  1
  Cu  Cu89  1  0.82112225  0.50178021  0.75473780  1
  Cu  Cu90  1  0.00408744  0.00712873  0.49307945  1
  Cu  Cu91  1  0.49865533  0.16765752  0.24964131  1
  Cu  Cu92  1  -0.00058153  0.66573048  -0.00060741  1
  Cu  Cu93  1  0.17700714  0.50975359  0.75024883  1
  Cu  Cu94  1  0.82793169  0.82824882  0.25249924  1
  Cu  Cu95  1  0.81943232  0.83671398  0.74845613  1
  Cu  Cu96  1  0.82626659  0.16656229  0.25146497  1
  Cu  Cu97  1  0.82480008  0.50165880  0.24956926  1
  Cu  Cu98  1  0.33775916  0.33309125  0.00244946  1
  Cu  Cu99  1  0.66410905  0.33400656  0.49907555  1
  Cu  Cu100  1  0.00993490  0.32445382  0.00315397  1
  Cu  Cu101  1  0.17793051  0.82431808  0.74628054  1
  Cu  Cu102  1  0.00248519  0.66584220  0.50029624  1
  Cu  Cu103  1  0.17126008  0.16581559  0.74797351  1
  Cu  Cu104  1  0.49784832  0.15639999  0.74458143  1
  Cu  Cu105  1  0.66337462  0.33786034  0.00420665  1
  Cu  Cu106  1  0.50274525  0.50460418  0.75396448  1
  Cu  Cu107  1  0.01585718  -0.00091308  0.00716727  1
  Cu  Cu108  1  0.81505258  0.16565605  0.74817047  1
  Cu  Cu109  1  0.33920181  0.66494556  0.49337649  1
  Cu  Cu110  1  0.65975159  0.00002717  0.00523751  1
  Cu  Cu111  1  0.00305957  0.34668412  0.49707826  1
  Cu  Cu112  1  0.17335237  0.17461768  0.25356463  1
  Cu  Cu113  1  0.50055012  0.83290894  0.75028139  1
  Cu  Cu114  1  0.50269965  0.49804834  0.24755804  1
  Se  Se115  1  0.09783825  0.07866743  0.06166453  1
  Se  Se116  1  0.08400813  0.09033192  0.54778798  1
  Se  Se117  1  0.08820142  0.41725780  0.05119260  1
  Se  Se118  1  0.09050288  0.42218601  0.55363247  1
  Se  Se119  1  0.07912863  0.73838657  0.06415263  1
  Se  Se120  1  0.08439719  0.74978199  0.55650697  1
  Se  Se121  1  0.42156776  0.08994559  0.06012609  1
  Se  Se122  1  0.42823259  0.08190344  0.53222791  1
  Se  Se123  1  0.42043857  0.41829167  0.05326924  1
  Se  Se124  1  0.40148018  0.40504554  0.55358149  1
  Se  Se125  1  0.41012542  0.75322697  0.07250971  1
  Se  Se126  1  0.41914477  0.74280688  0.55380787  1
  Se  Se127  1  0.74704964  0.07692807  0.06299527  1
  Se  Se128  1  0.74153790  0.07846730  0.55433377  1
  Se  Se129  1  0.75036381  0.42013926  0.05426487  1
  Se  Se130  1  0.74745202  0.41741498  0.55239872  1
  Se  Se131  1  0.73029816  0.74355945  0.06096010  1
  Se  Se132  1  0.74807888  0.74525636  0.56042072  1
  Se  Se133  1  0.25309049  0.24918805  0.05448137  1
  Se  Se134  1  0.23534771  0.23364546  0.54460414  1
  Se  Se135  1  0.25054219  0.58389119  0.05734789  1
  Se  Se136  1  0.25291786  0.58492833  0.54630201  1
  Se  Se137  1  0.27171746  0.92198199  0.07777084  1
  Se  Se138  1  0.26584856  0.92535787  0.55407632  1
  Se  Se139  1  0.58298789  0.24980818  0.05564349  1
  Se  Se140  1  0.58127239  0.25381088  0.55495429  1
  Se  Se141  1  0.57276814  0.57318995  0.05155047  1
  Se  Se142  1  0.58270323  0.58049046  0.55710795  1
  Se  Se143  1  0.57906457  0.92022706  0.06200804  1
  Se  Se144  1  0.57010410  0.89036249  0.54713141  1
  Se  Se145  1  0.92947356  0.25337897  0.07000154  1
  Se  Se146  1  0.92608434  0.26597602  0.56213732  1
  Se  Se147  1  0.91493873  0.58003655  0.04905895  1
  Se  Se148  1  0.92017595  0.58315756  0.55490124  1
  Se  Se149  1  0.92758914  0.92012057  0.06007500  1
  Se  Se150  1  0.92191020  0.92175509  0.54699287  1
  Se  Se151  1  0.07935302  0.25449522  0.44708232  1
  Se  Se152  1  0.09190289  0.24112629  0.94956920  1
  Se  Se153  1  0.08827507  0.58528474  0.44819586  1
  Se  Se154  1  0.08582045  0.58278693  0.94807226  1
  Se  Se155  1  0.08486983  0.92886900  0.43403448  1
  Se  Se156  1  0.08899426  0.91602403  0.94421656  1
  Se  Se157  1  0.41054595  0.25793721  0.44917712  1
  Se  Se158  1  0.42043971  0.24835339  0.94937787  1
  Se  Se159  1  0.41916980  0.59108485  0.42793894  1
  Se  Se160  1  0.41633646  0.59100932  0.94890163  1
  Se  Se161  1  0.41321481  0.89845871  0.42691926  1
  Se  Se162  1  0.41570717  0.91903644  0.95647635  1
  Se  Se163  1  0.73926523  0.25050937  0.43685764  1
  Se  Se164  1  0.74077544  0.25122502  0.94368009  1
  Se  Se165  1  0.74644516  0.57313481  0.45170537  1
  Se  Se166  1  0.75602991  0.57373831  0.94883575  1
  Se  Se167  1  0.72985360  0.92948112  0.44215876  1
  Se  Se168  1  0.74042042  0.92370227  0.94296245  1
  Se  Se169  1  0.24188232  0.07625834  0.43730520  1
  Se  Se170  1  0.25015932  0.08344263  0.95620660  1
  Se  Se171  1  0.24418383  0.43859856  0.44249832  1
  Se  Se172  1  0.25371605  0.41696232  0.94836745  1
  Se  Se173  1  0.26815306  0.74853234  0.43000969  1
  Se  Se174  1  0.25608738  0.74892681  0.94714367  1
  Se  Se175  1  0.57041075  0.09065433  0.45503621  1
  Se  Se176  1  0.58227789  0.08730149  0.94971470  1
  Se  Se177  1  0.58528844  0.40740751  0.43240445  1
  Se  Se178  1  0.58012278  0.41687699  0.94721516  1
  Se  Se179  1  0.58485425  0.74271511  0.44339024  1
  Se  Se180  1  0.57669375  0.76186808  0.94802546  1
  Se  Se181  1  0.91419890  0.08045340  0.43523812  1
  Se  Se182  1  0.92914169  0.07460359  0.94741082  1
  Se  Se183  1  0.91391393  0.42400883  0.44638617  1
  Se  Se184  1  0.92239485  0.40515093  0.95045162  1
  Se  Se185  1  0.92422475  0.74094847  0.43656279  1
  Se  Se186  1  0.92081632  0.75026151  0.94281210  1
  Se  Se187  1  0.25772408  0.25435818  0.30857061  1
  Se  Se188  1  0.25019483  0.24566672  0.80823404  1
  Se  Se189  1  0.25248136  0.58665788  0.29553957  1
  Se  Se190  1  0.25919318  0.59092841  0.80420222  1
  Se  Se191  1  0.23307933  0.88775554  0.29524010  1
  Se  Se192  1  0.24912997  0.90913651  0.80981724  1
  Se  Se193  1  0.58495272  0.25196420  0.30217307  1
  Se  Se194  1  0.57499982  0.24640450  0.79885732  1
  Se  Se195  1  0.58317240  0.58377827  0.30163298  1
  Se  Se196  1  0.58464494  0.58632854  0.80928484  1
  Se  Se197  1  0.58137321  0.92637376  0.30481699  1
  Se  Se198  1  0.57830473  0.92343485  0.80363970  1
  Se  Se199  1  0.90742948  0.24139004  0.31476625  1
  Se  Se200  1  0.90111263  0.23697140  0.81059828  1
  Se  Se201  1  0.90626228  0.57773377  0.31110258  1
  Se  Se202  1  0.91108802  0.57550692  0.81396355  1
  Se  Se203  1  0.91196131  0.91585016  0.30037193  1
  Se  Se204  1  0.90374683  0.91409411  0.80883555  1
  Se  Se205  1  0.08641458  0.08580227  0.29842173  1
  Se  Se206  1  0.08804410  0.08466929  0.80507845  1
  Se  Se207  1  0.09684474  0.41831630  0.31698981  1
  Se  Se208  1  0.09785602  0.42717632  0.80923893  1
  Se  Se209  1  0.08173749  0.74514379  0.31109889  1
  Se  Se210  1  0.08956354  0.75239544  0.80510195  1
  Se  Se211  1  0.41979279  0.08919287  0.31066915  1
  Se  Se212  1  0.41981960  0.08622645  0.81225759  1
  Se  Se213  1  0.41678942  0.41411153  0.29831790  1
  Se  Se214  1  0.42246059  0.42352424  0.81387424  1
  Se  Se215  1  0.40967629  0.73843241  0.28427078  1
  Se  Se216  1  0.41888480  0.75023808  0.80551471  1
  Se  Se217  1  0.74056789  0.08339703  0.30302903  1
  Se  Se218  1  0.73787009  0.07694667  0.80083960  1
  Se  Se219  1  0.74635889  0.41445271  0.30229014  1
  Se  Se220  1  0.74241439  0.41372261  0.80701632  1
  Se  Se221  1  0.74476494  0.74875308  0.30795992  1
  Se  Se222  1  0.74522772  0.74593529  0.80111339  1
  Se  Se223  1  0.25680597  0.08870654  0.20271531  1
  Se  Se224  1  0.25159229  0.09412887  0.68399414  1
  Se  Se225  1  0.25509607  0.41163819  0.19736381  1
  Se  Se226  1  0.24675605  0.42437730  0.68741686  1
  Se  Se227  1  0.22053776  0.78174653  0.19551499  1
  Se  Se228  1  0.26505486  0.74453909  0.69735983  1
  Se  Se229  1  0.58389716  0.08346100  0.19887930  1
  Se  Se230  1  0.57733447  0.07497585  0.68707029  1
  Se  Se231  1  0.58687755  0.41441324  0.19476587  1
  Se  Se232  1  0.57948730  0.41748428  0.69801186  1
  Se  Se233  1  0.57447503  0.74523805  0.20091577  1
  Se  Se234  1  0.58256501  0.74645288  0.69747760  1
  Se  Se235  1  0.91094357  0.08448616  0.19929811  1
  Se  Se236  1  0.89929228  0.09304309  0.68526840  1
  Se  Se237  1  0.91402015  0.42339447  0.19601932  1
  Se  Se238  1  0.90754755  0.42342387  0.69597068  1
  Se  Se239  1  0.90264052  0.75283349  0.18502918  1
  Se  Se240  1  0.90765070  0.76533061  0.68737967  1
  Se  Se241  1  0.09042050  0.25091451  0.19203982  1
  Se  Se242  1  0.08910213  0.25162763  0.69411747  1
  Se  Se243  1  0.08711526  0.57018784  0.19053929  1
  Se  Se244  1  0.09251033  0.58300562  0.68828101  1
  Se  Se245  1  0.06845052  0.93227971  0.20350906  1
  Se  Se246  1  0.10007894  0.91347258  0.69135286  1
  Se  Se247  1  0.41826927  0.25412563  0.19656946  1
  Se  Se248  1  0.41997589  0.23798486  0.68386587  1
  Se  Se249  1  0.41591089  0.57723271  0.19379285  1
  Se  Se250  1  0.41587403  0.58020343  0.69765086  1
  Se  Se251  1  0.41276715  0.92713393  0.20780883  1
  Se  Se252  1  0.42911826  0.91410967  0.68504399  1
  Se  Se253  1  0.74871871  0.25385936  0.19809988  1
  Se  Se254  1  0.73723569  0.25527393  0.69744052  1
  Se  Se255  1  0.74419397  0.58425469  0.19503143  1
  Se  Se256  1  0.74362007  0.58415165  0.69725420  1
  Se  Se257  1  0.74531645  0.91293734  0.19970902  1
  Se  Se258  1  0.73949960  0.92024847  0.69434882  1
