# generated using pymatgen
data_In86Cu29Se144
_symmetry_space_group_name_H-M   'P 1'
_cell_length_a   17.57761675
_cell_length_b   17.57666112
_cell_length_c   23.43901704
_cell_angle_alpha   89.99082582
_cell_angle_beta   89.99445680
_cell_angle_gamma   89.97208914
_symmetry_Int_Tables_number   1
_chemical_formula_structural   In86Cu29Se144
_chemical_formula_sum   'In86 Cu29 Se144'
_cell_volume   7241.61957548
_cell_formula_units_Z   1
loop_
 _symmetry_equiv_pos_site_id
 _symmetry_equiv_pos_as_xyz
  1  'x, y, z'
loop_
 _atom_site_type_symbol
 _atom_site_label
 _atom_site_symmetry_multiplicity
 _atom_site_fract_x
 _atom_site_fract_y
 _atom_site_fract_z
 _atom_site_occupancy
  In  In0  1  0.00125376  0.16776810  0.11273403  1
  In  In1  1  -0.00093196  0.16813783  0.62880833  1
  In  In2  1  0.00788745  0.50911287  0.12675055  1
  In  In3  1  -0.00059754  0.50502441  0.63736003  1
  In  In4  1  0.00268100  0.82048979  0.12051353  1
  In  In5  1  -0.00989252  0.83979392  0.63075121  1
  In  In6  1  0.32542243  0.15737370  0.11727524  1
  In  In7  1  0.33220558  0.16697511  0.63359067  1
  In  In8  1  0.32214549  0.51076748  0.12418867  1
  In  In9  1  0.33201941  0.48177172  0.62614694  1
  In  In10  1  0.34097423  0.83618970  0.11713848  1
  In  In11  1  0.34554075  0.83845203  0.62673213  1
  In  In12  1  0.65514331  0.15749479  0.11859483  1
  In  In13  1  0.66926660  0.17045304  0.61720664  1
  In  In14  1  0.67688002  0.51073046  0.13270838  1
  In  In15  1  0.67864351  0.50559002  0.61642808  1
  In  In16  1  0.66471497  0.84024251  0.13561679  1
  In  In17  1  0.66489408  0.82995831  0.61823515  1
  In  In18  1  0.16848283  -0.01274209  0.36871113  1
  In  In19  1  0.16951636  -0.00008987  0.87418625  1
  In  In20  1  0.16192822  0.33552827  0.37721729  1
  In  In21  1  0.16130936  0.33430305  0.87319681  1
  In  In22  1  0.15989416  0.67005890  0.36610027  1
  In  In23  1  0.15076925  0.67412809  0.88846414  1
  In  In24  1  0.49867804  -0.00415169  0.37620307  1
  In  In25  1  0.49003726  0.00790077  0.87936373  1
  In  In26  1  0.49635170  0.32774030  0.39047615  1
  In  In27  1  0.48558777  0.33213440  0.87074520  1
  In  In28  1  0.51424742  0.65507921  0.38503356  1
  In  In29  1  0.51164333  0.66927120  0.87382873  1
  In  In30  1  0.82024066  0.01437857  0.38624884  1
  In  In31  1  0.84526843  0.00190032  0.87165540  1
  In  In32  1  0.83372516  0.33977496  0.39044395  1
  In  In33  1  0.83796949  0.31803482  0.87384715  1
  In  In34  1  0.83647708  0.66686082  0.37592538  1
  In  In35  1  0.83397219  0.67002144  0.86720559  1
  In  In36  1  -0.01002116  0.16876048  0.38280137  1
  In  In37  1  0.00293416  0.16639343  0.87289527  1
  In  In38  1  -0.01840820  0.50205958  0.37523392  1
  In  In39  1  0.01762476  0.51378017  0.85687767  1
  In  In40  1  0.00176028  0.82107212  0.37780060  1
  In  In41  1  0.00043561  0.83900380  0.87042840  1
  In  In42  1  0.34784099  0.16510492  0.37652467  1
  In  In43  1  0.33103812  0.16635947  0.87534719  1
  In  In44  1  0.33531069  0.50854745  0.38063785  1
  In  In45  1  0.32455237  0.48370581  0.86709032  1
  In  In46  1  0.33307506  0.84620075  0.37256025  1
  In  In47  1  0.32292335  0.84086755  0.88122763  1
  In  In48  1  0.66695279  0.16070004  0.38026242  1
  In  In49  1  0.66922293  0.15810083  0.88307215  1
  In  In50  1  0.66872838  0.50208719  0.37848512  1
  In  In51  1  0.65978161  0.51241939  0.86871631  1
  In  In52  1  0.66550709  0.83309430  0.37736656  1
  In  In53  1  0.66902693  0.82201131  0.87515612  1
  In  In54  1  0.17646513  0.00901839  0.11524509  1
  In  In55  1  0.16364151  0.00418020  0.63913097  1
  In  In56  1  0.16745013  0.33504944  0.11631745  1
  In  In57  1  0.16945944  0.33947768  0.64379053  1
  In  In58  1  0.14583597  0.65364049  0.10094679  1
  In  In59  1  0.15537258  0.65202329  0.63454849  1
  In  In60  1  0.49892755  -0.00636785  0.12805447  1
  In  In61  1  0.49390806  -0.00001877  0.62190211  1
  In  In62  1  0.50833578  0.32720805  0.12282432  1
  In  In63  1  0.48740040  0.32494689  0.61391690  1
  In  In64  1  0.49995586  0.67943522  0.12669708  1
  In  In65  1  0.51358693  0.67765029  0.61786487  1
  In  In66  1  0.82109060  -0.00305752  0.12766224  1
  In  In67  1  0.85212469  0.00974483  0.60841941  1
  In  In68  1  0.84641792  0.33286239  0.12489800  1
  In  In69  1  0.85301702  0.34269393  0.60570149  1
  In  In70  1  0.83434531  0.66286636  0.14099613  1
  In  In71  1  0.83438994  0.66527364  0.62518494  1
  In  In72  1  0.66936173  0.33639941  0.74226945  1
  In  In73  1  0.33219359  0.66870608  0.74946812  1
  In  In74  1  0.67177348  0.33309130  0.26178988  1
  In  In75  1  -0.00531497  -0.00205423  0.25179729  1
  In  In76  1  0.33159863  0.67642256  0.24668577  1
  In  In77  1  0.83461872  0.83569294  -0.00003499  1
  In  In78  1  0.83815292  0.49580833  0.00511228  1
  In  In79  1  0.49214869  0.49265629  -0.00311022  1
  In  In80  1  0.66807478  -0.00494355  0.73928683  1
  In  In81  1  0.16744223  0.49660565  0.50819430  1
  In  In82  1  0.00077122  0.34352225  0.24920368  1
  In  In83  1  0.16492437  0.83227967  0.49664904  1
  In  In84  1  0.16775094  0.16920460  0.51105528  1
  In  In85  1  0.33078755  0.33100183  0.24272958  1
  Cu  Cu86  1  0.16986062  0.16045466  0.24433983  1
  Cu  Cu87  1  0.17010133  0.16517507  0.75767639  1
  Cu  Cu88  1  0.34243416  0.66956636  0.50189718  1
  Cu  Cu89  1  0.00019036  0.33093562  -0.00529950  1
  Cu  Cu90  1  0.83467478  0.82714615  0.74654003  1
  Cu  Cu91  1  0.49456699  0.17530970  0.75160437  1
  Cu  Cu92  1  0.50141170  0.49882954  0.25948464  1
  Cu  Cu93  1  0.33396973  0.00465805  0.50132454  1
  Cu  Cu94  1  0.66543723  0.32487640  -0.00190223  1
  Cu  Cu95  1  0.17096271  0.83456294  0.24022121  1
  Cu  Cu96  1  0.50134000  0.83905137  0.74539599  1
  Cu  Cu97  1  0.16475099  0.83253134  0.75751070  1
  Cu  Cu98  1  0.32911205  0.32620383  -0.00644229  1
  Cu  Cu99  1  0.50227966  0.15113061  0.25058234  1
  Cu  Cu100  1  0.66444037  0.33284572  0.50015414  1
  Cu  Cu101  1  0.50441365  0.83193633  0.25283443  1
  Cu  Cu102  1  0.33930545  -0.00229358  -0.00234783  1
  Cu  Cu103  1  0.00336720  0.00384862  -0.00759280  1
  Cu  Cu104  1  0.82574747  0.16760884  0.25343880  1
  Cu  Cu105  1  0.84160070  0.16397796  0.74341232  1
  Cu  Cu106  1  0.83081614  0.83200065  0.25627230  1
  Cu  Cu107  1  -0.00485622  0.66186732  0.50371806  1
  Cu  Cu108  1  0.65739436  -0.00294790  0.49901621  1
  Cu  Cu109  1  0.66541748  0.67068196  0.00305140  1
  Cu  Cu110  1  0.83102202  0.49919001  0.74240884  1
  Cu  Cu111  1  0.67384688  0.66833210  0.49758274  1
  Cu  Cu112  1  0.33167276  0.66497006  -0.00190376  1
  Cu  Cu113  1  0.50283855  0.50519711  0.74438795  1
  Cu  Cu114  1  0.66148337  -0.00140899  0.00719447  1
  Se  Se115  1  0.08720818  0.08625745  0.04767995  1
  Se  Se116  1  0.07911088  0.06974325  0.56037712  1
  Se  Se117  1  0.07345493  0.41541745  0.05571247  1
  Se  Se118  1  0.07832650  0.40842496  0.56791069  1
  Se  Se119  1  0.08513538  0.76117514  0.04213845  1
  Se  Se120  1  0.08126377  0.74077410  0.56112151  1
  Se  Se121  1  0.42049416  0.07857812  0.05625565  1
  Se  Se122  1  0.41098172  0.08962012  0.55819202  1
  Se  Se123  1  0.40282440  0.40527574  0.06198343  1
  Se  Se124  1  0.42321799  0.42853172  0.55124005  1
  Se  Se125  1  0.41947306  0.74560533  0.04937173  1
  Se  Se126  1  0.42057441  0.75769938  0.55378333  1
  Se  Se127  1  0.75121171  0.08216773  0.05419074  1
  Se  Se128  1  0.74390695  0.07751334  0.55217000  1
  Se  Se129  1  0.73807283  0.40727184  0.06145498  1
  Se  Se130  1  0.75317774  0.41750971  0.54679488  1
  Se  Se131  1  0.74859354  0.74532272  0.06440500  1
  Se  Se132  1  0.75561164  0.74964052  0.55411913  1
  Se  Se133  1  0.24598731  0.24582900  0.05103213  1
  Se  Se134  1  0.25472796  0.26446491  0.56634723  1
  Se  Se135  1  0.24741445  0.57572574  0.04367564  1
  Se  Se136  1  0.25851569  0.59447559  0.56290712  1
  Se  Se137  1  0.25275916  0.91615909  0.05039389  1
  Se  Se138  1  0.25166177  0.92374012  0.56059974  1
  Se  Se139  1  0.57748752  0.24427223  0.04862037  1
  Se  Se140  1  0.58036789  0.24717109  0.55005868  1
  Se  Se141  1  0.58562321  0.58228918  0.05758092  1
  Se  Se142  1  0.58829411  0.58588404  0.55114514  1
  Se  Se143  1  0.58362661  0.90950898  0.05893616  1
  Se  Se144  1  0.57645337  0.91517694  0.55537225  1
  Se  Se145  1  0.91281533  0.25073688  0.04846732  1
  Se  Se146  1  0.90981884  0.22816712  0.55281915  1
  Se  Se147  1  0.91876468  0.59749280  0.05961869  1
  Se  Se148  1  0.91880173  0.57622377  0.56022378  1
  Se  Se149  1  0.92503279  0.92864710  0.05959987  1
  Se  Se150  1  0.91649356  0.90325972  0.54909090  1
  Se  Se151  1  0.07670464  0.25824582  0.44815362  1
  Se  Se152  1  0.08528184  0.24621992  0.94439920  1
  Se  Se153  1  0.08354338  0.58933045  0.44365063  1
  Se  Se154  1  0.07764060  0.57190221  0.94651404  1
  Se  Se155  1  0.07336895  0.92641376  0.44206025  1
  Se  Se156  1  0.08359771  0.91604138  0.94191289  1
  Se  Se157  1  0.40686846  0.24881473  0.45350677  1
  Se  Se158  1  0.41958285  0.24660318  0.94521515  1
  Se  Se159  1  0.42132490  0.57990152  0.45144024  1
  Se  Se160  1  0.40980518  0.58560763  0.93365424  1
  Se  Se161  1  0.41321781  0.91653755  0.44834652  1
  Se  Se162  1  0.42155898  0.91100532  0.94593089  1
  Se  Se163  1  0.74775329  0.24752808  0.44737742  1
  Se  Se164  1  0.75331184  0.24559973  0.94662864  1
  Se  Se165  1  0.75590243  0.58199168  0.44575381  1
  Se  Se166  1  0.74572922  0.58910886  0.94385315  1
  Se  Se167  1  0.74613647  0.91647692  0.44793692  1
  Se  Se168  1  0.74272245  0.92626105  0.93974854  1
  Se  Se169  1  0.24837833  0.07783354  0.44012389  1
  Se  Se170  1  0.25288715  0.08042257  0.94504175  1
  Se  Se171  1  0.25761152  0.40910868  0.44440194  1
  Se  Se172  1  0.24677135  0.41440822  0.94490516  1
  Se  Se173  1  0.25814703  0.74052077  0.43796196  1
  Se  Se174  1  0.24750211  0.75193699  0.94918095  1
  Se  Se175  1  0.57568098  0.08352971  0.44600881  1
  Se  Se176  1  0.58066507  0.08082156  0.94912122  1
  Se  Se177  1  0.58443427  0.41914443  0.44638328  1
  Se  Se178  1  0.59112079  0.40936117  0.93657831  1
  Se  Se179  1  0.58386039  0.75214398  0.44982505  1
  Se  Se180  1  0.58247878  0.75259783  0.94918106  1
  Se  Se181  1  0.91711573  0.08303700  0.45124024  1
  Se  Se182  1  0.91524771  0.08701454  0.94417641  1
  Se  Se183  1  0.93165019  0.41112975  0.45187829  1
  Se  Se184  1  0.92132345  0.41404238  0.93572567  1
  Se  Se185  1  0.91660174  0.74905262  0.44983314  1
  Se  Se186  1  0.92094331  0.74341112  0.94081265  1
  Se  Se187  1  0.24298934  0.24304464  0.30851282  1
  Se  Se188  1  0.25268969  0.25356384  0.80688099  1
  Se  Se189  1  0.24760479  0.57670202  0.30476305  1
  Se  Se190  1  0.24388021  0.59019445  0.81667184  1
  Se  Se191  1  0.25293463  0.91632912  0.29526200  1
  Se  Se192  1  0.25296042  0.91765159  0.80295481  1
  Se  Se193  1  0.57037770  0.24320233  0.31041883  1
  Se  Se194  1  0.58562635  0.24613036  0.80959294  1
  Se  Se195  1  0.58814829  0.58310318  0.30588309  1
  Se  Se196  1  0.58375119  0.59166289  0.79569602  1
  Se  Se197  1  0.58478354  0.91724315  0.30679255  1
  Se  Se198  1  0.58175923  0.91541877  0.81004505  1
  Se  Se199  1  0.90821772  0.25081952  0.30842438  1
  Se  Se200  1  0.92078731  0.24735301  0.79983759  1
  Se  Se201  1  0.93354785  0.60305036  0.30598338  1
  Se  Se202  1  0.91134032  0.58280131  0.79925558  1
  Se  Se203  1  0.90858905  0.91399105  0.31749744  1
  Se  Se204  1  0.91383856  0.91501877  0.79959871  1
  Se  Se205  1  0.08583239  0.09227107  0.31023936  1
  Se  Se206  1  0.08298753  0.07914898  0.80503533  1
  Se  Se207  1  0.09090787  0.43109557  0.31006808  1
  Se  Se208  1  0.06639939  0.39735451  0.80235646  1
  Se  Se209  1  0.08568134  0.75926882  0.29833790  1
  Se  Se210  1  0.08105511  0.74684522  0.80660183  1
  Se  Se211  1  0.41288163  0.07528578  0.30419157  1
  Se  Se212  1  0.41650054  0.08633348  0.80405973  1
  Se  Se213  1  0.41872439  0.41510961  0.31164504  1
  Se  Se214  1  0.42070535  0.42080304  0.79704332  1
  Se  Se215  1  0.42553944  0.75069462  0.31434476  1
  Se  Se216  1  0.42248888  0.75947976  0.80927991  1
  Se  Se217  1  0.74464937  0.08252318  0.30524197  1
  Se  Se218  1  0.75422152  0.08857134  0.80219055  1
  Se  Se219  1  0.76767562  0.42543084  0.31064715  1
  Se  Se220  1  0.75529067  0.42297147  0.81047565  1
  Se  Se221  1  0.74760791  0.74842533  0.30900899  1
  Se  Se222  1  0.74628760  0.74856129  0.79917268  1
  Se  Se223  1  0.25490149  0.07749123  0.19474917  1
  Se  Se224  1  0.25429353  0.08199276  0.70345344  1
  Se  Se225  1  0.23607630  0.42621690  0.19311820  1
  Se  Se226  1  0.24362787  0.43626817  0.70559632  1
  Se  Se227  1  0.24184887  0.75068132  0.17751567  1
  Se  Se228  1  0.24106396  0.75938616  0.68819843  1
  Se  Se229  1  0.58874882  0.07480997  0.19555311  1
  Se  Se230  1  0.57656625  0.09670293  0.69124312  1
  Se  Se231  1  0.57903277  0.41971962  0.19533575  1
  Se  Se232  1  0.57846756  0.42287771  0.68190283  1
  Se  Se233  1  0.58641590  0.74623112  0.20012306  1
  Se  Se234  1  0.58644588  0.75521569  0.69555395  1
  Se  Se235  1  0.91146579  0.09497199  0.19088944  1
  Se  Se236  1  0.92138380  0.07349808  0.69420225  1
  Se  Se237  1  0.90626817  0.43430194  0.19347931  1
  Se  Se238  1  0.91169883  0.40936354  0.69408298  1
  Se  Se239  1  0.91761897  0.75858896  0.19811855  1
  Se  Se240  1  0.92137472  0.74220608  0.69673731  1
  Se  Se241  1  0.08731778  0.24415964  0.19016748  1
  Se  Se242  1  0.08623189  0.24271454  0.69933528  1
  Se  Se243  1  0.08940969  0.59480752  0.19165234  1
  Se  Se244  1  0.08819238  0.57246570  0.70980876  1
  Se  Se245  1  0.08634672  0.91844536  0.18526000  1
  Se  Se246  1  0.08094434  0.91269221  0.69995848  1
  Se  Se247  1  0.42571624  0.23680579  0.19059673  1
  Se  Se248  1  0.41434693  0.25967460  0.69722402  1
  Se  Se249  1  0.42469864  0.57552053  0.19308079  1
  Se  Se250  1  0.42222012  0.58611401  0.68389294  1
  Se  Se251  1  0.41701382  0.90798800  0.19640736  1
  Se  Se252  1  0.41569421  0.92556443  0.69938497  1
  Se  Se253  1  0.75116421  0.24783920  0.18857981  1
  Se  Se254  1  0.76250232  0.24728634  0.68543716  1
  Se  Se255  1  0.74610447  0.58732033  0.20817042  1
  Se  Se256  1  0.74605804  0.58524009  0.69466641  1
  Se  Se257  1  0.75019308  0.91982949  0.20453226  1
  Se  Se258  1  0.76394664  0.91137709  0.68225359  1
