# generated using pymatgen
data_In86Cu29Se144
_symmetry_space_group_name_H-M   'P 1'
_cell_length_a   17.58340019
_cell_length_b   17.58036078
_cell_length_c   23.43346173
_cell_angle_alpha   90.00501787
_cell_angle_beta   90.01355654
_cell_angle_gamma   90.02593392
_symmetry_Int_Tables_number   1
_chemical_formula_structural   In86Cu29Se144
_chemical_formula_sum   'In86 Cu29 Se144'
_cell_volume   7243.80974543
_cell_formula_units_Z   1
loop_
 _symmetry_equiv_pos_site_id
 _symmetry_equiv_pos_as_xyz
  1  'x, y, z'
loop_
 _atom_site_type_symbol
 _atom_site_label
 _atom_site_symmetry_multiplicity
 _atom_site_fract_x
 _atom_site_fract_y
 _atom_site_fract_z
 _atom_site_occupancy
  In  In0  1  -0.00863481  0.15289466  0.10726118  1
  In  In1  1  0.00696917  0.18053530  0.62260676  1
  In  In2  1  0.00455412  0.50720196  0.11872010  1
  In  In3  1  0.02096411  0.49025878  0.65282823  1
  In  In4  1  -0.01736019  0.84285089  0.12591422  1
  In  In5  1  -0.00142554  0.82082849  0.62754052  1
  In  In6  1  0.33162323  0.18964652  0.12842951  1
  In  In7  1  0.34876465  0.17156029  0.62143257  1
  In  In8  1  0.32485194  0.48734967  0.11644866  1
  In  In9  1  0.34337244  0.49413846  0.61851285  1
  In  In10  1  0.33400883  0.81702809  0.11957711  1
  In  In11  1  0.33472919  0.81282795  0.62717365  1
  In  In12  1  0.66859806  0.15346159  0.12776311  1
  In  In13  1  0.66294104  0.16078997  0.62391211  1
  In  In14  1  0.67036458  0.50879569  0.11267299  1
  In  In15  1  0.66216212  0.51436143  0.63185259  1
  In  In16  1  0.67609544  0.84093167  0.11633032  1
  In  In17  1  0.66316699  0.83705410  0.63167001  1
  In  In18  1  0.15560674  0.00650295  0.36533020  1
  In  In19  1  0.16295248  0.01332490  0.88699998  1
  In  In20  1  0.18395216  0.33527640  0.37300315  1
  In  In21  1  0.16399601  0.34609093  0.86789133  1
  In  In22  1  0.15325979  0.66197715  0.37440453  1
  In  In23  1  0.14247708  0.64177085  0.86136688  1
  In  In24  1  0.51252729  -0.00575501  0.37983022  1
  In  In25  1  0.50240131  -0.01530320  0.87398038  1
  In  In26  1  0.48185048  0.34183907  0.39345830  1
  In  In27  1  0.49606135  0.35365377  0.86707594  1
  In  In28  1  0.49746717  0.66503235  0.38734380  1
  In  In29  1  0.50448545  0.66475665  0.86364547  1
  In  In30  1  0.83702522  0.01075345  0.36425131  1
  In  In31  1  0.82954921  0.00845657  0.88669013  1
  In  In32  1  0.82028077  0.33339895  0.37531624  1
  In  In33  1  0.84451688  0.32562860  0.88180346  1
  In  In34  1  0.85026297  0.65815624  0.37251130  1
  In  In35  1  0.82950062  0.66834906  0.88307542  1
  In  In36  1  0.00092899  0.15969489  0.36934540  1
  In  In37  1  -0.00772705  0.17430643  0.88433496  1
  In  In38  1  0.00474375  0.51181695  0.37097125  1
  In  In39  1  0.00325801  0.50279747  0.88067827  1
  In  In40  1  -0.00880489  0.83137770  0.36730459  1
  In  In41  1  -0.00621226  0.81390482  0.89031979  1
  In  In42  1  0.33355069  0.17943800  0.37570035  1
  In  In43  1  0.32098051  0.17554335  0.87475076  1
  In  In44  1  0.33388915  0.49308006  0.38476232  1
  In  In45  1  0.33605550  0.49833863  0.86710131  1
  In  In46  1  0.33885463  0.83628157  0.37831965  1
  In  In47  1  0.34814825  0.82979705  0.87680689  1
  In  In48  1  0.67195808  0.16408595  0.37994756  1
  In  In49  1  0.68360774  0.16545346  0.87221710  1
  In  In50  1  0.66107144  0.49231692  0.37462456  1
  In  In51  1  0.65150497  0.51051310  0.87748697  1
  In  In52  1  0.65524787  0.83249552  0.37368878  1
  In  In53  1  0.66601342  0.83186825  0.87389455  1
  In  In54  1  0.14171436  -0.00488919  0.11746763  1
  In  In55  1  0.16968098  0.00365872  0.62597305  1
  In  In56  1  0.17633148  0.34605129  0.11978474  1
  In  In57  1  0.16257726  0.34489972  0.63302251  1
  In  In58  1  0.15157164  0.64144493  0.11449027  1
  In  In59  1  0.21618059  0.61216177  0.68270561  1
  In  In60  1  0.51315562  -0.00024487  0.12782636  1
  In  In61  1  0.51462271  0.00777081  0.62010446  1
  In  In62  1  0.48747551  0.33842984  0.12617248  1
  In  In63  1  0.49250654  0.33124347  0.62235119  1
  In  In64  1  0.49400796  0.66556143  0.11167085  1
  In  In65  1  0.49882266  0.66653080  0.62227610  1
  In  In66  1  0.83187217  -0.00144833  0.11960642  1
  In  In67  1  0.82106088  -0.00241141  0.62665134  1
  In  In68  1  0.84220060  0.33979883  0.11073051  1
  In  In69  1  0.84750376  0.33564548  0.62612675  1
  In  In70  1  0.84321419  0.66929971  0.11262874  1
  In  In71  1  0.84332890  0.65443099  0.64018711  1
  In  In72  1  0.32597098  0.00197387  0.25319953  1
  In  In73  1  0.82892688  0.49733114  0.49896741  1
  In  In74  1  0.33709115  -0.00161612  0.74991432  1
  In  In75  1  0.16682619  0.82325108  0.50179991  1
  In  In76  1  0.50223992  0.16956254  0.00643129  1
  In  In77  1  0.00559844  0.33577671  0.23932847  1
  In  In78  1  0.17280487  0.16981845  0.49534284  1
  In  In79  1  0.17254354  0.82585044  -0.00288400  1
  In  In80  1  0.66679809  0.33603591  0.74742996  1
  In  In81  1  0.66593984  0.33359349  0.25519051  1
  In  In82  1  0.82898756  0.83342716  0.50030577  1
  In  In83  1  0.32761943  0.66140936  0.24826737  1
  In  In84  1  -0.00606829  -0.00348107  0.76157096  1
  In  In85  1  0.67262846  0.67437155  0.24155967  1
  Cu  Cu86  1  0.16473120  0.83731009  0.76190724  1
  Cu  Cu87  1  0.33658422  0.00377013  -0.00121754  1
  Cu  Cu88  1  0.15237258  0.82317119  0.24540135  1
  Cu  Cu89  1  0.83285587  0.50093600  0.76178671  1
  Cu  Cu90  1  0.16075096  0.16587046  0.24351869  1
  Cu  Cu91  1  0.49878364  0.49932961  0.25364682  1
  Cu  Cu92  1  0.00976379  0.65460487  0.50764369  1
  Cu  Cu93  1  0.50259881  0.83800406  0.25016924  1
  Cu  Cu94  1  0.33295073  0.34465492  -0.00618597  1
  Cu  Cu95  1  0.66486711  -0.00251656  0.00054953  1
  Cu  Cu96  1  0.34222714  -0.00501545  0.49903543  1
  Cu  Cu97  1  0.00907007  0.33596319  -0.00234342  1
  Cu  Cu98  1  0.83466384  0.16641835  0.24329528  1
  Cu  Cu99  1  -0.00792069  0.00198874  0.49107618  1
  Cu  Cu100  1  0.33060369  0.65565769  0.51194650  1
  Cu  Cu101  1  0.16602017  0.18231474  0.75050800  1
  Cu  Cu102  1  0.33735445  0.66283817  -0.01144265  1
  Cu  Cu103  1  0.00074402  0.33584034  0.50551363  1
  Cu  Cu104  1  0.50573117  0.82921241  0.74866311  1
  Cu  Cu105  1  0.50175920  0.17241624  0.25099070  1
  Cu  Cu106  1  0.65831999  0.66747712  -0.00670206  1
  Cu  Cu107  1  0.50334031  0.16543459  0.74638823  1
  Cu  Cu108  1  0.82659162  0.82626764  0.75611334  1
  Cu  Cu109  1  0.66091177  0.33057166  0.50241683  1
  Cu  Cu110  1  0.66899618  0.33307165  -0.00700892  1
  Cu  Cu111  1  0.83002732  0.83938500  0.24276862  1
  Cu  Cu112  1  0.66618488  0.00470140  0.50163898  1
  Cu  Cu113  1  0.66578303  0.67080653  0.50561604  1
  Cu  Cu114  1  0.83996433  0.16151443  0.75570170  1
  Se  Se115  1  0.09609133  0.09171555  0.04405352  1
  Se  Se116  1  0.07773286  0.07609173  0.55326962  1
  Se  Se117  1  0.08865556  0.42181816  0.05147592  1
  Se  Se118  1  0.07555429  0.42137082  0.56260637  1
  Se  Se119  1  0.07790388  0.75159493  0.06272250  1
  Se  Se120  1  0.08861190  0.73461385  0.56751383  1
  Se  Se121  1  0.41005407  0.08093909  0.06719019  1
  Se  Se122  1  0.42041715  0.08074276  0.55359007  1
  Se  Se123  1  0.42278526  0.42074949  0.04838105  1
  Se  Se124  1  0.42211309  0.41359917  0.54756167  1
  Se  Se125  1  0.41571729  0.75199438  0.04232221  1
  Se  Se126  1  0.41781872  0.74970525  0.54948867  1
  Se  Se127  1  0.74771606  0.08475647  0.05114206  1
  Se  Se128  1  0.75318059  0.08492582  0.55408481  1
  Se  Se129  1  0.74984149  0.41892443  0.04761684  1
  Se  Se130  1  0.74050795  0.41084545  0.56475045  1
  Se  Se131  1  0.74347841  0.74409570  0.05143035  1
  Se  Se132  1  0.75352056  0.73934359  0.56661056  1
  Se  Se133  1  0.25456720  0.25782735  0.04982403  1
  Se  Se134  1  0.25047843  0.25639243  0.56371016  1
  Se  Se135  1  0.25800702  0.58617255  0.05036869  1
  Se  Se136  1  0.24243994  0.58859022  0.57216204  1
  Se  Se137  1  0.25681215  0.92245241  0.06053591  1
  Se  Se138  1  0.25803929  0.92038897  0.55917403  1
  Se  Se139  1  0.59388305  0.26071185  0.06456282  1
  Se  Se140  1  0.58127307  0.24640054  0.55807627  1
  Se  Se141  1  0.57660310  0.58035857  0.04621464  1
  Se  Se142  1  0.58337773  0.58199241  0.55341727  1
  Se  Se143  1  0.57834038  0.91541055  0.05207013  1
  Se  Se144  1  0.58932318  0.91381465  0.55412671  1
  Se  Se145  1  0.91873275  0.25085351  0.04428773  1
  Se  Se146  1  0.91526978  0.24835748  0.55162369  1
  Se  Se147  1  0.91897620  0.57971335  0.04642327  1
  Se  Se148  1  0.92141815  0.57730019  0.56299729  1
  Se  Se149  1  0.91069313  0.91651743  0.04862900  1
  Se  Se150  1  0.92466067  0.92175578  0.55927791  1
  Se  Se151  1  0.07600798  0.25767229  0.43809175  1
  Se  Se152  1  0.09106143  0.25596117  0.94007493  1
  Se  Se153  1  0.08912396  0.57420535  0.44969550  1
  Se  Se154  1  0.08028574  0.58873943  0.95165799  1
  Se  Se155  1  0.07733686  0.91786075  0.43949560  1
  Se  Se156  1  0.07701497  0.91982300  0.94532245  1
  Se  Se157  1  0.41051648  0.24289823  0.45488127  1
  Se  Se158  1  0.41673889  0.25706337  0.94093233  1
  Se  Se159  1  0.41544336  0.57972347  0.45199769  1
  Se  Se160  1  0.42193631  0.58158077  0.93483314  1
  Se  Se161  1  0.42527063  0.91146355  0.44642934  1
  Se  Se162  1  0.41845063  0.91728457  0.94963497  1
  Se  Se163  1  0.74960564  0.25201224  0.44980457  1
  Se  Se164  1  0.75396488  0.24476566  0.94803539  1
  Se  Se165  1  0.74266043  0.59471566  0.43899780  1
  Se  Se166  1  0.74360753  0.57925039  0.94694791  1
  Se  Se167  1  0.74511028  0.92554420  0.43785433  1
  Se  Se168  1  0.74643260  0.91428712  0.94590802  1
  Se  Se169  1  0.25661720  0.06764564  0.43708726  1
  Se  Se170  1  0.25444612  0.09162369  0.95131234  1
  Se  Se171  1  0.24956364  0.41065063  0.45178415  1
  Se  Se172  1  0.24803939  0.42547004  0.94009376  1
  Se  Se173  1  0.26004745  0.73462248  0.44041634  1
  Se  Se174  1  0.25089368  0.73756510  0.92905209  1
  Se  Se175  1  0.58202030  0.08787198  0.44816816  1
  Se  Se176  1  0.58698405  0.08154952  0.93990246  1
  Se  Se177  1  0.58370568  0.42047552  0.45014799  1
  Se  Se178  1  0.58012792  0.41466258  0.94532813  1
  Se  Se179  1  0.58418072  0.75287428  0.44944486  1
  Se  Se180  1  0.57575795  0.75100656  0.93915784  1
  Se  Se181  1  0.91196502  0.08883792  0.44098262  1
  Se  Se182  1  0.92844894  0.07583574  0.94962194  1
  Se  Se183  1  0.92318348  0.41072742  0.43797302  1
  Se  Se184  1  0.91864379  0.41711458  0.94849618  1
  Se  Se185  1  0.92947889  0.73983367  0.44978041  1
  Se  Se186  1  0.90477308  0.74611646  0.95991980  1
  Se  Se187  1  0.24619419  0.24249043  0.29986636  1
  Se  Se188  1  0.25376552  0.26161842  0.80170316  1
  Se  Se189  1  0.24459378  0.57369804  0.31228502  1
  Se  Se190  1  0.25470351  0.59006727  0.80208479  1
  Se  Se191  1  0.23611393  0.89994963  0.30710469  1
  Se  Se192  1  0.24437724  0.92077126  0.81792422  1
  Se  Se193  1  0.57395565  0.25154584  0.31798996  1
  Se  Se194  1  0.57983053  0.24406354  0.81156415  1
  Se  Se195  1  0.57910452  0.58675370  0.30719475  1
  Se  Se196  1  0.58138563  0.57591922  0.79573845  1
  Se  Se197  1  0.58739337  0.92071862  0.30070937  1
  Se  Se198  1  0.58686367  0.91614923  0.80040346  1
  Se  Se199  1  0.91008282  0.25032047  0.30455136  1
  Se  Se200  1  0.92093728  0.24951865  0.80488676  1
  Se  Se201  1  0.92135528  0.58169797  0.29767845  1
  Se  Se202  1  0.91415411  0.58643268  0.81415546  1
  Se  Se203  1  0.91547657  0.91968655  0.29970153  1
  Se  Se204  1  0.90700688  0.90366224  0.81930375  1
  Se  Se205  1  0.07461319  0.08144496  0.29255624  1
  Se  Se206  1  0.09003310  0.09446087  0.80806883  1
  Se  Se207  1  0.09100439  0.41775060  0.30762092  1
  Se  Se208  1  0.07809934  0.42832207  0.80227573  1
  Se  Se209  1  0.07354439  0.74253893  0.30374900  1
  Se  Se210  1  0.07534138  0.75484560  0.80911499  1
  Se  Se211  1  0.42253840  0.08720824  0.31091163  1
  Se  Se212  1  0.42355842  0.09002923  0.81300834  1
  Se  Se213  1  0.41913010  0.41889882  0.31102326  1
  Se  Se214  1  0.40702282  0.41157400  0.79353543  1
  Se  Se215  1  0.42423823  0.75272630  0.30679391  1
  Se  Se216  1  0.41514509  0.75105659  0.79877228  1
  Se  Se217  1  0.74635895  0.09160201  0.30015783  1
  Se  Se218  1  0.75524414  0.07513220  0.80312883  1
  Se  Se219  1  0.76124012  0.43327565  0.30302293  1
  Se  Se220  1  0.75243057  0.41586682  0.81744278  1
  Se  Se221  1  0.76091072  0.75774441  0.31137440  1
  Se  Se222  1  0.74438898  0.74127568  0.80776724  1
  Se  Se223  1  0.24363555  0.08535795  0.18350599  1
  Se  Se224  1  0.24588893  0.09627152  0.69360513  1
  Se  Se225  1  0.26117721  0.41047620  0.19606082  1
  Se  Se226  1  0.25186943  0.42813127  0.69378640  1
  Se  Se227  1  0.23526172  0.74750225  0.18616889  1
  Se  Se228  1  0.24636573  0.75954401  0.70371049  1
  Se  Se229  1  0.58294844  0.08464803  0.20190930  1
  Se  Se230  1  0.58914942  0.07976188  0.69959652  1
  Se  Se231  1  0.58227209  0.42621082  0.19048926  1
  Se  Se232  1  0.57231620  0.42402835  0.69266112  1
  Se  Se233  1  0.57355155  0.75684317  0.18421727  1
  Se  Se234  1  0.58590372  0.74330389  0.69414575  1
  Se  Se235  1  0.91600322  0.08429272  0.18771606  1
  Se  Se236  1  0.91818008  0.08582706  0.68888888  1
  Se  Se237  1  0.90866559  0.42478495  0.18781508  1
  Se  Se238  1  0.91183600  0.41695949  0.70392126  1
  Se  Se239  1  0.90981367  0.74913532  0.19318551  1
  Se  Se240  1  0.91737981  0.75168899  0.70318251  1
  Se  Se241  1  0.08625274  0.24191654  0.17691090  1
  Se  Se242  1  0.07628952  0.25901506  0.69892347  1
  Se  Se243  1  0.08833349  0.57109303  0.19691827  1
  Se  Se244  1  0.06701971  0.61483069  0.69487501  1
  Se  Se245  1  0.07559875  0.91547021  0.19579709  1
  Se  Se246  1  0.08918333  0.91512714  0.69518487  1
  Se  Se247  1  0.41715104  0.25791269  0.20301616  1
  Se  Se248  1  0.41820791  0.25040980  0.69874769  1
  Se  Se249  1  0.42307545  0.57739885  0.18840708  1
  Se  Se250  1  0.40351677  0.59622214  0.68792739  1
  Se  Se251  1  0.41391522  0.91003850  0.19050840  1
  Se  Se252  1  0.42502757  0.91119025  0.68704419  1
  Se  Se253  1  0.75635318  0.25235535  0.18668743  1
  Se  Se254  1  0.76059643  0.24181386  0.69255492  1
  Se  Se255  1  0.75845288  0.57916584  0.18676404  1
  Se  Se256  1  0.74953562  0.58104334  0.70573263  1
  Se  Se257  1  0.74500722  0.92273676  0.19276341  1
  Se  Se258  1  0.75139968  0.91439702  0.70046893  1
