# generated using pymatgen
data_In86Cu29Se144
_symmetry_space_group_name_H-M   'P 1'
_cell_length_a   17.57921554
_cell_length_b   17.58661388
_cell_length_c   23.44423364
_cell_angle_alpha   89.99612530
_cell_angle_beta   89.96195884
_cell_angle_gamma   89.98849293
_symmetry_Int_Tables_number   1
_chemical_formula_structural   In86Cu29Se144
_chemical_formula_sum   'In86 Cu29 Se144'
_cell_volume   7247.99115844
_cell_formula_units_Z   1
loop_
 _symmetry_equiv_pos_site_id
 _symmetry_equiv_pos_as_xyz
  1  'x, y, z'
loop_
 _atom_site_type_symbol
 _atom_site_label
 _atom_site_symmetry_multiplicity
 _atom_site_fract_x
 _atom_site_fract_y
 _atom_site_fract_z
 _atom_site_occupancy
  In  In0  1  0.00144887  0.17380558  0.12666455  1
  In  In1  1  0.01173440  0.19620531  0.60070937  1
  In  In2  1  0.00275951  0.50059662  0.11443969  1
  In  In3  1  0.00813025  0.48614746  0.62984842  1
  In  In4  1  -0.01215654  0.83250645  0.12169467  1
  In  In5  1  -0.02133971  0.83777902  0.62784533  1
  In  In6  1  0.34081665  0.15119163  0.13410542  1
  In  In7  1  0.37253564  0.18905908  0.60269526  1
  In  In8  1  0.33899255  0.53350561  0.11961435  1
  In  In9  1  0.32429353  0.49035551  0.61687762  1
  In  In10  1  0.34670663  0.82088736  0.13328043  1
  In  In11  1  0.33537829  0.84036207  0.62462657  1
  In  In12  1  0.65120584  0.17879159  0.13224865  1
  In  In13  1  0.66310084  0.16933325  0.62593832  1
  In  In14  1  0.66984792  0.49512654  0.13614217  1
  In  In15  1  0.66227078  0.50290723  0.62710065  1
  In  In16  1  0.66890978  0.83517957  0.12781692  1
  In  In17  1  0.68021981  0.82858126  0.63200486  1
  In  In18  1  0.18057838  0.00170750  0.37907169  1
  In  In19  1  0.17506179  0.00680621  0.87260596  1
  In  In20  1  0.16510672  0.33258854  0.39201808  1
  In  In21  1  0.16944289  0.34223968  0.86613901  1
  In  In22  1  0.16935164  0.65355322  0.37512506  1
  In  In23  1  0.15077717  0.67005802  0.87433713  1
  In  In24  1  0.50561188  0.00153617  0.37167412  1
  In  In25  1  0.50870792  -0.00781401  0.88644153  1
  In  In26  1  0.51117266  0.33343431  0.38187133  1
  In  In27  1  0.49383968  0.32790366  0.86908054  1
  In  In28  1  0.50711366  0.65274957  0.35747767  1
  In  In29  1  0.51103353  0.66602972  0.87773901  1
  In  In30  1  0.82471899  -0.00145760  0.37934965  1
  In  In31  1  0.81630168  0.00263064  0.87604129  1
  In  In32  1  0.81520662  0.33337660  0.38481891  1
  In  In33  1  0.83962791  0.34357496  0.86245204  1
  In  In34  1  0.83145527  0.66619072  0.37570240  1
  In  In35  1  0.82920870  0.66501324  0.87785904  1
  In  In36  1  -0.00308987  0.17213877  0.39312274  1
  In  In37  1  -0.01409492  0.17209275  0.86594940  1
  In  In38  1  0.00363034  0.50430136  0.38154994  1
  In  In39  1  -0.00755321  0.50161042  0.87204995  1
  In  In40  1  -0.01673822  0.82507060  0.37739591  1
  In  In41  1  -0.00151042  0.81276678  0.87190037  1
  In  In42  1  0.34810296  0.15652924  0.39090273  1
  In  In43  1  0.33529646  0.17952072  0.87437084  1
  In  In44  1  0.33568399  0.50354174  0.37644018  1
  In  In45  1  0.33990092  0.48547541  0.87711916  1
  In  In46  1  0.34374395  0.83221385  0.36366731  1
  In  In47  1  0.33737589  0.84076728  0.88192567  1
  In  In48  1  0.66777590  0.16550487  0.38116438  1
  In  In49  1  0.66102823  0.15871702  0.86620417  1
  In  In50  1  0.66232050  0.47976068  0.35174421  1
  In  In51  1  0.67335040  0.51281520  0.86762287  1
  In  In52  1  0.67480828  0.83333098  0.36498244  1
  In  In53  1  0.66662186  0.83352437  0.88029740  1
  In  In54  1  0.17269845  0.01082997  0.13169971  1
  In  In55  1  0.16579029  0.01063247  0.62194383  1
  In  In56  1  0.15901546  0.34059596  0.12194494  1
  In  In57  1  0.16994099  0.33936338  0.62402868  1
  In  In58  1  0.18423170  0.66184704  0.12186945  1
  In  In59  1  0.16781820  0.64760256  0.62426533  1
  In  In60  1  0.50648255  -0.00135834  0.12886928  1
  In  In61  1  0.51129370  0.03505036  0.61108465  1
  In  In62  1  0.51756802  0.34161124  0.12420995  1
  In  In63  1  0.49997231  0.33568124  0.62801005  1
  In  In64  1  0.48992993  0.67056769  0.13241819  1
  In  In65  1  0.51648146  0.67065657  0.62708141  1
  In  In66  1  0.82317357  -0.01868073  0.12302149  1
  In  In67  1  0.82667810  -0.00154383  0.62011779  1
  In  In68  1  0.81770181  0.33903117  0.12892153  1
  In  In69  1  0.83105598  0.32911390  0.62328162  1
  In  In70  1  0.82109358  0.65917663  0.12608234  1
  In  In71  1  0.82597524  0.67116398  0.63041504  1
  In  In72  1  0.16128584  0.83017877  0.50000479  1
  In  In73  1  0.82563199  0.17154103  -0.00147850  1
  In  In74  1  -0.00474506  0.66381680  0.25305835  1
  In  In75  1  -0.00492539  0.33467673  0.25646376  1
  In  In76  1  0.33936416  0.00723440  0.74106502  1
  In  In77  1  0.33787451  0.65956662  0.75742053  1
  In  In78  1  0.83089404  0.49249928  0.50506093  1
  In  In79  1  0.17005909  0.17062833  -0.00279131  1
  In  In80  1  0.16762748  0.82930390  0.00138347  1
  In  In81  1  -0.00226140  0.00030824  0.24931683  1
  In  In82  1  0.50718123  0.83382826  0.49137770  1
  In  In83  1  0.50104901  0.50243797  0.00071716  1
  In  In84  1  -0.00891293  0.00576116  0.74103436  1
  In  In85  1  0.33633140  0.33502629  0.25689448  1
  Cu  Cu86  1  0.17693902  0.50129553  0.24981194  1
  Cu  Cu87  1  -0.00263446  0.66435719  0.50059544  1
  Cu  Cu88  1  0.17293784  0.83124945  0.25040064  1
  Cu  Cu89  1  0.66933578  0.66040989  0.50120908  1
  Cu  Cu90  1  0.82477676  0.15894758  0.25510380  1
  Cu  Cu91  1  0.82842873  0.50452594  0.74697845  1
  Cu  Cu92  1  0.49856156  0.49720905  0.74953082  1
  Cu  Cu93  1  0.15971224  0.49497371  0.74886790  1
  Cu  Cu94  1  -0.00866570  0.66065183  -0.00306181  1
  Cu  Cu95  1  0.34322956  0.66437264  0.49479159  1
  Cu  Cu96  1  0.50166004  0.16629257  0.26022798  1
  Cu  Cu97  1  0.66322649  -0.00121750  0.49667989  1
  Cu  Cu98  1  0.66678388  0.67066503  0.00223328  1
  Cu  Cu99  1  0.82900492  0.83247787  0.75519409  1
  Cu  Cu100  1  0.83286508  0.17128134  0.74107406  1
  Cu  Cu101  1  0.17383267  0.16299826  0.26062793  1
  Cu  Cu102  1  0.66198154  -0.00100950  0.00229720  1
  Cu  Cu103  1  0.16574039  0.82710553  0.74861235  1
  Cu  Cu104  1  0.50151297  0.16969494  0.74710101  1
  Cu  Cu105  1  0.33782388  0.33019691  -0.00115811  1
  Cu  Cu106  1  -0.00505178  0.34289181  -0.00775352  1
  Cu  Cu107  1  0.50032051  0.83480297  0.24770475  1
  Cu  Cu108  1  0.16478317  0.17761168  0.74232608  1
  Cu  Cu109  1  -0.00874654  -0.00389372  0.50316434  1
  Cu  Cu110  1  0.51294657  0.84229626  0.75162019  1
  Cu  Cu111  1  0.66765268  0.33780697  -0.00014315  1
  Cu  Cu112  1  0.34773069  -0.00563531  0.01024274  1
  Cu  Cu113  1  0.33637707  0.34371320  0.50102729  1
  Cu  Cu114  1  -0.00131894  -0.00850353  -0.00096103  1
  Se  Se115  1  0.07573405  0.07631325  0.05634703  1
  Se  Se116  1  0.07769172  0.08016668  0.55134683  1
  Se  Se117  1  0.08588264  0.41773701  0.04590750  1
  Se  Se118  1  0.09036772  0.42213138  0.55355060  1
  Se  Se119  1  0.07413924  0.73772078  0.06019237  1
  Se  Se120  1  0.07395710  0.74461752  0.56517504  1
  Se  Se121  1  0.42551587  0.08645012  0.05867407  1
  Se  Se122  1  0.39763866  0.06464863  0.54773022  1
  Se  Se123  1  0.40994286  0.41319638  0.06273736  1
  Se  Se124  1  0.42548088  0.42233153  0.55427719  1
  Se  Se125  1  0.40542666  0.73540464  0.05640507  1
  Se  Se126  1  0.41495129  0.74685741  0.55783176  1
  Se  Se127  1  0.74075473  0.08315391  0.06249903  1
  Se  Se128  1  0.74110160  0.08223109  0.55518425  1
  Se  Se129  1  0.74573896  0.42211225  0.05550561  1
  Se  Se130  1  0.73141879  0.40508420  0.55721411  1
  Se  Se131  1  0.75120576  0.75220065  0.05679350  1
  Se  Se132  1  0.74866892  0.74753170  0.55410501  1
  Se  Se133  1  0.25937098  0.25199949  0.06471277  1
  Se  Se134  1  0.25680638  0.25696584  0.55539481  1
  Se  Se135  1  0.23772373  0.57028336  0.04671273  1
  Se  Se136  1  0.25489350  0.58603395  0.54859266  1
  Se  Se137  1  0.25443188  0.92095643  0.06429712  1
  Se  Se138  1  0.25373049  0.92332563  0.55419992  1
  Se  Se139  1  0.58328631  0.25266193  0.05014393  1
  Se  Se140  1  0.55309247  0.22591964  0.56344739  1
  Se  Se141  1  0.58961097  0.58806791  0.06364357  1
  Se  Se142  1  0.58130033  0.58262251  0.55361880  1
  Se  Se143  1  0.58225874  0.91386755  0.05708589  1
  Se  Se144  1  0.58874077  0.91788809  0.56261091  1
  Se  Se145  1  0.92117370  0.26126979  0.05710891  1
  Se  Se146  1  0.89306107  0.24260991  0.54584481  1
  Se  Se147  1  0.90918193  0.58275581  0.05554831  1
  Se  Se148  1  0.91981580  0.58524594  0.56452934  1
  Se  Se149  1  0.91075759  0.91252811  0.04925343  1
  Se  Se150  1  0.90542699  0.91061102  0.55029284  1
  Se  Se151  1  0.08152523  0.25259731  0.45882054  1
  Se  Se152  1  0.07313012  0.25349418  0.93738346  1
  Se  Se153  1  0.08636192  0.58453780  0.45103703  1
  Se  Se154  1  0.07761206  0.58159839  0.94317024  1
  Se  Se155  1  0.07166009  0.92021459  0.43821524  1
  Se  Se156  1  0.08161853  0.92065894  0.93543159  1
  Se  Se157  1  0.41999801  0.25815854  0.44927629  1
  Se  Se158  1  0.42236850  0.24794838  0.94734161  1
  Se  Se159  1  0.42758221  0.58721449  0.43835663  1
  Se  Se160  1  0.40876757  0.58994742  0.94002303  1
  Se  Se161  1  0.40816395  0.92133547  0.44002691  1
  Se  Se162  1  0.42422743  0.90898015  0.95410217  1
  Se  Se163  1  0.75702643  0.23636234  0.45377361  1
  Se  Se164  1  0.74360697  0.26017169  0.93361149  1
  Se  Se165  1  0.74452485  0.57742740  0.43937397  1
  Se  Se166  1  0.74572468  0.58311383  0.94816145  1
  Se  Se167  1  0.74343472  0.90994245  0.44586031  1
  Se  Se168  1  0.74918294  0.91788048  0.95037519  1
  Se  Se169  1  0.23506503  0.09992971  0.44780898  1
  Se  Se170  1  0.26738420  0.07295982  0.94686673  1
  Se  Se171  1  0.25195199  0.42611852  0.44764757  1
  Se  Se172  1  0.25099737  0.40824052  0.94497402  1
  Se  Se173  1  0.25925431  0.74709602  0.43900921  1
  Se  Se174  1  0.25513630  0.74017055  0.93955554  1
  Se  Se175  1  0.57745323  0.08262396  0.44697901  1
  Se  Se176  1  0.58706280  0.08900332  0.94731113  1
  Se  Se177  1  0.59596063  0.42638235  0.43997833  1
  Se  Se178  1  0.58733061  0.41494527  0.93576130  1
  Se  Se179  1  0.59235140  0.73809104  0.43493668  1
  Se  Se180  1  0.58092482  0.75216295  0.94991643  1
  Se  Se181  1  0.90924399  0.07868868  0.44831142  1
  Se  Se182  1  0.92153226  0.07844005  0.94157786  1
  Se  Se183  1  0.92481777  0.40678229  0.44338038  1
  Se  Se184  1  0.90567754  0.42171701  0.94240673  1
  Se  Se185  1  0.90930431  0.74506205  0.45117539  1
  Se  Se186  1  0.91216895  0.75106567  0.94736796  1
  Se  Se187  1  0.24794719  0.24762599  0.31983934  1
  Se  Se188  1  0.24978158  0.25081378  0.80248176  1
  Se  Se189  1  0.25756118  0.58622726  0.30264538  1
  Se  Se190  1  0.24041464  0.57241445  0.81276184  1
  Se  Se191  1  0.25061786  0.91744365  0.30468276  1
  Se  Se192  1  0.24770201  0.91020846  0.80327852  1
  Se  Se193  1  0.58741372  0.24910357  0.31011645  1
  Se  Se194  1  0.58480511  0.25237477  0.80165365  1
  Se  Se195  1  0.61823679  0.59882855  0.29505472  1
  Se  Se196  1  0.57853119  0.58610624  0.80073928  1
  Se  Se197  1  0.58299331  0.91566413  0.30322025  1
  Se  Se198  1  0.59069140  0.92402001  0.80983969  1
  Se  Se199  1  0.91019619  0.23745087  0.31263464  1
  Se  Se200  1  0.91717202  0.25557451  0.79279493  1
  Se  Se201  1  0.90931009  0.56641253  0.30861534  1
  Se  Se202  1  0.91035233  0.58635707  0.80425693  1
  Se  Se203  1  0.90608023  0.90972021  0.30505099  1
  Se  Se204  1  0.91422437  0.91553594  0.81208769  1
  Se  Se205  1  0.08110115  0.08929050  0.31490591  1
  Se  Se206  1  0.08996430  0.09166387  0.80300991  1
  Se  Se207  1  0.09587747  0.42322651  0.31036803  1
  Se  Se208  1  0.07310069  0.41461929  0.80264321  1
  Se  Se209  1  0.08938089  0.75632817  0.31185563  1
  Se  Se210  1  0.07837131  0.74327279  0.79499229  1
  Se  Se211  1  0.41310149  0.08342244  0.30775231  1
  Se  Se212  1  0.42466256  0.08755137  0.81172990  1
  Se  Se213  1  0.43092982  0.42389707  0.31041794  1
  Se  Se214  1  0.41308334  0.41257581  0.79919560  1
  Se  Se215  1  0.42007034  0.74342189  0.29721613  1
  Se  Se216  1  0.42522131  0.76330655  0.80808226  1
  Se  Se217  1  0.74250123  0.07741524  0.30861152  1
  Se  Se218  1  0.75511798  0.08649116  0.79836091  1
  Se  Se219  1  0.76602802  0.40477325  0.29726573  1
  Se  Se220  1  0.74453410  0.41979283  0.79939255  1
  Se  Se221  1  0.75718765  0.74450890  0.30208341  1
  Se  Se222  1  0.74624571  0.74994737  0.80972026  1
  Se  Se223  1  0.25489160  0.07937903  0.20706085  1
  Se  Se224  1  0.24959856  0.09972046  0.68538214  1
  Se  Se225  1  0.25162291  0.42029230  0.18760818  1
  Se  Se226  1  0.25157741  0.41921063  0.69704049  1
  Se  Se227  1  0.25200692  0.74408834  0.19802773  1
  Se  Se228  1  0.25099991  0.74970990  0.69042317  1
  Se  Se229  1  0.58245191  0.08506759  0.20084074  1
  Se  Se230  1  0.58514969  0.08175309  0.69886657  1
  Se  Se231  1  0.59063727  0.40774374  0.20326165  1
  Se  Se232  1  0.58444844  0.41614208  0.69715824  1
  Se  Se233  1  0.58214632  0.75130778  0.19393463  1
  Se  Se234  1  0.59040327  0.75144769  0.70042757  1
  Se  Se235  1  0.90689626  0.09052190  0.18767187  1
  Se  Se236  1  0.91570201  0.09919962  0.67661616  1
  Se  Se237  1  0.91599828  0.42398903  0.18907537  1
  Se  Se238  1  0.90734830  0.41780024  0.69231308  1
  Se  Se239  1  0.90640275  0.75458535  0.19429783  1
  Se  Se240  1  0.91275785  0.75014614  0.70099492  1
  Se  Se241  1  0.09604814  0.24386496  0.19890704  1
  Se  Se242  1  0.07827938  0.25612233  0.68902994  1
  Se  Se243  1  0.08952811  0.57718405  0.19120347  1
  Se  Se244  1  0.07938054  0.58266181  0.69748044  1
  Se  Se245  1  0.08972642  0.90642103  0.18914519  1
  Se  Se246  1  0.08947766  0.91101822  0.68869379  1
  Se  Se247  1  0.42627372  0.24687532  0.19424518  1
  Se  Se248  1  0.41315899  0.25217191  0.69753597  1
  Se  Se249  1  0.43051194  0.56718388  0.19874376  1
  Se  Se250  1  0.42047200  0.57867294  0.68680008  1
  Se  Se251  1  0.41557430  0.92035669  0.19650003  1
  Se  Se252  1  0.43458918  0.91658047  0.68642877  1
  Se  Se253  1  0.75043202  0.24657952  0.19768678  1
  Se  Se254  1  0.74354054  0.25442758  0.69455010  1
  Se  Se255  1  0.73864167  0.59189446  0.20345413  1
  Se  Se256  1  0.74174367  0.58769739  0.69671281  1
  Se  Se257  1  0.74212615  0.92188241  0.20061000  1
  Se  Se258  1  0.75427015  0.92117220  0.69908813  1
