# generated using pymatgen
data_In86Cu29Se144
_symmetry_space_group_name_H-M   'P 1'
_cell_length_a   17.57971360
_cell_length_b   17.57452481
_cell_length_c   23.43463286
_cell_angle_alpha   90.00520535
_cell_angle_beta   89.99811613
_cell_angle_gamma   90.00829196
_symmetry_Int_Tables_number   1
_chemical_formula_structural   In86Cu29Se144
_chemical_formula_sum   'In86 Cu29 Se144'
_cell_volume   7240.24952796
_cell_formula_units_Z   1
loop_
 _symmetry_equiv_pos_site_id
 _symmetry_equiv_pos_as_xyz
  1  'x, y, z'
loop_
 _atom_site_type_symbol
 _atom_site_label
 _atom_site_symmetry_multiplicity
 _atom_site_fract_x
 _atom_site_fract_y
 _atom_site_fract_z
 _atom_site_occupancy
  In  In0  1  0.01206536  0.18630411  0.10721188  1
  In  In1  1  0.01217347  0.17232044  0.62423111  1
  In  In2  1  0.01035887  0.48956141  0.11812932  1
  In  In3  1  0.01357088  0.48307076  0.63972397  1
  In  In4  1  -0.00987290  0.83054932  0.12586310  1
  In  In5  1  -0.00554550  0.83646798  0.62369493  1
  In  In6  1  0.33493946  0.18487304  0.12786406  1
  In  In7  1  0.33195942  0.16945453  0.62170519  1
  In  In8  1  0.33228841  0.50321387  0.11835521  1
  In  In9  1  0.32621876  0.51697334  0.63476204  1
  In  In10  1  0.33180050  0.80279616  0.12905132  1
  In  In11  1  0.33711458  0.81626116  0.62436498  1
  In  In12  1  0.67375696  0.15430464  0.12998073  1
  In  In13  1  0.65811393  0.17530576  0.62179219  1
  In  In14  1  0.66837313  0.51954587  0.11727510  1
  In  In15  1  0.66589820  0.50292007  0.62976194  1
  In  In16  1  0.66833634  0.82768649  0.12147232  1
  In  In17  1  0.66914991  0.83328220  0.61632192  1
  In  In18  1  0.17575247  0.00551355  0.37835369  1
  In  In19  1  0.17728625  0.00944508  0.87577466  1
  In  In20  1  0.16874144  0.33662027  0.37510728  1
  In  In21  1  0.16491238  0.33396528  0.87900970  1
  In  In22  1  0.15426282  0.65625485  0.36503202  1
  In  In23  1  0.14982564  0.65353222  0.86330434  1
  In  In24  1  0.50549010  -0.01000478  0.37833735  1
  In  In25  1  0.49271104  -0.01604996  0.87274310  1
  In  In26  1  0.47700683  0.34084338  0.37187332  1
  In  In27  1  0.49295410  0.35073099  0.87452806  1
  In  In28  1  0.50821017  0.67061959  0.36227718  1
  In  In29  1  0.49590636  0.66493527  0.88157725  1
  In  In30  1  0.81770305  -0.00066013  0.36996766  1
  In  In31  1  0.83232463  0.00075506  0.88259362  1
  In  In32  1  0.84148590  0.32257654  0.36536355  1
  In  In33  1  0.84817886  0.32830773  0.89777410  1
  In  In34  1  0.83805188  0.67272695  0.36621015  1
  In  In35  1  0.84855655  0.64563000  0.89911376  1
  In  In36  1  0.00544557  0.18088387  0.37051704  1
  In  In37  1  0.00257325  0.18026635  0.88559172  1
  In  In38  1  0.00929944  0.50880723  0.36711965  1
  In  In39  1  0.00199686  0.49883652  0.88306500  1
  In  In40  1  -0.00172769  0.80959796  0.37439977  1
  In  In41  1  0.00648124  0.81523522  0.87780933  1
  In  In42  1  0.32171677  0.17673580  0.38284067  1
  In  In43  1  0.31636309  0.17653184  0.88004571  1
  In  In44  1  0.32979366  0.48811977  0.36377485  1
  In  In45  1  0.33025331  0.49390569  0.87235748  1
  In  In46  1  0.34184903  0.83463414  0.37379383  1
  In  In47  1  0.34373202  0.82894759  0.87801591  1
  In  In48  1  0.66893464  0.15130107  0.36816289  1
  In  In49  1  0.66841269  0.17950242  0.88075963  1
  In  In50  1  0.65159080  0.51366638  0.36172718  1
  In  In51  1  0.66527979  0.50653244  0.89262480  1
  In  In52  1  0.66390466  0.83201834  0.36977485  1
  In  In53  1  0.68277422  0.80388881  0.90034779  1
  In  In54  1  0.15703685  0.00419368  0.12301831  1
  In  In55  1  0.15840470  0.00878396  0.62148658  1
  In  In56  1  0.16780360  0.33641624  0.11780713  1
  In  In57  1  0.16392325  0.33660325  0.62499453  1
  In  In58  1  0.18732487  0.65017306  0.13762862  1
  In  In59  1  0.17805202  0.65784172  0.63486089  1
  In  In60  1  0.51749930  -0.00230308  0.13231329  1
  In  In61  1  0.49659380  -0.00264513  0.61603992  1
  In  In62  1  0.48337921  0.34188170  0.13003535  1
  In  In63  1  0.49991140  0.32438715  0.62337115  1
  In  In64  1  0.49538298  0.66742016  0.11660213  1
  In  In65  1  0.48665778  0.66729304  0.62184805  1
  In  In66  1  0.82818831  -0.01116784  0.11901061  1
  In  In67  1  0.84753324  -0.00701255  0.62337997  1
  In  In68  1  0.85296610  0.35578447  0.10613731  1
  In  In69  1  0.84309340  0.34745208  0.62942278  1
  In  In70  1  0.83412423  0.66881147  0.12480664  1
  In  In71  1  0.83279344  0.67419189  0.62511346  1
  In  In72  1  0.33642920  -0.00066964  0.25951817  1
  In  In73  1  0.83686867  0.50251813  0.49797392  1
  In  In74  1  0.32978319  -0.00230262  0.74545757  1
  In  In75  1  0.66227237  -0.00716062  0.75131371  1
  In  In76  1  0.66832092  0.34135029  0.75332184  1
  In  In77  1  0.49281887  0.50175482  0.49413268  1
  In  In78  1  0.00860984  0.00166156  0.74993820  1
  In  In79  1  -0.00555506  -0.00363940  0.24309580  1
  In  In80  1  0.66676365  0.66203309  0.76424836  1
  In  In81  1  0.16715920  0.83481933  0.50200853  1
  In  In82  1  0.50683973  0.16122929  0.00805165  1
  In  In83  1  0.82893268  0.15686450  0.50127336  1
  In  In84  1  0.16831472  0.83240257  0.00334027  1
  In  In85  1  0.67163881  0.33836729  0.24285092  1
  Cu  Cu86  1  0.66080980  -0.00819141  0.49423682  1
  Cu  Cu87  1  0.66073111  0.32970980  0.49712020  1
  Cu  Cu88  1  0.32958655  0.66530891  0.50007835  1
  Cu  Cu89  1  0.32656187  0.65768545  -0.00127692  1
  Cu  Cu90  1  0.50147089  0.17291063  0.25051930  1
  Cu  Cu91  1  0.33571071  -0.00078681  0.00095720  1
  Cu  Cu92  1  0.00171997  0.00665140  0.00015130  1
  Cu  Cu93  1  0.48755604  0.16924611  0.74862711  1
  Cu  Cu94  1  0.50340916  0.83326687  0.24764691  1
  Cu  Cu95  1  0.16719465  0.48932029  0.24513025  1
  Cu  Cu96  1  0.83912641  0.50052069  0.23889744  1
  Cu  Cu97  1  0.82491338  0.83043021  0.24487910  1
  Cu  Cu98  1  0.83764296  0.17518733  0.75893694  1
  Cu  Cu99  1  0.66475779  -0.00773310  0.00238834  1
  Cu  Cu100  1  0.84370070  0.82562821  0.75209800  1
  Cu  Cu101  1  0.33210082  0.33711997  -0.00017846  1
  Cu  Cu102  1  0.32799138  0.33476793  0.50181658  1
  Cu  Cu103  1  0.84356283  0.16981035  0.24109427  1
  Cu  Cu104  1  0.50617160  0.82215722  0.75587611  1
  Cu  Cu105  1  0.66635270  0.33450565  0.00584232  1
  Cu  Cu106  1  0.00337029  0.65722795  0.49850975  1
  Cu  Cu107  1  -0.00408648  -0.00152450  0.49942298  1
  Cu  Cu108  1  0.84008558  0.50095032  0.76633297  1
  Cu  Cu109  1  0.00481830  0.66416012  0.00571602  1
  Cu  Cu110  1  0.66408894  0.67434455  0.49361471  1
  Cu  Cu111  1  0.33642929  0.00756430  0.49873036  1
  Cu  Cu112  1  0.16948587  0.17529598  0.24800102  1
  Cu  Cu113  1  0.00870615  0.33481006  0.49854925  1
  Cu  Cu114  1  0.16494779  0.49747785  0.75447727  1
  Se  Se115  1  0.09145232  0.08820924  0.04750219  1
  Se  Se116  1  0.07842041  0.08575938  0.54876816  1
  Se  Se117  1  0.06940168  0.39313850  0.04510327  1
  Se  Se118  1  0.08379529  0.42262213  0.55399211  1
  Se  Se119  1  0.08591224  0.74185398  0.06714278  1
  Se  Se120  1  0.08056809  0.74050485  0.56044293  1
  Se  Se121  1  0.41219584  0.07599464  0.06823369  1
  Se  Se122  1  0.41956253  0.09016352  0.55308525  1
  Se  Se123  1  0.41853628  0.41981958  0.05019543  1
  Se  Se124  1  0.40927185  0.41619766  0.56136196  1
  Se  Se125  1  0.40862852  0.74897551  0.04526489  1
  Se  Se126  1  0.41843019  0.75044480  0.54594663  1
  Se  Se127  1  0.74759370  0.07931708  0.05253409  1
  Se  Se128  1  0.73716197  0.06735609  0.56326263  1
  Se  Se129  1  0.74704497  0.42727377  0.05124025  1
  Se  Se130  1  0.74064712  0.40972051  0.55693323  1
  Se  Se131  1  0.76650477  0.76224298  0.05550915  1
  Se  Se132  1  0.75284609  0.74815536  0.55025095  1
  Se  Se133  1  0.25208294  0.24811944  0.05080227  1
  Se  Se134  1  0.24509972  0.25103135  0.55542229  1
  Se  Se135  1  0.23855650  0.57687884  0.04961852  1
  Se  Se136  1  0.24786476  0.58290097  0.55442864  1
  Se  Se137  1  0.25987469  0.91937420  0.06637403  1
  Se  Se138  1  0.26033629  0.92479413  0.56235921  1
  Se  Se139  1  0.58833459  0.25642518  0.06983112  1
  Se  Se140  1  0.57649854  0.24629302  0.54760901  1
  Se  Se141  1  0.58119945  0.59099145  0.04600346  1
  Se  Se142  1  0.58979618  0.58888728  0.55514641  1
  Se  Se143  1  0.57879000  0.91325506  0.05536331  1
  Se  Se144  1  0.57866230  0.91023100  0.55089609  1
  Se  Se145  1  0.89802995  0.23784284  0.05059456  1
  Se  Se146  1  0.91688658  0.25866929  0.55423820  1
  Se  Se147  1  0.92122694  0.58196650  0.05986927  1
  Se  Se148  1  0.92582499  0.58160152  0.56532393  1
  Se  Se149  1  0.92339560  0.91768689  0.05185347  1
  Se  Se150  1  0.91386899  0.91002219  0.54738314  1
  Se  Se151  1  0.08887208  0.24869681  0.44540180  1
  Se  Se152  1  0.07007059  0.27503348  0.95490559  1
  Se  Se153  1  0.08882901  0.57731613  0.44559385  1
  Se  Se154  1  0.08882638  0.58436512  0.94935508  1
  Se  Se155  1  0.07464156  0.91880965  0.43668957  1
  Se  Se156  1  0.08098465  0.92422491  0.93914006  1
  Se  Se157  1  0.41498460  0.25460402  0.44829517  1
  Se  Se158  1  0.41828958  0.25092440  0.94583493  1
  Se  Se159  1  0.40793755  0.59214845  0.43261247  1
  Se  Se160  1  0.41131090  0.57589961  0.94438638  1
  Se  Se161  1  0.41415468  0.91767525  0.44742426  1
  Se  Se162  1  0.41785481  0.91312939  0.95126560  1
  Se  Se163  1  0.74595927  0.25304124  0.43867972  1
  Se  Se164  1  0.74917931  0.24731366  0.95593799  1
  Se  Se165  1  0.74085476  0.58656664  0.43735758  1
  Se  Se166  1  0.72861707  0.60877838  0.95563630  1
  Se  Se167  1  0.74837607  0.91241856  0.44207602  1
  Se  Se168  1  0.75512275  0.91384572  0.95104019  1
  Se  Se169  1  0.24527334  0.08834469  0.45237342  1
  Se  Se170  1  0.25138921  0.08513092  0.95280395  1
  Se  Se171  1  0.25255125  0.42015916  0.44365627  1
  Se  Se172  1  0.24783086  0.41902931  0.94689015  1
  Se  Se173  1  0.24972262  0.74449171  0.43721038  1
  Se  Se174  1  0.24821255  0.74095964  0.93776698  1
  Se  Se175  1  0.58478789  0.08355583  0.44318827  1
  Se  Se176  1  0.58761097  0.07180984  0.93772584  1
  Se  Se177  1  0.58886557  0.41336755  0.43523036  1
  Se  Se178  1  0.58031613  0.41193727  0.95043355  1
  Se  Se179  1  0.57736698  0.75186737  0.43942768  1
  Se  Se180  1  0.57006184  0.74880938  0.95413421  1
  Se  Se181  1  0.92163747  0.07859602  0.43372101  1
  Se  Se182  1  0.91769787  0.08716022  0.94528548  1
  Se  Se183  1  0.92297777  0.40865062  0.43747685  1
  Se  Se184  1  0.89551320  0.44655935  0.95055239  1
  Se  Se185  1  0.91490305  0.73885676  0.44837295  1
  Se  Se186  1  0.92286073  0.75156515  0.95444245  1
  Se  Se187  1  0.25329907  0.25454418  0.30436368  1
  Se  Se188  1  0.24996700  0.25855989  0.80651554  1
  Se  Se189  1  0.24530795  0.57649732  0.30073309  1
  Se  Se190  1  0.25178026  0.58306404  0.80313706  1
  Se  Se191  1  0.23783827  0.90696904  0.30884091  1
  Se  Se192  1  0.24614379  0.90821229  0.81077886  1
  Se  Se193  1  0.58401366  0.25341961  0.31103841  1
  Se  Se194  1  0.57379162  0.24512641  0.80810973  1
  Se  Se195  1  0.57508508  0.58494798  0.28733304  1
  Se  Se196  1  0.57372853  0.56701217  0.81324806  1
  Se  Se197  1  0.58419143  0.92009870  0.30069184  1
  Se  Se198  1  0.59067283  0.89529332  0.81697351  1
  Se  Se199  1  0.92733982  0.25247543  0.29300407  1
  Se  Se200  1  0.91594359  0.25727947  0.81451000  1
  Se  Se201  1  0.91684366  0.58258810  0.30089293  1
  Se  Se202  1  0.92266266  0.58998060  0.81331707  1
  Se  Se203  1  0.90813242  0.90773954  0.30826657  1
  Se  Se204  1  0.91547181  0.91464088  0.81118060  1
  Se  Se205  1  0.09019480  0.08671868  0.30373609  1
  Se  Se206  1  0.08898610  0.09689393  0.81181642  1
  Se  Se207  1  0.08260034  0.41204743  0.30349512  1
  Se  Se208  1  0.08066142  0.41838179  0.81031477  1
  Se  Se209  1  0.08036948  0.74799998  0.29824820  1
  Se  Se210  1  0.08539423  0.75508618  0.79913192  1
  Se  Se211  1  0.42351431  0.09488944  0.31636807  1
  Se  Se212  1  0.41664417  0.08691618  0.81238139  1
  Se  Se213  1  0.43130801  0.43192390  0.29519101  1
  Se  Se214  1  0.39671296  0.39860628  0.80184335  1
  Se  Se215  1  0.41545992  0.75358299  0.30010927  1
  Se  Se216  1  0.41725408  0.74323116  0.80596422  1
  Se  Se217  1  0.75750692  0.08783593  0.29328519  1
  Se  Se218  1  0.75128545  0.09127291  0.80867879  1
  Se  Se219  1  0.76082640  0.42756423  0.30836673  1
  Se  Se220  1  0.75411541  0.42139615  0.82230574  1
  Se  Se221  1  0.74373455  0.74609641  0.30077828  1
  Se  Se222  1  0.76733176  0.74832153  0.81578441  1
  Se  Se223  1  0.24834577  0.08752102  0.19263519  1
  Se  Se224  1  0.23774483  0.09353020  0.69401971  1
  Se  Se225  1  0.25372398  0.41365254  0.18775559  1
  Se  Se226  1  0.24681072  0.42082841  0.69403616  1
  Se  Se227  1  0.24174963  0.75322337  0.20557749  1
  Se  Se228  1  0.25360951  0.75220354  0.69835849  1
  Se  Se229  1  0.58673173  0.08638782  0.20419517  1
  Se  Se230  1  0.57346228  0.08911194  0.69305391  1
  Se  Se231  1  0.58166332  0.42834981  0.18562891  1
  Se  Se232  1  0.57177778  0.42442960  0.69338779  1
  Se  Se233  1  0.57885974  0.74898440  0.18844715  1
  Se  Se234  1  0.58854143  0.75005042  0.69129083  1
  Se  Se235  1  0.91816011  0.08894934  0.17764133  1
  Se  Se236  1  0.91012407  0.09301909  0.69383026  1
  Se  Se237  1  0.92344023  0.41378885  0.19218027  1
  Se  Se238  1  0.91731303  0.41511197  0.70869481  1
  Se  Se239  1  0.91626010  0.74833668  0.19916412  1
  Se  Se240  1  0.92336575  0.74603988  0.69444764  1
  Se  Se241  1  0.08631296  0.25169055  0.18955427  1
  Se  Se242  1  0.07202824  0.26392539  0.69435578  1
  Se  Se243  1  0.08377966  0.57347612  0.19221082  1
  Se  Se244  1  0.08280368  0.58491825  0.70082452  1
  Se  Se245  1  0.09192216  0.90596151  0.19180256  1
  Se  Se246  1  0.09605721  0.90786667  0.69069178  1
  Se  Se247  1  0.41378296  0.25632440  0.20428976  1
  Se  Se248  1  0.41013851  0.25286823  0.69346248  1
  Se  Se249  1  0.39112435  0.60883833  0.18245633  1
  Se  Se250  1  0.42689438  0.58400740  0.69803762  1
  Se  Se251  1  0.41694611  0.91232573  0.19014944  1
  Se  Se252  1  0.43103305  0.90692290  0.69412488  1
  Se  Se253  1  0.76436860  0.25386309  0.18234668  1
  Se  Se254  1  0.75715827  0.24601318  0.69123641  1
  Se  Se255  1  0.75072403  0.58598878  0.19491673  1
  Se  Se256  1  0.76149594  0.57485311  0.69917834  1
  Se  Se257  1  0.74442326  0.91764392  0.19340943  1
  Se  Se258  1  0.76161180  0.90621587  0.69383473  1
