# generated using pymatgen
data_In86Cu29Se144
_symmetry_space_group_name_H-M   'P 1'
_cell_length_a   17.58130210
_cell_length_b   17.58263848
_cell_length_c   23.44043338
_cell_angle_alpha   89.98373342
_cell_angle_beta   89.99993461
_cell_angle_gamma   89.97698154
_symmetry_Int_Tables_number   1
_chemical_formula_structural   In86Cu29Se144
_chemical_formula_sum   'In86 Cu29 Se144'
_cell_volume   7246.03900191
_cell_formula_units_Z   1
loop_
 _symmetry_equiv_pos_site_id
 _symmetry_equiv_pos_as_xyz
  1  'x, y, z'
loop_
 _atom_site_type_symbol
 _atom_site_label
 _atom_site_symmetry_multiplicity
 _atom_site_fract_x
 _atom_site_fract_y
 _atom_site_fract_z
 _atom_site_occupancy
  In  In0  1  0.00711105  0.16623358  0.13753977  1
  In  In1  1  0.01555554  0.16703692  0.61943208  1
  In  In2  1  -0.01462134  0.48425717  0.12238122  1
  In  In3  1  -0.01191690  0.49034166  0.61543294  1
  In  In4  1  0.01027079  0.84100174  0.12961265  1
  In  In5  1  -0.00789286  0.84318269  0.61308625  1
  In  In6  1  0.34449107  0.16919691  0.13237451  1
  In  In7  1  0.34245178  0.17950776  0.62020639  1
  In  In8  1  0.33173803  0.48728471  0.12683166  1
  In  In9  1  0.33666974  0.49516374  0.62219578  1
  In  In10  1  0.35157686  0.84616408  0.12270699  1
  In  In11  1  0.33649100  0.81730218  0.62495310  1
  In  In12  1  0.64311725  0.16489755  0.12711231  1
  In  In13  1  0.64501654  0.16729410  0.63173903  1
  In  In14  1  0.66868900  0.50183858  0.11854885  1
  In  In15  1  0.67437663  0.50680319  0.62004909  1
  In  In16  1  0.65757114  0.84555793  0.12894009  1
  In  In17  1  0.66139263  0.83442135  0.62365791  1
  In  In18  1  0.18979318  0.02572579  0.35429358  1
  In  In19  1  0.18192788  0.00596292  0.88168476  1
  In  In20  1  0.17340963  0.33052297  0.37652328  1
  In  In21  1  0.16117067  0.32562570  0.87072865  1
  In  In22  1  0.15143984  0.65723945  0.38539599  1
  In  In23  1  0.16903838  0.64819841  0.86692083  1
  In  In24  1  0.49743077  0.00367737  0.37442480  1
  In  In25  1  0.50083030  -0.00904369  0.88392617  1
  In  In26  1  0.49784362  0.33302552  0.37578254  1
  In  In27  1  0.49110572  0.33699265  0.87885638  1
  In  In28  1  0.50014957  0.66729300  0.38228294  1
  In  In29  1  0.50282542  0.66574633  0.87042829  1
  In  In30  1  0.82866257  -0.00393424  0.37102196  1
  In  In31  1  0.81699200  0.01624537  0.87251785  1
  In  In32  1  0.84009578  0.33926488  0.37541748  1
  In  In33  1  0.85203500  0.32938707  0.87190314  1
  In  In34  1  0.84628984  0.66802047  0.39412135  1
  In  In35  1  0.81388248  0.66471415  0.87034629  1
  In  In36  1  0.02108659  0.18790281  0.35513350  1
  In  In37  1  -0.00027948  0.17919082  0.87629323  1
  In  In38  1  0.00612596  0.49831832  0.38894509  1
  In  In39  1  0.00473007  0.48200456  0.87492359  1
  In  In40  1  -0.00787273  0.83541092  0.38075465  1
  In  In41  1  0.00301820  0.83789717  0.87353872  1
  In  In42  1  0.33396201  0.17045802  0.37284105  1
  In  In43  1  0.32641816  0.17369240  0.88282373  1
  In  In44  1  0.34080238  0.48906914  0.38172532  1
  In  In45  1  0.34340667  0.50239729  0.86637309  1
  In  In46  1  0.34074939  0.84593084  0.37454524  1
  In  In47  1  0.35016830  0.83961241  0.87455048  1
  In  In48  1  0.65804399  0.15283726  0.37022427  1
  In  In49  1  0.66412139  0.15023605  0.86701295  1
  In  In50  1  0.66574480  0.50218960  0.38509638  1
  In  In51  1  0.65599351  0.50283304  0.87602210  1
  In  In52  1  0.65637113  0.84675893  0.38274298  1
  In  In53  1  0.65723653  0.82301238  0.86702757  1
  In  In54  1  0.16009843  0.02863688  0.14815995  1
  In  In55  1  0.15639058  0.00426385  0.61756659  1
  In  In56  1  0.19548501  0.29880115  0.16151399  1
  In  In57  1  0.16780616  0.33146655  0.62383194  1
  In  In58  1  0.16445623  0.66128797  0.12617083  1
  In  In59  1  0.18480269  0.66250912  0.62549690  1
  In  In60  1  0.49917821  -0.00047804  0.13175328  1
  In  In61  1  0.51176508  0.01424046  0.61623471  1
  In  In62  1  0.49200931  0.32567848  0.11171684  1
  In  In63  1  0.48644695  0.32049730  0.62060778  1
  In  In64  1  0.50446896  0.67015928  0.11725552  1
  In  In65  1  0.50082750  0.66523339  0.62203521  1
  In  In66  1  0.82642120  0.00270784  0.13607793  1
  In  In67  1  0.82975179  -0.00854991  0.61844597  1
  In  In68  1  0.83583224  0.34638562  0.12969913  1
  In  In69  1  0.83164145  0.34627876  0.62337357  1
  In  In70  1  0.83642879  0.65410483  0.12298601  1
  In  In71  1  0.82314769  0.65749978  0.61738459  1
  In  In72  1  0.66556738  0.33467079  0.74833672  1
  In  In73  1  -0.00490269  0.65825574  0.73398558  1
  In  In74  1  0.33264038  0.67069593  0.25800100  1
  In  In75  1  0.67038514  0.67023230  0.24856904  1
  In  In76  1  0.17067449  0.83744998  0.49459300  1
  In  In77  1  -0.00372616  0.66299589  0.25753397  1
  In  In78  1  0.82933588  0.16964325  -0.00437769  1
  In  In79  1  0.33815938  0.00126312  0.74924545  1
  In  In80  1  0.18185825  0.83447422  0.00797849  1
  In  In81  1  -0.00773893  0.00615045  0.74910057  1
  In  In82  1  0.83035169  0.16541338  0.48954232  1
  In  In83  1  0.82516912  0.83019006  0.00590020  1
  In  In84  1  0.66121050  0.32783618  0.25325229  1
  In  In85  1  0.16760630  0.49003352  0.00816771  1
  Cu  Cu86  1  0.17680214  0.48710169  0.74654578  1
  Cu  Cu87  1  0.33526058  0.01331409  0.00799254  1
  Cu  Cu88  1  0.16674744  0.82591823  0.74529285  1
  Cu  Cu89  1  0.65750536  -0.00207249  0.00105465  1
  Cu  Cu90  1  0.16969654  0.83661728  0.24819471  1
  Cu  Cu91  1  0.50169681  0.50214387  0.74652155  1
  Cu  Cu92  1  0.83559399  0.50093368  0.74478598  1
  Cu  Cu93  1  -0.00947250  0.66198072  -0.00215783  1
  Cu  Cu94  1  0.33890739  0.65946320  0.50072902  1
  Cu  Cu95  1  0.17068479  0.17167473  0.74890291  1
  Cu  Cu96  1  0.32878902  0.33215883  0.49905640  1
  Cu  Cu97  1  0.66057372  0.33460359  0.50438299  1
  Cu  Cu98  1  0.00455006  0.00714927  0.48848341  1
  Cu  Cu99  1  0.66673252  0.67254234  0.50259242  1
  Cu  Cu100  1  0.49695511  0.49621134  0.24922139  1
  Cu  Cu101  1  0.15976991  0.49290799  0.25761372  1
  Cu  Cu102  1  0.34131797  0.66939728  -0.00833375  1
  Cu  Cu103  1  0.33590506  0.00469051  0.49308834  1
  Cu  Cu104  1  0.33116813  0.33303521  0.00495717  1
  Cu  Cu105  1  0.00809640  0.00681042  0.00984453  1
  Cu  Cu106  1  0.00477230  0.32891067  0.00164585  1
  Cu  Cu107  1  0.65863862  0.66188753  -0.00622270  1
  Cu  Cu108  1  0.00201013  0.33164521  0.49554996  1
  Cu  Cu109  1  0.83146830  0.16551544  0.25150576  1
  Cu  Cu110  1  0.66740779  0.33831078  -0.00238263  1
  Cu  Cu111  1  0.82071139  0.83806412  0.74556067  1
  Cu  Cu112  1  0.66366186  -0.00095483  0.49601604  1
  Cu  Cu113  1  0.50369062  0.83233837  0.74796936  1
  Cu  Cu114  1  0.83078911  0.82731763  0.25819302  1
  Se  Se115  1  0.08760986  0.09105076  0.06281443  1
  Se  Se116  1  0.08790367  0.08800692  0.54289330  1
  Se  Se117  1  0.08534117  0.39832926  0.06875487  1
  Se  Se118  1  0.08324378  0.41232694  0.55369564  1
  Se  Se119  1  0.07411967  0.74192983  0.05550255  1
  Se  Se120  1  0.08974167  0.75077590  0.56317915  1
  Se  Se121  1  0.42562782  0.08909406  0.06036661  1
  Se  Se122  1  0.41503571  0.08649381  0.55237309  1
  Se  Se123  1  0.41551391  0.42395000  0.04974767  1
  Se  Se124  1  0.41736980  0.41288493  0.55091942  1
  Se  Se125  1  0.41612824  0.75221740  0.05213629  1
  Se  Se126  1  0.41966897  0.74918344  0.54995475  1
  Se  Se127  1  0.74339923  0.07709824  0.05798801  1
  Se  Se128  1  0.74022184  0.08459377  0.55654389  1
  Se  Se129  1  0.75275401  0.41514342  0.05340292  1
  Se  Se130  1  0.75012903  0.41848100  0.54942370  1
  Se  Se131  1  0.73452790  0.73734734  0.06302759  1
  Se  Se132  1  0.75090765  0.75655346  0.55500802  1
  Se  Se133  1  0.25284076  0.25205113  0.06584195  1
  Se  Se134  1  0.24644217  0.24671185  0.55242981  1
  Se  Se135  1  0.26105021  0.59311090  0.05568780  1
  Se  Se136  1  0.25237491  0.57760397  0.55128364  1
  Se  Se137  1  0.25037834  0.93648462  0.06997303  1
  Se  Se138  1  0.26119202  0.92399996  0.55985711  1
  Se  Se139  1  0.58638708  0.24944439  0.04729128  1
  Se  Se140  1  0.57928321  0.24572399  0.55243587  1
  Se  Se141  1  0.57897213  0.57840871  0.05119819  1
  Se  Se142  1  0.58459734  0.58346518  0.55257290  1
  Se  Se143  1  0.57501863  0.91521460  0.05491683  1
  Se  Se144  1  0.58060794  0.91611622  0.55137571  1
  Se  Se145  1  0.91857530  0.25158085  0.06129498  1
  Se  Se146  1  0.91778911  0.25258101  0.55561225  1
  Se  Se147  1  0.91383852  0.57424095  0.05088654  1
  Se  Se148  1  0.92686715  0.59631100  0.55527405  1
  Se  Se149  1  0.92161426  0.92373183  0.06056701  1
  Se  Se150  1  0.91776560  0.92788006  0.54200083  1
  Se  Se151  1  0.08503744  0.24719844  0.44391311  1
  Se  Se152  1  0.08873892  0.24684811  0.94843783  1
  Se  Se153  1  0.07353439  0.58867581  0.46094129  1
  Se  Se154  1  0.07859166  0.58383948  0.94402519  1
  Se  Se155  1  0.09160978  0.93021151  0.42997359  1
  Se  Se156  1  0.08250332  0.92207872  0.94772147  1
  Se  Se157  1  0.41484011  0.25097997  0.44495474  1
  Se  Se158  1  0.41570104  0.25098036  0.95067055  1
  Se  Se159  1  0.42300732  0.57642816  0.44730548  1
  Se  Se160  1  0.42024112  0.58148104  0.94001497  1
  Se  Se161  1  0.42214718  0.91680510  0.44907388  1
  Se  Se162  1  0.40958518  0.92016359  0.95497529  1
  Se  Se163  1  0.73497951  0.25833204  0.43494532  1
  Se  Se164  1  0.74163624  0.25789143  0.93242085  1
  Se  Se165  1  0.74985857  0.58547237  0.45171908  1
  Se  Se166  1  0.74777440  0.57994198  0.94497788  1
  Se  Se167  1  0.75448852  0.91816214  0.44790571  1
  Se  Se168  1  0.74180277  0.92051986  0.94094883  1
  Se  Se169  1  0.24885882  0.08734209  0.44400123  1
  Se  Se170  1  0.24671213  0.09145020  0.95572387  1
  Se  Se171  1  0.24563248  0.41919911  0.44853057  1
  Se  Se172  1  0.25519982  0.41175806  0.93832449  1
  Se  Se173  1  0.26093059  0.74072671  0.43717137  1
  Se  Se174  1  0.25204283  0.74243343  0.93403875  1
  Se  Se175  1  0.57846791  0.08585870  0.44800089  1
  Se  Se176  1  0.58207421  0.08589868  0.94556942  1
  Se  Se177  1  0.57838419  0.41608726  0.44647116  1
  Se  Se178  1  0.57885457  0.41823793  0.94575892  1
  Se  Se179  1  0.58198324  0.75306264  0.44826457  1
  Se  Se180  1  0.57890295  0.75173029  0.94385243  1
  Se  Se181  1  0.92634645  0.08828315  0.42689972  1
  Se  Se182  1  0.92476171  0.07380438  0.94201216  1
  Se  Se183  1  0.91154445  0.41715108  0.45201120  1
  Se  Se184  1  0.92024061  0.41213928  0.94911662  1
  Se  Se185  1  0.92832936  0.75487462  0.45781562  1
  Se  Se186  1  0.91703090  0.74685702  0.93832534  1
  Se  Se187  1  0.24567513  0.24767010  0.30276094  1
  Se  Se188  1  0.25464533  0.25102375  0.80444672  1
  Se  Se189  1  0.24005608  0.57854405  0.31409427  1
  Se  Se190  1  0.25527742  0.57865174  0.79593258  1
  Se  Se191  1  0.25726892  0.91525083  0.30004905  1
  Se  Se192  1  0.24246615  0.90808109  0.80762574  1
  Se  Se193  1  0.56630811  0.23474360  0.30331556  1
  Se  Se194  1  0.57661976  0.24805837  0.81008993  1
  Se  Se195  1  0.57753252  0.57738671  0.30734340  1
  Se  Se196  1  0.58637095  0.58439810  0.79981723  1
  Se  Se197  1  0.59312786  0.93069521  0.30745854  1
  Se  Se198  1  0.57918548  0.91899382  0.80596196  1
  Se  Se199  1  0.90973050  0.25516121  0.30152311  1
  Se  Se200  1  0.91526183  0.23943199  0.80018019  1
  Se  Se201  1  0.90846266  0.57512654  0.31738839  1
  Se  Se202  1  0.91544577  0.57795561  0.81053318  1
  Se  Se203  1  0.91740804  0.91273392  0.30514423  1
  Se  Se204  1  0.90264392  0.91124006  0.80972979  1
  Se  Se205  1  0.07343233  0.07451740  0.29818510  1
  Se  Se206  1  0.09382298  0.08564133  0.80946224  1
  Se  Se207  1  0.07861737  0.41535899  0.31532596  1
  Se  Se208  1  0.08534267  0.41242071  0.79969997  1
  Se  Se209  1  0.09230385  0.75630140  0.31025872  1
  Se  Se210  1  0.08235716  0.74762016  0.80422324  1
  Se  Se211  1  0.40015102  0.07021328  0.30698906  1
  Se  Se212  1  0.41801936  0.08583746  0.81790175  1
  Se  Se213  1  0.41560949  0.41443680  0.30427466  1
  Se  Se214  1  0.42137307  0.41446742  0.79893014  1
  Se  Se215  1  0.43137637  0.75959127  0.30803605  1
  Se  Se216  1  0.41830548  0.75185088  0.80286888  1
  Se  Se217  1  0.74808968  0.08064095  0.30178818  1
  Se  Se218  1  0.75307137  0.08904018  0.79231964  1
  Se  Se219  1  0.74825136  0.42409642  0.30944827  1
  Se  Se220  1  0.75808344  0.42239258  0.81006039  1
  Se  Se221  1  0.75538483  0.74887609  0.32077435  1
  Se  Se222  1  0.74355063  0.74730150  0.79640888  1
  Se  Se223  1  0.26272576  0.09355835  0.20775414  1
  Se  Se224  1  0.24275746  0.08546080  0.68805227  1
  Se  Se225  1  0.25452817  0.42083040  0.20582880  1
  Se  Se226  1  0.25992313  0.40619780  0.69187498  1
  Se  Se227  1  0.24658826  0.75534142  0.18766441  1
  Se  Se228  1  0.25693563  0.74383199  0.70071167  1
  Se  Se229  1  0.60003792  0.06480010  0.19858168  1
  Se  Se230  1  0.57636616  0.07878251  0.70179652  1
  Se  Se231  1  0.57982847  0.42083024  0.18810726  1
  Se  Se232  1  0.57812333  0.42101382  0.68366712  1
  Se  Se233  1  0.57153609  0.75713702  0.19599220  1
  Se  Se234  1  0.58344068  0.74725732  0.69290645  1
  Se  Se235  1  0.91658656  0.08159321  0.19953657  1
  Se  Se236  1  0.91146007  0.09078159  0.68083283  1
  Se  Se237  1  0.91585063  0.41777417  0.20430672  1
  Se  Se238  1  0.91977033  0.41489820  0.69655151  1
  Se  Se239  1  0.90969696  0.75434213  0.19066848  1
  Se  Se240  1  0.90776365  0.76261323  0.68666269  1
  Se  Se241  1  0.06348380  0.27045362  0.20218435  1
  Se  Se242  1  0.08303922  0.25022078  0.69525207  1
  Se  Se243  1  0.08475412  0.57293613  0.19372016  1
  Se  Se244  1  0.09441364  0.56746179  0.68583988  1
  Se  Se245  1  0.08233076  0.92224709  0.20198863  1
  Se  Se246  1  0.08534159  0.90986432  0.69140173  1
  Se  Se247  1  0.42450360  0.26302329  0.19503957  1
  Se  Se248  1  0.42176148  0.24150219  0.69941322  1
  Se  Se249  1  0.41989768  0.58303239  0.19105309  1
  Se  Se250  1  0.41664253  0.58277105  0.69091816  1
  Se  Se251  1  0.41390254  0.92125113  0.20244534  1
  Se  Se252  1  0.42343012  0.91125752  0.68630299  1
  Se  Se253  1  0.75175506  0.24176293  0.18670217  1
  Se  Se254  1  0.75398256  0.24662172  0.68543571  1
  Se  Se255  1  0.75880657  0.57092807  0.19656473  1
  Se  Se256  1  0.74941905  0.58516746  0.69668534  1
  Se  Se257  1  0.75089715  0.90852940  0.19979813  1
  Se  Se258  1  0.74239331  0.92360018  0.69166870  1
