# generated using pymatgen
data_In86Cu29Se144
_symmetry_space_group_name_H-M   'P 1'
_cell_length_a   17.57107958
_cell_length_b   17.57419097
_cell_length_c   23.42115307
_cell_angle_alpha   89.99919843
_cell_angle_beta   90.00665550
_cell_angle_gamma   90.00448968
_symmetry_Int_Tables_number   1
_chemical_formula_structural   In86Cu29Se144
_chemical_formula_sum   'In86 Cu29 Se144'
_cell_volume   7232.39363169
_cell_formula_units_Z   1
loop_
 _symmetry_equiv_pos_site_id
 _symmetry_equiv_pos_as_xyz
  1  'x, y, z'
loop_
 _atom_site_type_symbol
 _atom_site_label
 _atom_site_symmetry_multiplicity
 _atom_site_fract_x
 _atom_site_fract_y
 _atom_site_fract_z
 _atom_site_occupancy
  In  In0  1  0.00745321  0.18005436  0.12077467  1
  In  In1  1  0.01036014  0.15774884  0.63124174  1
  In  In2  1  0.00011453  0.49899222  0.12316997  1
  In  In3  1  -0.00469433  0.50671387  0.63670814  1
  In  In4  1  0.00643195  0.82042676  0.12100167  1
  In  In5  1  0.00335525  0.83150488  0.63674818  1
  In  In6  1  0.33216273  0.16912247  0.11692648  1
  In  In7  1  0.32011961  0.17611901  0.63805324  1
  In  In8  1  0.31204039  0.49706253  0.11778507  1
  In  In9  1  0.32480582  0.50292636  0.64484360  1
  In  In10  1  0.33040078  0.83356055  0.10136280  1
  In  In11  1  0.34199165  0.82839576  0.63481760  1
  In  In12  1  0.66560599  0.16941545  0.11123590  1
  In  In13  1  0.65703179  0.16644334  0.62983588  1
  In  In14  1  0.68966705  0.49961931  0.12712357  1
  In  In15  1  0.68548525  0.49935890  0.62413606  1
  In  In16  1  0.65603251  0.82895054  0.12360141  1
  In  In17  1  0.65718257  0.84280611  0.63355763  1
  In  In18  1  0.17757159  -0.00008434  0.37589550  1
  In  In19  1  0.16943055  0.00616726  0.88287403  1
  In  In20  1  0.15880488  0.32222292  0.36386731  1
  In  In21  1  0.15827254  0.33385045  0.87563180  1
  In  In22  1  0.13921899  0.66706030  0.36749186  1
  In  In23  1  0.16850997  0.66527610  0.87044674  1
  In  In24  1  0.48624178  -0.00097371  0.38231275  1
  In  In25  1  0.49356167  -0.00208445  0.87955658  1
  In  In26  1  0.49324368  0.33847571  0.36786494  1
  In  In27  1  0.48347245  0.32995416  0.87390306  1
  In  In28  1  0.50994631  0.66615854  0.37814348  1
  In  In29  1  0.50127460  0.67614844  0.87436300  1
  In  In30  1  0.82679123  0.00490180  0.37016516  1
  In  In31  1  0.84451331  0.00863288  0.86724863  1
  In  In32  1  0.84580218  0.33222329  0.37379707  1
  In  In33  1  0.84735391  0.32343961  0.88419331  1
  In  In34  1  0.82542675  0.65246444  0.36408216  1
  In  In35  1  0.83005501  0.66140556  0.87348398  1
  In  In36  1  0.00415673  0.18330218  0.36747757  1
  In  In37  1  0.00264607  0.16973640  0.87868406  1
  In  In38  1  -0.01029977  0.48741551  0.36614281  1
  In  In39  1  0.00558119  0.49505519  0.87244554  1
  In  In40  1  0.00403676  0.80898203  0.36983895  1
  In  In41  1  0.01305054  0.84643186  0.86993624  1
  In  In42  1  0.32305445  0.16050222  0.37438448  1
  In  In43  1  0.32510140  0.16241367  0.88373128  1
  In  In44  1  0.34055511  0.49053371  0.36968529  1
  In  In45  1  0.30534855  0.48098837  0.85195478  1
  In  In46  1  0.33263287  0.84259385  0.37870382  1
  In  In47  1  0.33544458  0.84010151  0.88037757  1
  In  In48  1  0.67579980  0.16382658  0.36939172  1
  In  In49  1  0.67629297  0.15766655  0.87970331  1
  In  In50  1  0.66283271  0.51007578  0.37597991  1
  In  In51  1  0.67261475  0.51609940  0.87440703  1
  In  In52  1  0.67246104  0.82144871  0.38106606  1
  In  In53  1  0.65472436  0.82646054  0.87090819  1
  In  In54  1  0.17396779  0.00753773  0.10787198  1
  In  In55  1  0.15873450  0.00989050  0.63611616  1
  In  In56  1  0.15838728  0.33108459  0.12675095  1
  In  In57  1  0.17476844  0.32664149  0.63533860  1
  In  In58  1  0.16414146  0.66045306  0.11238267  1
  In  In59  1  0.16107684  0.66788494  0.64374758  1
  In  In60  1  0.48948790  -0.00501407  0.10438792  1
  In  In61  1  0.50472669  -0.00827451  0.63651779  1
  In  In62  1  0.49532750  0.31958907  0.11876349  1
  In  In63  1  0.49572383  0.32599753  0.62903282  1
  In  In64  1  0.50048552  0.67682594  0.12246142  1
  In  In65  1  0.48906832  0.67736898  0.63317413  1
  In  In66  1  0.82717855  0.00499616  0.11778124  1
  In  In67  1  0.83431112  -0.00172039  0.63808284  1
  In  In68  1  0.84438208  0.34559562  0.11993648  1
  In  In69  1  0.83256571  0.35246867  0.61868869  1
  In  In70  1  0.85305279  0.64401228  0.14126221  1
  In  In71  1  0.84251101  0.65656180  0.63491956  1
  In  In72  1  0.82994909  0.82911249  -0.00164485  1
  In  In73  1  0.17251435  0.49571539  0.50961523  1
  In  In74  1  0.49781975  0.16637034  0.51321764  1
  In  In75  1  0.32681313  -0.00030080  0.23311340  1
  In  In76  1  0.66243839  -0.00214114  0.25127614  1
  In  In77  1  0.32681488  0.66296445  0.24228871  1
  In  In78  1  0.16602319  0.83036462  0.50137352  1
  In  In79  1  0.67183898  0.33612800  0.24675033  1
  In  In80  1  0.83358470  0.83215007  0.51336787  1
  In  In81  1  0.66685688  0.33408831  0.74617629  1
  In  In82  1  0.50215682  0.49779641  0.50213666  1
  In  In83  1  0.00478107  -0.00104029  0.24190225  1
  In  In84  1  0.83735632  0.17142211  0.49545189  1
  In  In85  1  0.49867643  0.50623413  -0.01085803  1
  Cu  Cu86  1  0.16600240  0.16435080  0.76017729  1
  Cu  Cu87  1  0.84127756  0.17077437  0.75544876  1
  Cu  Cu88  1  0.66168866  0.00206970  0.50878846  1
  Cu  Cu89  1  0.83674666  0.49691948  0.75351722  1
  Cu  Cu90  1  0.32457418  0.33524925  -0.00497165  1
  Cu  Cu91  1  0.82891364  0.82890329  0.75500846  1
  Cu  Cu92  1  0.83564407  0.82743174  0.25030743  1
  Cu  Cu93  1  0.16841475  0.83910097  0.75927106  1
  Cu  Cu94  1  0.66492036  0.66780271  0.50047481  1
  Cu  Cu95  1  0.49623190  0.16095090  0.75432834  1
  Cu  Cu96  1  0.50202491  0.50827477  0.75698430  1
  Cu  Cu97  1  0.49950281  0.82864436  0.24892005  1
  Cu  Cu98  1  0.33306195  0.67396110  0.50533082  1
  Cu  Cu99  1  0.66755830  0.33489091  -0.00067183  1
  Cu  Cu100  1  -0.00125314  0.00713731  -0.00571992  1
  Cu  Cu101  1  0.33160403  -0.00275129  0.50536652  1
  Cu  Cu102  1  -0.00823691  0.65569073  0.50397674  1
  Cu  Cu103  1  0.49900877  0.49702718  0.24649899  1
  Cu  Cu104  1  0.33131592  0.66276823  -0.01065832  1
  Cu  Cu105  1  0.49759382  0.16241871  0.23819710  1
  Cu  Cu106  1  0.01018997  0.00604695  0.50167768  1
  Cu  Cu107  1  0.66576754  -0.00052993  -0.00565324  1
  Cu  Cu108  1  0.49689815  0.83993531  0.75609193  1
  Cu  Cu109  1  0.67593440  0.66285415  0.00087497  1
  Cu  Cu110  1  0.00490755  0.66383637  -0.00334186  1
  Cu  Cu111  1  0.16197583  0.49723103  0.24341958  1
  Cu  Cu112  1  0.32981686  0.32806714  0.50504089  1
  Cu  Cu113  1  0.00529257  0.33485367  0.49637223  1
  Cu  Cu114  1  0.00431181  0.33725071  0.00017827  1
  Se  Se115  1  0.07978267  0.09089420  0.04971521  1
  Se  Se116  1  0.09282567  0.08756981  0.55474526  1
  Se  Se117  1  0.08695715  0.42069546  0.05449711  1
  Se  Se118  1  0.07763641  0.40900694  0.56624769  1
  Se  Se119  1  0.08839417  0.75276055  0.04451557  1
  Se  Se120  1  0.07481528  0.73818720  0.56116634  1
  Se  Se121  1  0.41434378  0.09103903  0.04592631  1
  Se  Se122  1  0.40645169  0.07701429  0.57028678  1
  Se  Se123  1  0.41139825  0.41520155  0.05316923  1
  Se  Se124  1  0.40462272  0.41478326  0.56374619  1
  Se  Se125  1  0.41807268  0.74106940  0.04455947  1
  Se  Se126  1  0.41808227  0.75671330  0.55545353  1
  Se  Se127  1  0.75001975  0.08406115  0.04539167  1
  Se  Se128  1  0.74950135  0.08104528  0.56187499  1
  Se  Se129  1  0.75325332  0.41867758  0.04860975  1
  Se  Se130  1  0.74695388  0.41904069  0.54589245  1
  Se  Se131  1  0.75278216  0.73958974  0.06657158  1
  Se  Se132  1  0.74143568  0.74137333  0.56890129  1
  Se  Se133  1  0.24423318  0.25499556  0.05410503  1
  Se  Se134  1  0.24557029  0.24620779  0.55767625  1
  Se  Se135  1  0.24639422  0.57967121  0.04157953  1
  Se  Se136  1  0.25635783  0.59554746  0.56708373  1
  Se  Se137  1  0.26360830  0.93412553  0.03895463  1
  Se  Se138  1  0.24967453  0.91846815  0.56628818  1
  Se  Se139  1  0.57879358  0.24985173  0.04440656  1
  Se  Se140  1  0.59589486  0.26488853  0.55685435  1
  Se  Se141  1  0.58989178  0.58305979  0.05955290  1
  Se  Se142  1  0.58492678  0.59065480  0.56454227  1
  Se  Se143  1  0.58736175  0.91210046  0.04838306  1
  Se  Se144  1  0.57779349  0.91666856  0.55721428  1
  Se  Se145  1  0.91703931  0.25414885  0.05126027  1
  Se  Se146  1  0.92657974  0.25437241  0.56070775  1
  Se  Se147  1  0.91884822  0.58606786  0.05281124  1
  Se  Se148  1  0.91107374  0.57308611  0.55872842  1
  Se  Se149  1  0.92406458  0.92152609  0.05629307  1
  Se  Se150  1  0.93015312  0.92780740  0.56262129  1
  Se  Se151  1  0.08705183  0.24919962  0.44481756  1
  Se  Se152  1  0.08643501  0.24855140  0.94985808  1
  Se  Se153  1  0.07865525  0.57914607  0.44635178  1
  Se  Se154  1  0.08686583  0.58195942  0.94103204  1
  Se  Se155  1  0.07499484  0.91700849  0.43745714  1
  Se  Se156  1  0.08422635  0.91855143  0.94950578  1
  Se  Se157  1  0.41416523  0.25284504  0.44394382  1
  Se  Se158  1  0.41281377  0.25023156  0.94905400  1
  Se  Se159  1  0.40697572  0.58887875  0.44317639  1
  Se  Se160  1  0.40254960  0.57989978  0.92522643  1
  Se  Se161  1  0.41527517  0.91279402  0.45440710  1
  Se  Se162  1  0.43458704  0.90000859  0.94980615  1
  Se  Se163  1  0.74096921  0.25913700  0.43983814  1
  Se  Se164  1  0.75129298  0.24894562  0.94725188  1
  Se  Se165  1  0.74888490  0.58723563  0.44609929  1
  Se  Se166  1  0.75964771  0.57886505  0.95073247  1
  Se  Se167  1  0.74627639  0.92569605  0.44789647  1
  Se  Se168  1  0.74795002  0.92055052  0.93394388  1
  Se  Se169  1  0.25089613  0.08081095  0.45058350  1
  Se  Se170  1  0.25868950  0.07194791  0.95801294  1
  Se  Se171  1  0.25497387  0.40888491  0.44107343  1
  Se  Se172  1  0.24460060  0.42112390  0.94215142  1
  Se  Se173  1  0.25004772  0.73814570  0.43665299  1
  Se  Se174  1  0.24646399  0.75112286  0.94207774  1
  Se  Se175  1  0.58856901  0.08193849  0.44287736  1
  Se  Se176  1  0.58072893  0.08556712  0.94492096  1
  Se  Se177  1  0.58670412  0.40674223  0.43928557  1
  Se  Se178  1  0.59044492  0.41085195  0.93316643  1
  Se  Se179  1  0.58024499  0.75348113  0.45113957  1
  Se  Se180  1  0.58898532  0.74406230  0.94949506  1
  Se  Se181  1  0.92656974  0.07660353  0.43731927  1
  Se  Se182  1  0.91102262  0.08928815  0.94535357  1
  Se  Se183  1  0.91768658  0.41732873  0.44754532  1
  Se  Se184  1  0.92034983  0.42092118  0.94702935  1
  Se  Se185  1  0.91518723  0.74303302  0.44652915  1
  Se  Se186  1  0.92603357  0.74831646  0.93695913  1
  Se  Se187  1  0.26622893  0.25776936  0.30638656  1
  Se  Se188  1  0.24963999  0.24832892  0.81254132  1
  Se  Se189  1  0.23948098  0.57523634  0.30970861  1
  Se  Se190  1  0.25639031  0.59663052  0.79676992  1
  Se  Se191  1  0.24505209  0.90766422  0.30130819  1
  Se  Se192  1  0.25080673  0.92299285  0.81177234  1
  Se  Se193  1  0.57593260  0.23906539  0.30322959  1
  Se  Se194  1  0.58079125  0.24514576  0.81036115  1
  Se  Se195  1  0.57641798  0.58102442  0.30292458  1
  Se  Se196  1  0.58669091  0.59240567  0.80578680  1
  Se  Se197  1  0.57289466  0.90906972  0.31415117  1
  Se  Se198  1  0.58283087  0.92362561  0.80690966  1
  Se  Se199  1  0.90914690  0.24611537  0.29969492  1
  Se  Se200  1  0.92515877  0.25493527  0.80555710  1
  Se  Se201  1  0.95010966  0.61219292  0.31579859  1
  Se  Se202  1  0.91815720  0.58202688  0.80689432  1
  Se  Se203  1  0.91336953  0.91066387  0.31018137  1
  Se  Se204  1  0.91706696  0.91475092  0.80166211  1
  Se  Se205  1  0.09212381  0.08525436  0.30815548  1
  Se  Se206  1  0.08122768  0.07993905  0.81142540  1
  Se  Se207  1  0.08041968  0.41353317  0.29941948  1
  Se  Se208  1  0.08782445  0.41787131  0.80055785  1
  Se  Se209  1  0.09952478  0.76678964  0.29341000  1
  Se  Se210  1  0.08117614  0.74988063  0.80334565  1
  Se  Se211  1  0.42099109  0.08148304  0.30156400  1
  Se  Se212  1  0.41163151  0.08433080  0.81172111  1
  Se  Se213  1  0.41270785  0.41150162  0.29335023  1
  Se  Se214  1  0.41866576  0.41501393  0.79861492  1
  Se  Se215  1  0.41576483  0.75112969  0.30932413  1
  Se  Se216  1  0.41318685  0.75488605  0.80712709  1
  Se  Se217  1  0.76372838  0.09583612  0.29339686  1
  Se  Se218  1  0.75190844  0.08607376  0.80086572  1
  Se  Se219  1  0.75503463  0.42531054  0.31102716  1
  Se  Se220  1  0.75558124  0.41562764  0.81296793  1
  Se  Se221  1  0.74695556  0.74960621  0.30356542  1
  Se  Se222  1  0.74542528  0.74518978  0.80666030  1
  Se  Se223  1  0.23380339  0.09832075  0.18844338  1
  Se  Se224  1  0.25038949  0.08155408  0.70534916  1
  Se  Se225  1  0.24857493  0.41385325  0.19440623  1
  Se  Se226  1  0.24785161  0.41196304  0.70658748  1
  Se  Se227  1  0.24891439  0.75653976  0.17863077  1
  Se  Se228  1  0.24920459  0.75610189  0.70240788  1
  Se  Se229  1  0.57713828  0.08024827  0.18122452  1
  Se  Se230  1  0.58505175  0.08277808  0.70164462  1
  Se  Se231  1  0.57766010  0.41958732  0.18267909  1
  Se  Se232  1  0.57582584  0.42949679  0.68918418  1
  Se  Se233  1  0.58462518  0.74519578  0.19864324  1
  Se  Se234  1  0.57867750  0.75472350  0.70074578  1
  Se  Se235  1  0.91258001  0.08823955  0.18524318  1
  Se  Se236  1  0.92113482  0.08294644  0.70052353  1
  Se  Se237  1  0.90200814  0.43844989  0.19357508  1
  Se  Se238  1  0.91495408  0.41094467  0.69848319  1
  Se  Se239  1  0.92409978  0.75135802  0.19656547  1
  Se  Se240  1  0.91668210  0.74866453  0.70120089  1
  Se  Se241  1  0.07029218  0.26105110  0.19939749  1
  Se  Se242  1  0.08537626  0.24540894  0.70074755  1
  Se  Se243  1  0.08700002  0.58654862  0.18922939  1
  Se  Se244  1  0.08710589  0.57396163  0.70556351  1
  Se  Se245  1  0.09649653  0.91556228  0.17958559  1
  Se  Se246  1  0.08232713  0.91900806  0.70275977  1
  Se  Se247  1  0.41141603  0.24843087  0.19213904  1
  Se  Se248  1  0.41694202  0.25060204  0.70223786  1
  Se  Se249  1  0.41878775  0.57323231  0.18215334  1
  Se  Se250  1  0.41538470  0.58954199  0.70343500  1
  Se  Se251  1  0.42331404  0.90356612  0.18351696  1
  Se  Se252  1  0.41021882  0.92268356  0.70413670  1
  Se  Se253  1  0.75402258  0.24706343  0.18197077  1
  Se  Se254  1  0.76235350  0.24476367  0.68803592  1
  Se  Se255  1  0.74514220  0.58795090  0.20329183  1
  Se  Se256  1  0.75020955  0.58064079  0.70229416  1
  Se  Se257  1  0.75657725  0.90855433  0.19089508  1
  Se  Se258  1  0.74745985  0.91656503  0.70234886  1
