# generated using pymatgen
data_In86Cu29Se144
_symmetry_space_group_name_H-M   'P 1'
_cell_length_a   17.53839639
_cell_length_b   17.53794122
_cell_length_c   23.37826126
_cell_angle_alpha   90.00500895
_cell_angle_beta   89.98181268
_cell_angle_gamma   90.03081803
_symmetry_Int_Tables_number   1
_chemical_formula_structural   In86Cu29Se144
_chemical_formula_sum   'In86 Cu29 Se144'
_cell_volume   7190.85634988
_cell_formula_units_Z   1
loop_
 _symmetry_equiv_pos_site_id
 _symmetry_equiv_pos_as_xyz
  1  'x, y, z'
loop_
 _atom_site_type_symbol
 _atom_site_label
 _atom_site_symmetry_multiplicity
 _atom_site_fract_x
 _atom_site_fract_y
 _atom_site_fract_z
 _atom_site_occupancy
  In  In0  1  0.01108793  0.17399965  0.10848450  1
  In  In1  1  -0.01136277  0.17695060  0.64249498  1
  In  In2  1  -0.01031917  0.49667202  0.10883517  1
  In  In3  1  -0.00777410  0.50795832  0.63627861  1
  In  In4  1  0.00337449  0.82596361  0.09632996  1
  In  In5  1  0.01332209  0.82557563  0.63992387  1
  In  In6  1  0.33961700  0.17745305  0.11542262  1
  In  In7  1  0.33016091  0.17598551  0.62812136  1
  In  In8  1  0.32406473  0.50143657  0.11862976  1
  In  In9  1  0.34998651  0.50863771  0.63374477  1
  In  In10  1  0.32426758  0.81362537  0.10732949  1
  In  In11  1  0.32696531  0.82363367  0.62491276  1
  In  In12  1  0.65724962  0.16421634  0.11304185  1
  In  In13  1  0.68272312  0.15636569  0.62894503  1
  In  In14  1  0.67434389  0.49173459  0.10743125  1
  In  In15  1  0.66817876  0.48101450  0.63580172  1
  In  In16  1  0.66552016  0.84072063  0.11881712  1
  In  In17  1  0.66051156  0.85107606  0.62348181  1
  In  In18  1  0.15346268  -0.00587721  0.37771655  1
  In  In19  1  0.14338932  0.01388394  0.89825334  1
  In  In20  1  0.16361764  0.34185149  0.35059157  1
  In  In21  1  0.15549640  0.34597499  0.88172171  1
  In  In22  1  0.17951152  0.66650992  0.37083903  1
  In  In23  1  0.16563855  0.66736409  0.88627956  1
  In  In24  1  0.49950505  -0.01555709  0.36832078  1
  In  In25  1  0.49732343  0.00690652  0.87894699  1
  In  In26  1  0.49611525  0.34826243  0.37023619  1
  In  In27  1  0.51696413  0.32231739  0.89031760  1
  In  In28  1  0.49419225  0.67525076  0.37054898  1
  In  In29  1  0.48524433  0.67216917  0.88958247  1
  In  In30  1  0.83853351  0.01624308  0.37300840  1
  In  In31  1  0.85350569  -0.00759933  0.89123106  1
  In  In32  1  0.83772426  0.32501811  0.37758537  1
  In  In33  1  0.83067116  0.32620702  0.87843400  1
  In  In34  1  0.82169619  0.66029260  0.37779444  1
  In  In35  1  0.86490122  0.64835165  0.89822915  1
  In  In36  1  -0.00970432  0.16683215  0.37215893  1
  In  In37  1  -0.00558792  0.16707328  0.88035213  1
  In  In38  1  -0.00241712  0.48553205  0.37093766  1
  In  In39  1  0.00528401  0.50096881  0.87494552  1
  In  In40  1  0.00345786  0.84676823  0.38028599  1
  In  In41  1  0.00269338  0.83220703  0.88604965  1
  In  In42  1  0.31917262  0.17239458  0.36913745  1
  In  In43  1  0.33851749  0.16146389  0.88302500  1
  In  In44  1  0.32773055  0.50577730  0.35092609  1
  In  In45  1  0.32380956  0.51521933  0.89123198  1
  In  In46  1  0.33543459  0.82664819  0.37422589  1
  In  In47  1  0.33192881  0.81788993  0.88892264  1
  In  In48  1  0.68269960  0.16973297  0.37086481  1
  In  In49  1  0.66053782  0.18568995  0.88520566  1
  In  In50  1  0.67138009  0.50966753  0.37734757  1
  In  In51  1  0.67975622  0.47584359  0.89402051  1
  In  In52  1  0.65010349  0.82877421  0.37020983  1
  In  In53  1  0.67119161  0.83763548  0.87816486  1
  In  In54  1  0.15140280  -0.00356911  0.10817546  1
  In  In55  1  0.17579028  -0.01646657  0.63386859  1
  In  In56  1  0.16721265  0.33803371  0.11787865  1
  In  In57  1  0.16127453  0.31948300  0.63002635  1
  In  In58  1  0.17142029  0.67063589  0.10626501  1
  In  In59  1  0.16230787  0.67513994  0.63805846  1
  In  In60  1  0.50677241  0.00638892  0.11884378  1
  In  In61  1  0.52113775  -0.01093213  0.62567850  1
  In  In62  1  0.49593644  0.32013108  0.11295725  1
  In  In63  1  0.50073836  0.34678825  0.63712758  1
  In  In64  1  0.47374858  0.64981641  0.10193202  1
  In  In65  1  0.48484338  0.66755502  0.63461842  1
  In  In66  1  0.83103463  -0.01116799  0.11270287  1
  In  In67  1  0.82742858  0.01274802  0.62976885  1
  In  In68  1  0.83897079  0.34575030  0.11047454  1
  In  In69  1  0.83633719  0.32921449  0.63093571  1
  In  In70  1  0.83878678  0.66185938  0.10552659  1
  In  In71  1  0.85091913  0.66505937  0.63056036  1
  In  In72  1  0.50627579  0.50572805  0.49710373  1
  In  In73  1  0.00240682  0.00638830  0.24171440  1
  In  In74  1  0.33462483  0.00130846  0.23909192  1
  In  In75  1  0.65967814  0.66511984  0.24212536  1
  In  In76  1  0.66857824  0.66357722  0.76406322  1
  In  In77  1  0.32764683  0.34544013  0.75749508  1
  In  In78  1  0.67372858  0.00899344  0.75543125  1
  In  In79  1  0.32922149  -0.00470109  0.76640052  1
  In  In80  1  0.66470441  0.33161059  0.24077829  1
  In  In81  1  0.00537291  0.66544274  0.23276716  1
  In  In82  1  0.15255473  0.15639120  0.49259741  1
  In  In83  1  0.50764640  0.15672686  0.50540784  1
  In  In84  1  0.83188209  0.83540838  0.50164425  1
  In  In85  1  0.16370208  0.50377573  0.49990230  1
  Cu  Cu86  1  -0.00771188  0.33253459  0.50205727  1
  Cu  Cu87  1  0.49155742  0.82852148  0.75346913  1
  Cu  Cu88  1  0.17055935  0.17739968  0.23522059  1
  Cu  Cu89  1  0.00499623  0.66574516  0.50909455  1
  Cu  Cu90  1  0.49817063  0.50275459  0.76891678  1
  Cu  Cu91  1  0.66729670  0.00574101  -0.00361124  1
  Cu  Cu92  1  0.16988018  0.82635209  0.24119505  1
  Cu  Cu93  1  0.16552867  0.83114888  0.76398683  1
  Cu  Cu94  1  0.84656974  0.83116937  0.76201802  1
  Cu  Cu95  1  0.83431946  0.49378511  0.76270948  1
  Cu  Cu96  1  0.00317935  0.33394236  -0.00762933  1
  Cu  Cu97  1  0.83694813  0.17143445  0.24469375  1
  Cu  Cu98  1  0.33889916  -0.01531818  0.50363734  1
  Cu  Cu99  1  0.15934661  0.16439171  0.76314194  1
  Cu  Cu100  1  0.67995971  0.32466433  0.50882981  1
  Cu  Cu101  1  0.83845352  0.49631323  0.24153137  1
  Cu  Cu102  1  0.66671323  0.67522947  -0.00366088  1
  Cu  Cu103  1  0.50286635  0.16365097  0.24022783  1
  Cu  Cu104  1  0.32808052  0.33340611  -0.00082818  1
  Cu  Cu105  1  0.67021695  0.66184282  0.50469800  1
  Cu  Cu106  1  0.16779462  0.50708959  0.76029416  1
  Cu  Cu107  1  0.00206264  -0.00188888  0.51016680  1
  Cu  Cu108  1  0.33059049  0.33645120  0.48913197  1
  Cu  Cu109  1  0.33282374  0.67335315  0.50144085  1
  Cu  Cu110  1  0.82801957  0.83966920  0.23699118  1
  Cu  Cu111  1  0.48636029  0.50091864  0.23573203  1
  Cu  Cu112  1  0.33540939  -0.00132055  0.00173542  1
  Cu  Cu113  1  0.83141309  0.16652522  0.75983096  1
  Cu  Cu114  1  0.49739872  0.82979804  0.24270309  1
  Se  Se115  1  0.07015694  0.07507545  0.03843271  1
  Se  Se116  1  0.08052460  0.07920731  0.57287935  1
  Se  Se117  1  0.08538437  0.41839700  0.04636814  1
  Se  Se118  1  0.07739972  0.40954276  0.56189145  1
  Se  Se119  1  0.06739937  0.72049797  0.03666345  1
  Se  Se120  1  0.08699914  0.75090759  0.56032442  1
  Se  Se121  1  0.42011470  0.08664962  0.05109249  1
  Se  Se122  1  0.40812513  0.07202392  0.56674491  1
  Se  Se123  1  0.41222941  0.41472598  0.05429874  1
  Se  Se124  1  0.41075367  0.41161642  0.55529517  1
  Se  Se125  1  0.43841985  0.77123474  0.04547132  1
  Se  Se126  1  0.42111427  0.75041609  0.55640725  1
  Se  Se127  1  0.75246279  0.08554046  0.05128307  1
  Se  Se128  1  0.73962930  0.06868629  0.55248150  1
  Se  Se129  1  0.75425808  0.41506320  0.03591785  1
  Se  Se130  1  0.75522638  0.41646101  0.56084264  1
  Se  Se131  1  0.75008640  0.75648732  0.05161226  1
  Se  Se132  1  0.74615053  0.74454699  0.56686253  1
  Se  Se133  1  0.24326198  0.24599993  0.04887716  1
  Se  Se134  1  0.25041048  0.25424860  0.54864209  1
  Se  Se135  1  0.27623830  0.60307984  0.04286313  1
  Se  Se136  1  0.25830729  0.58852464  0.56321911  1
  Se  Se137  1  0.24720487  0.91486011  0.04940811  1
  Se  Se138  1  0.24723135  0.90890441  0.55504867  1
  Se  Se139  1  0.59571812  0.26222055  0.04474928  1
  Se  Se140  1  0.58686851  0.25752777  0.56805618  1
  Se  Se141  1  0.58950202  0.58677630  0.05093649  1
  Se  Se142  1  0.58975084  0.58758681  0.57069126  1
  Se  Se143  1  0.58256461  0.92057560  0.04782626  1
  Se  Se144  1  0.58686739  0.91886635  0.54332847  1
  Se  Se145  1  0.91740565  0.25326055  0.04615290  1
  Se  Se146  1  0.91752618  0.24465907  0.55918836  1
  Se  Se147  1  0.91928001  0.58286870  0.03540064  1
  Se  Se148  1  0.91841898  0.57965307  0.55495922  1
  Se  Se149  1  0.92507379  0.92520187  0.04189729  1
  Se  Se150  1  0.92153301  0.91691208  0.56965490  1
  Se  Se151  1  0.07779029  0.26308464  0.43543516  1
  Se  Se152  1  0.08882598  0.24525999  0.94595979  1
  Se  Se153  1  0.07428563  0.59086788  0.43624482  1
  Se  Se154  1  0.08302458  0.57810512  0.95108156  1
  Se  Se155  1  0.08604272  0.91446993  0.45707062  1
  Se  Se156  1  0.09906278  0.89753707  0.95575395  1
  Se  Se157  1  0.41715649  0.24992256  0.43913380  1
  Se  Se158  1  0.41586264  0.24873635  0.95101236  1
  Se  Se159  1  0.40394435  0.58581090  0.43793861  1
  Se  Se160  1  0.41037567  0.58964115  0.96362449  1
  Se  Se161  1  0.42061170  0.90874029  0.44308347  1
  Se  Se162  1  0.41569801  0.91836905  0.94347298  1
  Se  Se163  1  0.75731165  0.24276012  0.44923146  1
  Se  Se164  1  0.74933362  0.25672407  0.95631652  1
  Se  Se165  1  0.75404069  0.57673551  0.45433573  1
  Se  Se166  1  0.74960793  0.58474102  0.94907371  1
  Se  Se167  1  0.74953220  0.91615249  0.43046969  1
  Se  Se168  1  0.75130091  0.91768761  0.94938358  1
  Se  Se169  1  0.25997283  0.06857042  0.44210887  1
  Se  Se170  1  0.25121725  0.08622674  0.95250326  1
  Se  Se171  1  0.25040789  0.41799408  0.43130452  1
  Se  Se172  1  0.24248207  0.42075173  0.95217911  1
  Se  Se173  1  0.24720531  0.75207474  0.44577489  1
  Se  Se174  1  0.25910972  0.73164404  0.96067015  1
  Se  Se175  1  0.58860629  0.07816705  0.43160722  1
  Se  Se176  1  0.58044240  0.08916022  0.94662766  1
  Se  Se177  1  0.59898735  0.40417159  0.44525574  1
  Se  Se178  1  0.56771416  0.42899412  0.95604884  1
  Se  Se179  1  0.58557538  0.73839307  0.44451473  1
  Se  Se180  1  0.58238281  0.75839260  0.94497579  1
  Se  Se181  1  0.92459438  0.08177177  0.44933214  1
  Se  Se182  1  0.92078596  0.08923664  0.95814773  1
  Se  Se183  1  0.91271788  0.41716599  0.44588260  1
  Se  Se184  1  0.91744322  0.41675474  0.94032409  1
  Se  Se185  1  0.92355147  0.74222710  0.44180784  1
  Se  Se186  1  0.90072412  0.76988057  0.95294861  1
  Se  Se187  1  0.25563924  0.25507343  0.29181575  1
  Se  Se188  1  0.24431914  0.24659664  0.81692624  1
  Se  Se189  1  0.23610711  0.58582877  0.29105059  1
  Se  Se190  1  0.25052340  0.58977981  0.81203582  1
  Se  Se191  1  0.24076708  0.91520601  0.30280599  1
  Se  Se192  1  0.23928047  0.91111974  0.82847894  1
  Se  Se193  1  0.57632864  0.24520851  0.30730352  1
  Se  Se194  1  0.58513872  0.25624248  0.80657117  1
  Se  Se195  1  0.56966363  0.57047231  0.30413111  1
  Se  Se196  1  0.58024875  0.58045828  0.82930289  1
  Se  Se197  1  0.58295862  0.91308745  0.29334400  1
  Se  Se198  1  0.57524420  0.91304572  0.80605648  1
  Se  Se199  1  0.91867792  0.25427360  0.30006279  1
  Se  Se200  1  0.91938658  0.25220395  0.80760646  1
  Se  Se201  1  0.90992684  0.58569720  0.30193523  1
  Se  Se202  1  0.91892711  0.58479636  0.80678780  1
  Se  Se203  1  0.91176237  0.91267761  0.30254932  1
  Se  Se204  1  0.92701013  0.91960293  0.81198078  1
  Se  Se205  1  0.09640815  0.09618741  0.30305971  1
  Se  Se206  1  0.07597315  0.07746505  0.81194918  1
  Se  Se207  1  0.07696091  0.42741695  0.29078544  1
  Se  Se208  1  0.08231730  0.41603178  0.80174192  1
  Se  Se209  1  0.08166898  0.75910623  0.30568511  1
  Se  Se210  1  0.08113471  0.74575531  0.81516711  1
  Se  Se211  1  0.42026756  0.08982076  0.30591679  1
  Se  Se212  1  0.42717525  0.09737531  0.80319566  1
  Se  Se213  1  0.41301530  0.41144100  0.29305781  1
  Se  Se214  1  0.41394147  0.42353965  0.82716104  1
  Se  Se215  1  0.41075048  0.74882353  0.29723037  1
  Se  Se216  1  0.41146947  0.74746266  0.81000589  1
  Se  Se217  1  0.75488607  0.08542422  0.29699153  1
  Se  Se218  1  0.75838526  0.08748667  0.82628517  1
  Se  Se219  1  0.75306740  0.42328034  0.30460768  1
  Se  Se220  1  0.74526656  0.40945471  0.80804503  1
  Se  Se221  1  0.75534132  0.75479201  0.30161628  1
  Se  Se222  1  0.76616649  0.74930049  0.81978629  1
  Se  Se223  1  0.23932936  0.08467104  0.17827840  1
  Se  Se224  1  0.24449962  0.09195912  0.70017462  1
  Se  Se225  1  0.25638734  0.40893271  0.18833056  1
  Se  Se226  1  0.23941337  0.42951874  0.68878477  1
  Se  Se227  1  0.24848453  0.74239744  0.18639589  1
  Se  Se228  1  0.25181095  0.75371579  0.70530659  1
  Se  Se229  1  0.59004583  0.08282732  0.19224693  1
  Se  Se230  1  0.57532637  0.09278713  0.69589749  1
  Se  Se231  1  0.57722984  0.42492276  0.18183263  1
  Se  Se232  1  0.58003931  0.41994442  0.71281072  1
  Se  Se233  1  0.57098393  0.74757578  0.17834656  1
  Se  Se234  1  0.58367936  0.75568319  0.69604235  1
  Se  Se235  1  0.91303466  0.09221506  0.18019603  1
  Se  Se236  1  0.91267758  0.08000107  0.70511635  1
  Se  Se237  1  0.92073379  0.41534143  0.18777607  1
  Se  Se238  1  0.91616923  0.41466863  0.70144597  1
  Se  Se239  1  0.91071088  0.76056491  0.17850681  1
  Se  Se240  1  0.92406343  0.74467909  0.70538545  1
  Se  Se241  1  0.07852913  0.25475930  0.18652138  1
  Se  Se242  1  0.08203886  0.25327633  0.70833034  1
  Se  Se243  1  0.09108957  0.57512596  0.17315923  1
  Se  Se244  1  0.08147080  0.58666724  0.70307629  1
  Se  Se245  1  0.08276323  0.90251286  0.18368482  1
  Se  Se246  1  0.08773415  0.91810641  0.70775432  1
  Se  Se247  1  0.41867580  0.24974853  0.19267490  1
  Se  Se248  1  0.41874090  0.24931117  0.69973970  1
  Se  Se249  1  0.40511628  0.59006621  0.18892771  1
  Se  Se250  1  0.41592402  0.58741063  0.71332970  1
  Se  Se251  1  0.41782962  0.90757412  0.17923993  1
  Se  Se252  1  0.41777654  0.91598636  0.69322928  1
  Se  Se253  1  0.75814771  0.24805332  0.18042687  1
  Se  Se254  1  0.75048973  0.24662283  0.70022787  1
  Se  Se255  1  0.75686012  0.57757350  0.18357034  1
  Se  Se256  1  0.75719493  0.57619325  0.69797852  1
  Se  Se257  1  0.74406408  0.92552006  0.19037199  1
  Se  Se258  1  0.76031610  0.90613190  0.70012260  1
