# generated using pymatgen
data_In86Cu29Se144
_symmetry_space_group_name_H-M   'P 1'
_cell_length_a   17.57002225
_cell_length_b   17.57096429
_cell_length_c   23.41621806
_cell_angle_alpha   90.00582578
_cell_angle_beta   89.99270677
_cell_angle_gamma   89.99462819
_symmetry_Int_Tables_number   1
_chemical_formula_structural   In86Cu29Se144
_chemical_formula_sum   'In86 Cu29 Se144'
_cell_volume   7229.10701306
_cell_formula_units_Z   1
loop_
 _symmetry_equiv_pos_site_id
 _symmetry_equiv_pos_as_xyz
  1  'x, y, z'
loop_
 _atom_site_type_symbol
 _atom_site_label
 _atom_site_symmetry_multiplicity
 _atom_site_fract_x
 _atom_site_fract_y
 _atom_site_fract_z
 _atom_site_occupancy
  In  In0  1  -0.00275343  0.16881915  0.12486156  1
  In  In1  1  0.02743059  0.17700838  0.61053724  1
  In  In2  1  0.00155584  0.51732416  0.12713433  1
  In  In3  1  0.00068718  0.50005489  0.62265053  1
  In  In4  1  -0.01148867  0.81544212  0.11560759  1
  In  In5  1  -0.01110361  0.83172971  0.61395713  1
  In  In6  1  0.33316977  0.15485154  0.12865693  1
  In  In7  1  0.33130966  0.17274037  0.61766326  1
  In  In8  1  0.33974975  0.49227782  0.12554526  1
  In  In9  1  0.31200190  0.48383893  0.59432336  1
  In  In10  1  0.34228577  0.84187985  0.12154232  1
  In  In11  1  0.34339642  0.83292468  0.61954922  1
  In  In12  1  0.66159414  0.18073030  0.11936535  1
  In  In13  1  0.66473381  0.19383002  0.62056031  1
  In  In14  1  0.66604319  0.49553923  0.11767147  1
  In  In15  1  0.67221290  0.49777998  0.61928331  1
  In  In16  1  0.66758010  0.82930874  0.12018102  1
  In  In17  1  0.66033779  0.82143117  0.62487169  1
  In  In18  1  0.17772159  -0.01794475  0.38756225  1
  In  In19  1  0.16888618  -0.01359777  0.87132022  1
  In  In20  1  0.16619720  0.33288972  0.41314122  1
  In  In21  1  0.16853226  0.33318505  0.86004437  1
  In  In22  1  0.16034615  0.68115933  0.38928833  1
  In  In23  1  0.17002875  0.68212926  0.86928348  1
  In  In24  1  0.48865731  0.00864063  0.37893220  1
  In  In25  1  0.49522378  0.00976534  0.87589190  1
  In  In26  1  0.48223416  0.35149600  0.40980654  1
  In  In27  1  0.50051344  0.33421507  0.86445089  1
  In  In28  1  0.50352491  0.66588051  0.39038045  1
  In  In29  1  0.50664660  0.65381563  0.87749033  1
  In  In30  1  0.83083370  -0.01048145  0.38112718  1
  In  In31  1  0.82199466  -0.00565475  0.87464334  1
  In  In32  1  0.83493659  0.35547371  0.39129320  1
  In  In33  1  0.84087889  0.35001146  0.86031363  1
  In  In34  1  0.83889637  0.66126907  0.37494723  1
  In  In35  1  0.83023295  0.66461610  0.86940407  1
  In  In36  1  0.01134048  0.18206490  0.38956152  1
  In  In37  1  -0.00758814  0.17245752  0.86801484  1
  In  In38  1  -0.00965174  0.50494893  0.39104851  1
  In  In39  1  -0.00607672  0.49563800  0.86323761  1
  In  In40  1  0.00854265  0.82851040  0.38294949  1
  In  In41  1  0.00395492  0.82306117  0.87207929  1
  In  In42  1  0.34057487  0.16389029  0.38597037  1
  In  In43  1  0.34347773  0.17242785  0.86146849  1
  In  In44  1  0.33337344  0.49990999  0.39582487  1
  In  In45  1  0.34809346  0.49852603  0.86824198  1
  In  In46  1  0.32361014  0.83334923  0.38518378  1
  In  In47  1  0.32421814  0.84042500  0.87410775  1
  In  In48  1  0.65242073  0.16455559  0.38094677  1
  In  In49  1  0.65196445  0.16405073  0.86811237  1
  In  In50  1  0.65942758  0.50396492  0.38891613  1
  In  In51  1  0.66310508  0.50481663  0.86609243  1
  In  In52  1  0.67105986  0.83073220  0.38164847  1
  In  In53  1  0.67445598  0.82105485  0.87940003  1
  In  In54  1  0.18417072  -0.00123361  0.13282294  1
  In  In55  1  0.17423991  0.01257281  0.61221881  1
  In  In56  1  0.16732186  0.33265568  0.12627304  1
  In  In57  1  0.16534897  0.33568461  0.62182119  1
  In  In58  1  0.15000461  0.66651177  0.12987400  1
  In  In59  1  0.16213140  0.65253448  0.61192788  1
  In  In60  1  0.49308446  -0.00367468  0.12192068  1
  In  In61  1  0.48803931  -0.00881016  0.62518625  1
  In  In62  1  0.50806571  0.33722708  0.11421501  1
  In  In63  1  0.50022851  0.33303365  0.61387510  1
  In  In64  1  0.49810044  0.66524129  0.12142800  1
  In  In65  1  0.50086329  0.66833783  0.62080367  1
  In  In66  1  0.84786619  -0.01148647  0.12704707  1
  In  In67  1  0.84795310  -0.00471575  0.62033006  1
  In  In68  1  0.81799845  0.33589907  0.12160647  1
  In  In69  1  0.81806203  0.35498887  0.62961704  1
  In  In70  1  0.84171276  0.67200855  0.12069352  1
  In  In71  1  0.83642670  0.66575605  0.62680982  1
  In  In72  1  0.33676801  0.65926538  0.74119637  1
  In  In73  1  0.33642619  0.33486163  0.26702344  1
  In  In74  1  0.16951583  0.16390800  0.00525498  1
  In  In75  1  0.66165409  0.00048571  0.75012271  1
  In  In76  1  0.82153116  0.16096568  -0.00586510  1
  In  In77  1  0.65900635  0.33198581  0.25340643  1
  In  In78  1  0.82800437  0.16493663  0.50591275  1
  In  In79  1  0.17163617  0.50751476  0.00169113  1
  In  In80  1  0.65981555  -0.00608548  0.23806076  1
  In  In81  1  -0.00016466  0.34149445  0.26724650  1
  In  In82  1  0.66589656  0.66110551  0.25828303  1
  In  In83  1  0.00851359  0.00615091  0.74506259  1
  In  In84  1  0.01051750  -0.01262413  0.26332505  1
  In  In85  1  0.33314888  0.66841538  0.25573612  1
  Cu  Cu86  1  0.16686649  0.49914126  0.73818338  1
  Cu  Cu87  1  0.67777088  0.66903112  0.50410417  1
  Cu  Cu88  1  0.66469784  0.66106320  -0.00310061  1
  Cu  Cu89  1  0.16765233  0.83467522  0.74334354  1
  Cu  Cu90  1  0.83880515  0.17920427  0.74221311  1
  Cu  Cu91  1  0.66353924  -0.00661256  -0.00138407  1
  Cu  Cu92  1  0.17707369  0.17143112  0.73905138  1
  Cu  Cu93  1  -0.00398418  0.66330280  0.50312010  1
  Cu  Cu94  1  0.17126336  0.16829690  0.25995519  1
  Cu  Cu95  1  0.83507748  0.15651550  0.26283553  1
  Cu  Cu96  1  0.33652532  0.00294452  0.00016044  1
  Cu  Cu97  1  0.65836978  -0.00631073  0.50608948  1
  Cu  Cu98  1  0.16685250  0.83246707  0.25688860  1
  Cu  Cu99  1  0.49783662  0.82804744  0.74847198  1
  Cu  Cu100  1  0.49817618  0.49363097  0.73770789  1
  Cu  Cu101  1  0.49569407  0.17137999  0.74125530  1
  Cu  Cu102  1  0.48918401  0.17070703  0.25545123  1
  Cu  Cu103  1  0.34530639  0.33640973  -0.01049092  1
  Cu  Cu104  1  0.49475050  0.83784720  0.25140959  1
  Cu  Cu105  1  0.16700061  0.50275841  0.26284778  1
  Cu  Cu106  1  -0.00477774  0.34042776  -0.01111220  1
  Cu  Cu107  1  0.83540523  0.82866297  0.74688469  1
  Cu  Cu108  1  0.83182769  0.50873080  0.74498393  1
  Cu  Cu109  1  0.00283506  -0.01559344  -0.00292870  1
  Cu  Cu110  1  0.66563839  0.33868562  -0.00989667  1
  Cu  Cu111  1  -0.00522698  0.66248033  -0.00462247  1
  Cu  Cu112  1  0.33316002  -0.00080884  0.50136801  1
  Cu  Cu113  1  0.33548050  0.67273269  -0.00343454  1
  Cu  Cu114  1  0.83749145  0.50231098  0.25236324  1
  Se  Se115  1  0.07531488  0.06951295  0.06086726  1
  Se  Se116  1  0.05789477  0.05729734  0.55252343  1
  Se  Se117  1  0.07722806  0.41114619  0.05632349  1
  Se  Se118  1  0.10472340  0.44034827  0.55751303  1
  Se  Se119  1  0.08345282  0.74205609  0.04912824  1
  Se  Se120  1  0.08176059  0.74959407  0.55191663  1
  Se  Se121  1  0.41804544  0.08814958  0.05352583  1
  Se  Se122  1  0.41655352  0.08133286  0.55538587  1
  Se  Se123  1  0.41990559  0.42099206  0.04983177  1
  Se  Se124  1  0.42981982  0.42605396  0.54360192  1
  Se  Se125  1  0.41816205  0.75202140  0.05465477  1
  Se  Se126  1  0.42623789  0.75505449  0.55075984  1
  Se  Se127  1  0.74292811  0.07084328  0.06547495  1
  Se  Se128  1  0.73679146  0.07461798  0.56754743  1
  Se  Se129  1  0.75082125  0.41845356  0.04626121  1
  Se  Se130  1  0.74848600  0.41651093  0.54471238  1
  Se  Se131  1  0.74762668  0.74314066  0.05344627  1
  Se  Se132  1  0.75749734  0.75501221  0.55804031  1
  Se  Se133  1  0.26454148  0.26234591  0.05692462  1
  Se  Se134  1  0.22200147  0.22946955  0.55595223  1
  Se  Se135  1  0.26048322  0.59638885  0.06558549  1
  Se  Se136  1  0.27546480  0.61374018  0.54584074  1
  Se  Se137  1  0.25203616  0.92042856  0.05403826  1
  Se  Se138  1  0.25196196  0.91276125  0.55407168  1
  Se  Se139  1  0.58371612  0.25193216  0.04298887  1
  Se  Se140  1  0.57104039  0.23840074  0.54435787  1
  Se  Se141  1  0.58100109  0.58171959  0.05418996  1
  Se  Se142  1  0.58979764  0.58784771  0.55440007  1
  Se  Se143  1  0.58077633  0.91407838  0.05681930  1
  Se  Se144  1  0.57762465  0.90960023  0.56047254  1
  Se  Se145  1  0.91769265  0.25527734  0.05125458  1
  Se  Se146  1  0.90864955  0.25333121  0.57111408  1
  Se  Se147  1  0.91469636  0.57906590  0.05152231  1
  Se  Se148  1  0.91169257  0.57971087  0.55520380  1
  Se  Se149  1  0.91237458  0.90781021  0.04902436  1
  Se  Se150  1  0.90991845  0.91418124  0.54299390  1
  Se  Se151  1  0.07127323  0.25381040  0.47327222  1
  Se  Se152  1  0.08066470  0.25417147  0.93948496  1
  Se  Se153  1  0.08621901  0.58354814  0.45176431  1
  Se  Se154  1  0.08148891  0.58789235  0.93514539  1
  Se  Se155  1  0.07382436  0.92396730  0.45088672  1
  Se  Se156  1  0.08691015  0.90719637  0.94074028  1
  Se  Se157  1  0.41466875  0.24276674  0.46085450  1
  Se  Se158  1  0.42202331  0.24781137  0.93675298  1
  Se  Se159  1  0.41575593  0.59065095  0.45739213  1
  Se  Se160  1  0.41211845  0.58190738  0.94555813  1
  Se  Se161  1  0.41634848  0.91605905  0.44633041  1
  Se  Se162  1  0.41442858  0.91970602  0.94060772  1
  Se  Se163  1  0.74321999  0.25395138  0.44079888  1
  Se  Se164  1  0.74681169  0.25712120  0.92975842  1
  Se  Se165  1  0.75554850  0.58436851  0.44671502  1
  Se  Se166  1  0.74680331  0.58222587  0.93879770  1
  Se  Se167  1  0.74713063  0.91595239  0.45309519  1
  Se  Se168  1  0.75072770  0.91206668  0.94819595  1
  Se  Se169  1  0.24733905  0.08332634  0.44912356  1
  Se  Se170  1  0.25456298  0.08113550  0.93698209  1
  Se  Se171  1  0.26676427  0.40906858  0.46750471  1
  Se  Se172  1  0.25267146  0.41183123  0.93747764  1
  Se  Se173  1  0.26138655  0.73860764  0.45666774  1
  Se  Se174  1  0.24849214  0.75335558  0.94584840  1
  Se  Se175  1  0.57875725  0.07788960  0.45078285  1
  Se  Se176  1  0.58649380  0.08211026  0.94609316  1
  Se  Se177  1  0.60173961  0.40632984  0.45796051  1
  Se  Se178  1  0.58066877  0.41885878  0.93462195  1
  Se  Se179  1  0.59067403  0.75182228  0.45241797  1
  Se  Se180  1  0.58091301  0.74618237  0.94470083  1
  Se  Se181  1  0.91743987  0.08204467  0.44017923  1
  Se  Se182  1  0.92568325  0.07263774  0.93939429  1
  Se  Se183  1  0.93725075  0.40209411  0.45941723  1
  Se  Se184  1  0.91210713  0.42508303  0.94023516  1
  Se  Se185  1  0.91681951  0.74573849  0.44499443  1
  Se  Se186  1  0.91417083  0.74722423  0.93933036  1
  Se  Se187  1  0.23751808  0.25364356  0.32515058  1
  Se  Se188  1  0.25865678  0.25552201  0.79508852  1
  Se  Se189  1  0.24829270  0.58112011  0.32139128  1
  Se  Se190  1  0.24249220  0.57497511  0.80696491  1
  Se  Se191  1  0.25358558  0.91375348  0.30726274  1
  Se  Se192  1  0.25192848  0.91781218  0.79550833  1
  Se  Se193  1  0.56454034  0.25218509  0.31689667  1
  Se  Se194  1  0.58363577  0.24994452  0.79499293  1
  Se  Se195  1  0.57075798  0.57387596  0.31291456  1
  Se  Se196  1  0.57374199  0.58108854  0.79549731  1
  Se  Se197  1  0.57865771  0.91413660  0.31195857  1
  Se  Se198  1  0.57771123  0.90760479  0.81187106  1
  Se  Se199  1  0.90584821  0.24609217  0.32071992  1
  Se  Se200  1  0.92403493  0.25978298  0.79659108  1
  Se  Se201  1  0.92445875  0.57803214  0.30740112  1
  Se  Se202  1  0.91799261  0.58902738  0.79868814  1
  Se  Se203  1  0.90795116  0.90074705  0.31060285  1
  Se  Se204  1  0.91256779  0.91704198  0.80469743  1
  Se  Se205  1  0.09007253  0.08972413  0.32023761  1
  Se  Se206  1  0.09904347  0.09667993  0.80788570  1
  Se  Se207  1  0.09836332  0.41825319  0.32816017  1
  Se  Se208  1  0.08395086  0.41827476  0.79643589  1
  Se  Se209  1  0.08434800  0.74737763  0.30811844  1
  Se  Se210  1  0.08376001  0.75113811  0.79548181  1
  Se  Se211  1  0.40682406  0.08435834  0.30530197  1
  Se  Se212  1  0.42069665  0.07984977  0.79568968  1
  Se  Se213  1  0.42685150  0.42902067  0.32052940  1
  Se  Se214  1  0.41409247  0.41349690  0.79386765  1
  Se  Se215  1  0.42521312  0.75612164  0.31603513  1
  Se  Se216  1  0.41656676  0.74820229  0.81081294  1
  Se  Se217  1  0.74283353  0.07940934  0.31115853  1
  Se  Se218  1  0.76125965  0.09483315  0.80259724  1
  Se  Se219  1  0.75248978  0.42548733  0.31072111  1
  Se  Se220  1  0.74635619  0.42320221  0.79593379  1
  Se  Se221  1  0.75830477  0.75669849  0.30740993  1
  Se  Se222  1  0.74733193  0.74974147  0.79975049  1
  Se  Se223  1  0.25335477  0.08578161  0.20603995  1
  Se  Se224  1  0.25547561  0.08172251  0.68913791  1
  Se  Se225  1  0.24307673  0.42328240  0.20004615  1
  Se  Se226  1  0.25524722  0.42126129  0.68575727  1
  Se  Se227  1  0.24547834  0.75579382  0.19089959  1
  Se  Se228  1  0.24453378  0.74997831  0.68435430  1
  Se  Se229  1  0.57286721  0.10023119  0.19039734  1
  Se  Se230  1  0.58040580  0.08997427  0.68449052  1
  Se  Se231  1  0.57404335  0.42509016  0.19294906  1
  Se  Se232  1  0.58516439  0.41262429  0.68572558  1
  Se  Se233  1  0.57658634  0.75477366  0.19587248  1
  Se  Se234  1  0.58080778  0.74352646  0.69801883  1
  Se  Se235  1  0.91814101  0.08517173  0.20045906  1
  Se  Se236  1  0.91740638  0.09584986  0.68633595  1
  Se  Se237  1  0.91197551  0.41606366  0.19041716  1
  Se  Se238  1  0.91718932  0.42191134  0.69553872  1
  Se  Se239  1  0.92746032  0.73700573  0.19561614  1
  Se  Se240  1  0.92309444  0.75151943  0.69338843  1
  Se  Se241  1  0.08730874  0.24498891  0.19951152  1
  Se  Se242  1  0.08462784  0.25312903  0.69478611  1
  Se  Se243  1  0.08400057  0.58045050  0.20552969  1
  Se  Se244  1  0.08308968  0.58744186  0.69212447  1
  Se  Se245  1  0.08903091  0.90666997  0.18820916  1
  Se  Se246  1  0.08837138  0.91362762  0.68179214  1
  Se  Se247  1  0.41804728  0.25488299  0.19053660  1
  Se  Se248  1  0.41490806  0.25558390  0.68676585  1
  Se  Se249  1  0.42262260  0.57659212  0.19656854  1
  Se  Se250  1  0.41321893  0.56661702  0.67594419  1
  Se  Se251  1  0.41395183  0.92235220  0.19833466  1
  Se  Se252  1  0.41179728  0.91190164  0.69996457  1
  Se  Se253  1  0.75819310  0.23784135  0.19817934  1
  Se  Se254  1  0.74605641  0.26046056  0.69811885  1
  Se  Se255  1  0.75341422  0.57602512  0.19086991  1
  Se  Se256  1  0.74437989  0.58704013  0.69181487  1
  Se  Se257  1  0.76122749  0.90194007  0.19393311  1
  Se  Se258  1  0.75658410  0.91466259  0.69036104  1
