# generated using pymatgen
data_In86Cu29Se144
_symmetry_space_group_name_H-M   'P 1'
_cell_length_a   17.57908901
_cell_length_b   17.57844088
_cell_length_c   23.44164899
_cell_angle_alpha   89.99904990
_cell_angle_beta   89.98556389
_cell_angle_gamma   90.02657659
_symmetry_Int_Tables_number   1
_chemical_formula_structural   In86Cu29Se144
_chemical_formula_sum   'In86 Cu29 Se144'
_cell_volume   7243.77272769
_cell_formula_units_Z   1
loop_
 _symmetry_equiv_pos_site_id
 _symmetry_equiv_pos_as_xyz
  1  'x, y, z'
loop_
 _atom_site_type_symbol
 _atom_site_label
 _atom_site_symmetry_multiplicity
 _atom_site_fract_x
 _atom_site_fract_y
 _atom_site_fract_z
 _atom_site_occupancy
  In  In0  1  -0.00161580  0.16744169  0.11830649  1
  In  In1  1  -0.00281856  0.16389714  0.63480580  1
  In  In2  1  0.00933635  0.48471577  0.14554282  1
  In  In3  1  0.00088742  0.48781675  0.62557936  1
  In  In4  1  -0.02339950  0.84686693  0.14623146  1
  In  In5  1  0.01089648  0.83691690  0.61682309  1
  In  In6  1  0.34039832  0.17326677  0.11105173  1
  In  In7  1  0.33612302  0.15376673  0.62969845  1
  In  In8  1  0.32925936  0.49800966  0.11701179  1
  In  In9  1  0.33641994  0.50605886  0.62304742  1
  In  In10  1  0.34048683  0.82183255  0.12321790  1
  In  In11  1  0.33072509  0.83088160  0.62604525  1
  In  In12  1  0.65517229  0.15619144  0.11330864  1
  In  In13  1  0.65459378  0.17529314  0.62506917  1
  In  In14  1  0.66032902  0.50688894  0.12075303  1
  In  In15  1  0.67073171  0.51277305  0.62543266  1
  In  In16  1  0.67528654  0.83878810  0.12331146  1
  In  In17  1  0.65502770  0.82440664  0.61631365  1
  In  In18  1  0.15170989  -0.00247033  0.37309995  1
  In  In19  1  0.17466227  0.00740088  0.87206054  1
  In  In20  1  0.16065673  0.34374400  0.37570697  1
  In  In21  1  0.15478421  0.34782400  0.87839506  1
  In  In22  1  0.16735576  0.66840176  0.38217087  1
  In  In23  1  0.17351976  0.65160996  0.87217518  1
  In  In24  1  0.51739215  -0.01037904  0.38078614  1
  In  In25  1  0.49464179  0.00493642  0.87727246  1
  In  In26  1  0.50396102  0.33723172  0.38856827  1
  In  In27  1  0.50293404  0.33383392  0.88501322  1
  In  In28  1  0.49842415  0.67005784  0.38120789  1
  In  In29  1  0.49696701  0.66875034  0.87121088  1
  In  In30  1  0.81845858  -0.01805658  0.35606734  1
  In  In31  1  0.83806086  -0.00349471  0.88054403  1
  In  In32  1  0.83735552  0.32772675  0.36828033  1
  In  In33  1  0.83237468  0.31817831  0.88162218  1
  In  In34  1  0.85019403  0.67014562  0.37163800  1
  In  In35  1  0.83392875  0.68280315  0.87755317  1
  In  In36  1  -0.00725654  0.15691049  0.36297552  1
  In  In37  1  0.00156137  0.16784568  0.87952190  1
  In  In38  1  0.01872112  0.51987533  0.35192496  1
  In  In39  1  0.02285915  0.49827672  0.87704744  1
  In  In40  1  -0.00087712  0.83551894  0.37885692  1
  In  In41  1  -0.01601437  0.83464101  0.87897374  1
  In  In42  1  0.33938073  0.17643437  0.37444573  1
  In  In43  1  0.33910749  0.15877563  0.87903014  1
  In  In44  1  0.33085927  0.50269456  0.38464048  1
  In  In45  1  0.32216145  0.51226919  0.87480069  1
  In  In46  1  0.34093646  0.82796539  0.38328726  1
  In  In47  1  0.34145055  0.84380604  0.86534866  1
  In  In48  1  0.67524459  0.15881424  0.37418978  1
  In  In49  1  0.66576284  0.17670210  0.89401072  1
  In  In50  1  0.65740482  0.49491671  0.37837318  1
  In  In51  1  0.65048583  0.50034841  0.87550123  1
  In  In52  1  0.65722327  0.84299881  0.37858646  1
  In  In53  1  0.67171681  0.82733611  0.87807382  1
  In  In54  1  0.15056076  -0.00037887  0.12289594  1
  In  In55  1  0.17327779  -0.00670181  0.63372845  1
  In  In56  1  0.16445242  0.33380468  0.11752322  1
  In  In57  1  0.15197901  0.33371038  0.62597207  1
  In  In58  1  0.15590779  0.65321760  0.12371241  1
  In  In59  1  0.17313852  0.66948829  0.62087900  1
  In  In60  1  0.50704822  -0.00078160  0.12116636  1
  In  In61  1  0.48961934  -0.01217708  0.61800518  1
  In  In62  1  0.50396753  0.33282016  0.11071733  1
  In  In63  1  0.50566284  0.33604457  0.61276885  1
  In  In64  1  0.50404185  0.66790540  0.11616718  1
  In  In65  1  0.49841593  0.66778807  0.62577925  1
  In  In66  1  0.82800625  -0.00430464  0.12617196  1
  In  In67  1  0.84585662  -0.00186289  0.62582135  1
  In  In68  1  0.84773901  0.33806151  0.12321381  1
  In  In69  1  0.83891360  0.34382624  0.62774996  1
  In  In70  1  0.83753149  0.67568919  0.12960378  1
  In  In71  1  0.82002885  0.66769874  0.62612868  1
  In  In72  1  0.67380078  0.67250003  0.24458601  1
  In  In73  1  0.67229221  0.33607013  0.75353628  1
  In  In74  1  0.66906378  -0.00141494  0.75665866  1
  In  In75  1  0.33084035  0.66977189  0.25950287  1
  In  In76  1  0.83233768  0.49924036  0.49785147  1
  In  In77  1  0.33010539  0.00158484  0.24438765  1
  In  In78  1  0.82905140  0.16514490  0.49228672  1
  In  In79  1  0.00316166  0.66965560  0.75201596  1
  In  In80  1  0.32968660  0.33383843  0.75195739  1
  In  In81  1  0.67196660  0.32987646  0.24799396  1
  In  In82  1  0.32998632  0.33328399  0.24129506  1
  In  In83  1  0.16678822  0.83061733  0.00246118  1
  In  In84  1  0.17104114  0.16138502  0.50085961  1
  In  In85  1  0.83310215  0.50207390  0.00975986  1
  Cu  Cu86  1  0.67069401  -0.00799119  -0.00041834  1
  Cu  Cu87  1  0.66482046  0.67148766  0.50129134  1
  Cu  Cu88  1  0.83714912  0.16281710  0.24137823  1
  Cu  Cu89  1  0.33038811  0.33580260  -0.00632093  1
  Cu  Cu90  1  0.16141391  0.82939014  0.25500565  1
  Cu  Cu91  1  0.66730480  0.00338623  0.49665646  1
  Cu  Cu92  1  0.49575468  0.16186278  0.75380068  1
  Cu  Cu93  1  0.83152800  0.83559123  0.75268783  1
  Cu  Cu94  1  0.49196176  0.50108037  0.25091497  1
  Cu  Cu95  1  0.15816080  0.17036820  0.24146109  1
  Cu  Cu96  1  0.33698835  -0.00124790  -0.00373839  1
  Cu  Cu97  1  0.84021317  0.50295578  0.74980213  1
  Cu  Cu98  1  -0.00040715  -0.00716439  0.49937250  1
  Cu  Cu99  1  0.49567571  0.82763791  0.74291742  1
  Cu  Cu100  1  0.33757266  0.66539506  -0.00319656  1
  Cu  Cu101  1  0.33377800  0.33486080  0.50106231  1
  Cu  Cu102  1  -0.00443049  0.00205995  0.00386742  1
  Cu  Cu103  1  0.00403604  0.33762141  0.00180504  1
  Cu  Cu104  1  0.33657818  0.66698476  0.50431613  1
  Cu  Cu105  1  0.00390435  0.66512819  0.49667763  1
  Cu  Cu106  1  0.49656375  0.50629546  0.75006974  1
  Cu  Cu107  1  0.00031710  0.33361537  0.49684160  1
  Cu  Cu108  1  0.50834959  0.15777498  0.24747739  1
  Cu  Cu109  1  0.16115462  0.16652413  0.75346543  1
  Cu  Cu110  1  0.00185435  0.67054225  0.00123588  1
  Cu  Cu111  1  0.66053682  0.66543443  -0.00044177  1
  Cu  Cu112  1  0.84163084  0.16447989  0.75691981  1
  Cu  Cu113  1  0.33646026  -0.00242525  0.50426883  1
  Cu  Cu114  1  0.16367484  0.83484611  0.74612156  1
  Se  Se115  1  0.08554551  0.08654127  0.04876870  1
  Se  Se116  1  0.07595618  0.07671624  0.56087516  1
  Se  Se117  1  0.07914029  0.42689495  0.05727005  1
  Se  Se118  1  0.08334935  0.41708976  0.54963522  1
  Se  Se119  1  0.07215171  0.75478634  0.06716424  1
  Se  Se120  1  0.08803317  0.74795399  0.55063226  1
  Se  Se121  1  0.42216788  0.07976673  0.05155292  1
  Se  Se122  1  0.41836053  0.08680550  0.55324019  1
  Se  Se123  1  0.41415211  0.41778846  0.04972134  1
  Se  Se124  1  0.41561473  0.42094360  0.55327215  1
  Se  Se125  1  0.42049594  0.75114125  0.04773542  1
  Se  Se126  1  0.41836795  0.75332815  0.55663603  1
  Se  Se127  1  0.75183793  0.07784466  0.05256047  1
  Se  Se128  1  0.74429288  0.07949118  0.56298418  1
  Se  Se129  1  0.73971359  0.40671203  0.06078186  1
  Se  Se130  1  0.74135837  0.40918826  0.55903830  1
  Se  Se131  1  0.74716310  0.74139957  0.05667478  1
  Se  Se132  1  0.75340322  0.75299272  0.55125964  1
  Se  Se133  1  0.24821398  0.25240784  0.04880846  1
  Se  Se134  1  0.25597826  0.25420676  0.56358187  1
  Se  Se135  1  0.24984052  0.58928377  0.05260103  1
  Se  Se136  1  0.24936869  0.58104580  0.55173589  1
  Se  Se137  1  0.25804537  0.92326127  0.06201416  1
  Se  Se138  1  0.24900212  0.91841924  0.55720143  1
  Se  Se139  1  0.57888988  0.24322775  0.04600075  1
  Se  Se140  1  0.58432014  0.24830958  0.54772474  1
  Se  Se141  1  0.57638551  0.57708770  0.04692609  1
  Se  Se142  1  0.58406325  0.58618623  0.55555454  1
  Se  Se143  1  0.58513098  0.91064019  0.05300468  1
  Se  Se144  1  0.58362949  0.91884146  0.55012726  1
  Se  Se145  1  0.91698850  0.25302663  0.04925653  1
  Se  Se146  1  0.92117331  0.25293598  0.55742022  1
  Se  Se147  1  0.92928269  0.58756052  0.06573222  1
  Se  Se148  1  0.92215592  0.58927457  0.56106497  1
  Se  Se149  1  0.91795594  0.91419523  0.05807637  1
  Se  Se150  1  0.91393743  0.91178293  0.55263265  1
  Se  Se151  1  0.07488283  0.24371547  0.43918848  1
  Se  Se152  1  0.08553488  0.25379277  0.94656287  1
  Se  Se153  1  0.08079880  0.57641341  0.44284287  1
  Se  Se154  1  0.08790631  0.58908229  0.94996853  1
  Se  Se155  1  0.08934276  0.91263299  0.44971389  1
  Se  Se156  1  0.07785704  0.92227872  0.94203297  1
  Se  Se157  1  0.41664619  0.24899914  0.44998301  1
  Se  Se158  1  0.41565714  0.24776484  0.94691376  1
  Se  Se159  1  0.41914010  0.58380624  0.44875313  1
  Se  Se160  1  0.41849866  0.58136890  0.94144874  1
  Se  Se161  1  0.42070480  0.91883033  0.44686243  1
  Se  Se162  1  0.41839361  0.91280304  0.94463755  1
  Se  Se163  1  0.74012596  0.26482993  0.44143772  1
  Se  Se164  1  0.75632993  0.25060601  0.95931510  1
  Se  Se165  1  0.74431744  0.59373511  0.43810470  1
  Se  Se166  1  0.74694073  0.58803274  0.94095275  1
  Se  Se167  1  0.75210804  0.92103458  0.44368572  1
  Se  Se168  1  0.75509906  0.90990534  0.94580738  1
  Se  Se169  1  0.25920724  0.07329506  0.43685698  1
  Se  Se170  1  0.24953951  0.08323749  0.94890647  1
  Se  Se171  1  0.24695304  0.41388650  0.44798290  1
  Se  Se172  1  0.24747329  0.42337426  0.94435972  1
  Se  Se173  1  0.25290475  0.74981870  0.44948264  1
  Se  Se174  1  0.25694694  0.74805145  0.93718814  1
  Se  Se175  1  0.58535911  0.09001146  0.44560620  1
  Se  Se176  1  0.58512079  0.07572825  0.94723394  1
  Se  Se177  1  0.57673367  0.42905352  0.45392585  1
  Se  Se178  1  0.59446997  0.40935260  0.94915325  1
  Se  Se179  1  0.58074689  0.75494102  0.44778682  1
  Se  Se180  1  0.58059162  0.74872768  0.94281388  1
  Se  Se181  1  0.91917803  0.07086806  0.43811022  1
  Se  Se182  1  0.91493211  0.08598090  0.94769173  1
  Se  Se183  1  0.92281105  0.41391874  0.43591995  1
  Se  Se184  1  0.92226788  0.41869931  0.94143657  1
  Se  Se185  1  0.91810213  0.75044258  0.44906104  1
  Se  Se186  1  0.91293719  0.75349495  0.95489279  1
  Se  Se187  1  0.24075728  0.24312501  0.30488519  1
  Se  Se188  1  0.24308053  0.24476053  0.81483743  1
  Se  Se189  1  0.24185384  0.57142357  0.30958356  1
  Se  Se190  1  0.25041833  0.58276878  0.79513070  1
  Se  Se191  1  0.24862868  0.90886875  0.31085934  1
  Se  Se192  1  0.24668543  0.91849984  0.80134725  1
  Se  Se193  1  0.57606709  0.24682600  0.31010727  1
  Se  Se194  1  0.57985560  0.24186060  0.81002103  1
  Se  Se195  1  0.57649480  0.58217158  0.30572953  1
  Se  Se196  1  0.58397141  0.58714442  0.80178874  1
  Se  Se197  1  0.59136769  0.92499206  0.30077284  1
  Se  Se198  1  0.57334406  0.90608565  0.80827601  1
  Se  Se199  1  0.91602895  0.24760624  0.29700372  1
  Se  Se200  1  0.92072273  0.25336137  0.80812167  1
  Se  Se201  1  0.90597102  0.57793110  0.29835821  1
  Se  Se202  1  0.91539534  0.58087681  0.81597700  1
  Se  Se203  1  0.93767244  0.93067976  0.30727715  1
  Se  Se204  1  0.91530795  0.91915886  0.80400954  1
  Se  Se205  1  0.08478155  0.08072913  0.29688441  1
  Se  Se206  1  0.07936173  0.08220755  0.80787835  1
  Se  Se207  1  0.07410974  0.40226066  0.30057343  1
  Se  Se208  1  0.08587278  0.42043516  0.79784616  1
  Se  Se209  1  0.08328790  0.74748519  0.31239593  1
  Se  Se210  1  0.08965087  0.75999540  0.81572503  1
  Se  Se211  1  0.42156589  0.08605985  0.30840802  1
  Se  Se212  1  0.41107713  0.07733815  0.80267594  1
  Se  Se213  1  0.41740045  0.41707640  0.31097109  1
  Se  Se214  1  0.42425028  0.42019104  0.81124138  1
  Se  Se215  1  0.43069415  0.76243092  0.30560341  1
  Se  Se216  1  0.41192004  0.74708982  0.79997492  1
  Se  Se217  1  0.74904345  0.08620168  0.29661152  1
  Se  Se218  1  0.75121279  0.09603441  0.81620897  1
  Se  Se219  1  0.75287216  0.42684775  0.30820074  1
  Se  Se220  1  0.76125619  0.42524668  0.81503400  1
  Se  Se221  1  0.75312980  0.75768498  0.31392492  1
  Se  Se222  1  0.74845785  0.74899920  0.80194598  1
  Se  Se223  1  0.24609948  0.09581839  0.18285912  1
  Se  Se224  1  0.24795775  0.08509148  0.70110713  1
  Se  Se225  1  0.23852084  0.42887131  0.19151412  1
  Se  Se226  1  0.24358740  0.42087438  0.68900599  1
  Se  Se227  1  0.24104853  0.75379178  0.19207353  1
  Se  Se228  1  0.24728337  0.74936692  0.69625890  1
  Se  Se229  1  0.59053558  0.07640893  0.19378595  1
  Se  Se230  1  0.57658328  0.08271391  0.69265037  1
  Se  Se231  1  0.57276586  0.42004131  0.19177867  1
  Se  Se232  1  0.57784129  0.42206173  0.69261196  1
  Se  Se233  1  0.57526296  0.75625019  0.18931543  1
  Se  Se234  1  0.58658429  0.74725506  0.69523729  1
  Se  Se235  1  0.92101225  0.08090704  0.18805597  1
  Se  Se236  1  0.91784399  0.07702193  0.70235121  1
  Se  Se237  1  0.90790203  0.41364647  0.20437613  1
  Se  Se238  1  0.92128400  0.41414039  0.70191770  1
  Se  Se239  1  0.91734945  0.74148672  0.20779346  1
  Se  Se240  1  0.91208402  0.75635902  0.68996174  1
  Se  Se241  1  0.07944261  0.25469899  0.18715553  1
  Se  Se242  1  0.07994998  0.25054572  0.69952100  1
  Se  Se243  1  0.08038694  0.58844947  0.20331968  1
  Se  Se244  1  0.08662558  0.57995524  0.68894825  1
  Se  Se245  1  0.08557504  0.91812944  0.20024974  1
  Se  Se246  1  0.07621946  0.91708964  0.69644560  1
  Se  Se247  1  0.42963887  0.24239888  0.18956477  1
  Se  Se248  1  0.42677489  0.24918862  0.69105910  1
  Se  Se249  1  0.41649000  0.58250252  0.18980501  1
  Se  Se250  1  0.41359179  0.58714404  0.69572808  1
  Se  Se251  1  0.42283651  0.90889403  0.19148120  1
  Se  Se252  1  0.41258672  0.91720365  0.69566229  1
  Se  Se253  1  0.75317164  0.24084662  0.18200862  1
  Se  Se254  1  0.76059668  0.24074837  0.69298946  1
  Se  Se255  1  0.75710110  0.57102793  0.19037999  1
  Se  Se256  1  0.75091937  0.58399575  0.70162730  1
  Se  Se257  1  0.76130900  0.90373947  0.19758828  1
  Se  Se258  1  0.75069604  0.91117761  0.68876376  1
