# generated using pymatgen
data_In86Cu29Se144
_symmetry_space_group_name_H-M   'P 1'
_cell_length_a   17.60058870
_cell_length_b   17.59948738
_cell_length_c   23.45973736
_cell_angle_alpha   89.99591244
_cell_angle_beta   89.98408188
_cell_angle_gamma   89.98721903
_symmetry_Int_Tables_number   1
_chemical_formula_structural   In86Cu29Se144
_chemical_formula_sum   'In86 Cu29 Se144'
_cell_volume   7266.91917046
_cell_formula_units_Z   1
loop_
 _symmetry_equiv_pos_site_id
 _symmetry_equiv_pos_as_xyz
  1  'x, y, z'
loop_
 _atom_site_type_symbol
 _atom_site_label
 _atom_site_symmetry_multiplicity
 _atom_site_fract_x
 _atom_site_fract_y
 _atom_site_fract_z
 _atom_site_occupancy
  In  In0  1  0.02143267  0.15651264  0.12485652  1
  In  In1  1  -0.00910802  0.16603281  0.62584336  1
  In  In2  1  0.01439441  0.50544357  0.12334825  1
  In  In3  1  0.01218154  0.51588076  0.62076044  1
  In  In4  1  -0.00223181  0.82636424  0.13079134  1
  In  In5  1  0.00102106  0.83271609  0.62956799  1
  In  In6  1  0.31935619  0.14321056  0.10392759  1
  In  In7  1  0.33530176  0.14736010  0.62915362  1
  In  In8  1  0.31902626  0.51295047  0.12199978  1
  In  In9  1  0.34157040  0.50621422  0.62253925  1
  In  In10  1  0.33477484  0.83246299  0.10680980  1
  In  In11  1  0.33120011  0.83263905  0.62701288  1
  In  In12  1  0.65907593  0.16430800  0.11817190  1
  In  In13  1  0.66444214  0.16479509  0.62973037  1
  In  In14  1  0.66603278  0.49249759  0.12312750  1
  In  In15  1  0.66211970  0.50605440  0.62103042  1
  In  In16  1  0.65736247  0.84186284  0.12145138  1
  In  In17  1  0.66500572  0.83146991  0.62369732  1
  In  In18  1  0.16918339  -0.01243980  0.37285626  1
  In  In19  1  0.17068052  -0.00421070  0.87946734  1
  In  In20  1  0.17825394  0.33723591  0.37541515  1
  In  In21  1  0.17209287  0.32841693  0.88263834  1
  In  In22  1  0.15714921  0.67834183  0.38153906  1
  In  In23  1  0.17072571  0.67568923  0.86927591  1
  In  In24  1  0.49598415  0.00302644  0.37931834  1
  In  In25  1  0.49772304  -0.00462844  0.87588148  1
  In  In26  1  0.50101119  0.32491458  0.38469071  1
  In  In27  1  0.50220073  0.32335951  0.86946370  1
  In  In28  1  0.49503367  0.68063254  0.39707268  1
  In  In29  1  0.50613887  0.67526720  0.86434981  1
  In  In30  1  0.83500377  0.00372370  0.39151656  1
  In  In31  1  0.83007358  -0.00108504  0.86576781  1
  In  In32  1  0.82917005  0.34090733  0.38756834  1
  In  In33  1  0.83163713  0.33908517  0.86610946  1
  In  In34  1  0.84322143  0.66308631  0.39139714  1
  In  In35  1  0.83483869  0.67111548  0.85873742  1
  In  In36  1  -0.00086561  0.15421590  0.37902511  1
  In  In37  1  0.01626268  0.15517594  0.88468612  1
  In  In38  1  -0.00677060  0.51152356  0.38492970  1
  In  In39  1  0.01613611  0.51347743  0.86220886  1
  In  In40  1  0.01328967  0.83009136  0.38177936  1
  In  In41  1  0.00907916  0.84266194  0.86355894  1
  In  In42  1  0.34562824  0.16065739  0.37272962  1
  In  In43  1  0.35038813  0.14727098  0.89544692  1
  In  In44  1  0.32634149  0.50550949  0.39159258  1
  In  In45  1  0.31833187  0.50914479  0.87174756  1
  In  In46  1  0.32910473  0.83631501  0.38019133  1
  In  In47  1  0.33519649  0.83889828  0.87557372  1
  In  In48  1  0.66699176  0.16402947  0.38670784  1
  In  In49  1  0.64717590  0.14646893  0.85349409  1
  In  In50  1  0.66563797  0.51159479  0.39801817  1
  In  In51  1  0.67134103  0.50383991  0.85480753  1
  In  In52  1  0.65908137  0.83748259  0.39574373  1
  In  In53  1  0.66086157  0.83088366  0.86497818  1
  In  In54  1  0.18441223  0.00462648  0.08604631  1
  In  In55  1  0.17993409  -0.01475780  0.63802289  1
  In  In56  1  0.16744393  0.33491899  0.12098013  1
  In  In57  1  0.15859725  0.33790853  0.62636571  1
  In  In58  1  0.16492171  0.65926957  0.11715335  1
  In  In59  1  0.16310869  0.66531767  0.63388647  1
  In  In60  1  0.47043294  -0.03127216  0.08653073  1
  In  In61  1  0.49793614  -0.00207353  0.62524536  1
  In  In62  1  0.51070816  0.32647270  0.12537498  1
  In  In63  1  0.51051985  0.34278991  0.62038868  1
  In  In64  1  0.48724502  0.67938676  0.12312639  1
  In  In65  1  0.49765282  0.66836981  0.62529711  1
  In  In66  1  0.83138377  0.00361022  0.12355274  1
  In  In67  1  0.83388406  -0.00265390  0.62809671  1
  In  In68  1  0.82421404  0.33519682  0.12808927  1
  In  In69  1  0.82217859  0.32511093  0.61865074  1
  In  In70  1  0.84618794  0.68072031  0.12774223  1
  In  In71  1  0.83279219  0.67196483  0.61994173  1
  In  In72  1  0.00127104  0.33545073  0.24218847  1
  In  In73  1  0.49156365  0.50216157  -0.00628289  1
  In  In74  1  0.66807476  0.33188610  0.27307951  1
  In  In75  1  0.67191175  0.66460844  0.26923706  1
  In  In76  1  0.83444285  0.83369378  -0.00500726  1
  In  In77  1  0.00887609  -0.00566310  0.24805761  1
  In  In78  1  0.83967312  0.50181988  -0.02138226  1
  In  In79  1  0.33172716  0.66999598  0.25041235  1
  In  In80  1  0.83345946  0.17128527  -0.00098224  1
  In  In81  1  0.33250254  0.33347134  0.75338788  1
  In  In82  1  -0.00274813  0.33017392  0.74866273  1
  In  In83  1  0.33720041  0.32434911  0.25334243  1
  In  In84  1  0.16396737  0.16909832  0.50088454  1
  In  In85  1  0.66523004  -0.00069319  0.24736763  1
  Cu  Cu86  1  0.00600802  0.66017653  -0.00742978  1
  Cu  Cu87  1  0.49758238  0.16403047  0.74918074  1
  Cu  Cu88  1  0.83101712  0.49668589  0.73817511  1
  Cu  Cu89  1  0.00570110  0.67267728  0.50540252  1
  Cu  Cu90  1  0.33759530  -0.00684997  0.50305096  1
  Cu  Cu91  1  0.82944135  0.82906878  0.74208858  1
  Cu  Cu92  1  0.66672542  0.32919020  0.50468692  1
  Cu  Cu93  1  0.66710682  0.00469356  0.51016912  1
  Cu  Cu94  1  0.84147464  0.82832952  0.25770711  1
  Cu  Cu95  1  0.32732139  0.67098660  0.50950426  1
  Cu  Cu96  1  0.83342503  0.16314537  0.74621658  1
  Cu  Cu97  1  0.00187201  -0.00043389  0.50649268  1
  Cu  Cu98  1  0.00371790  0.33484910  0.00476031  1
  Cu  Cu99  1  0.17112058  0.83775836  0.24835826  1
  Cu  Cu100  1  0.49833961  0.83781404  0.24263305  1
  Cu  Cu101  1  0.66489511  0.32925948  -0.00990653  1
  Cu  Cu102  1  0.83859304  0.52051304  0.25584677  1
  Cu  Cu103  1  0.33544587  0.33816138  -0.00389886  1
  Cu  Cu104  1  0.49364686  0.83800211  0.74755589  1
  Cu  Cu105  1  0.17150350  0.15834359  0.76059928  1
  Cu  Cu106  1  -0.00441730  0.34145529  0.50456665  1
  Cu  Cu107  1  0.65685224  0.67270458  -0.00589586  1
  Cu  Cu108  1  0.49813932  0.49787870  0.25952796  1
  Cu  Cu109  1  0.33267815  0.33185012  0.50133930  1
  Cu  Cu110  1  0.83624555  0.17157290  0.25625172  1
  Cu  Cu111  1  0.49005359  0.14759044  0.24472751  1
  Cu  Cu112  1  0.50017246  0.50728421  0.74287657  1
  Cu  Cu113  1  0.16457535  0.83046027  0.75358470  1
  Cu  Cu114  1  0.15964056  0.50669628  0.25000300  1
  Se  Se115  1  0.07002855  0.07706991  0.04289853  1
  Se  Se116  1  0.08615456  0.07649095  0.56665469  1
  Se  Se117  1  0.08903918  0.42209171  0.05264517  1
  Se  Se118  1  0.08556622  0.41991226  0.55372771  1
  Se  Se119  1  0.07213270  0.74360233  0.05772316  1
  Se  Se120  1  0.08852440  0.75281426  0.56122086  1
  Se  Se121  1  0.43857231  0.10221045  0.04939580  1
  Se  Se122  1  0.41797315  0.08263189  0.55249941  1
  Se  Se123  1  0.41241890  0.41307396  0.06487725  1
  Se  Se124  1  0.41587617  0.41501386  0.55423243  1
  Se  Se125  1  0.42189081  0.74818651  0.04257068  1
  Se  Se126  1  0.41605793  0.75518482  0.55605591  1
  Se  Se127  1  0.74046159  0.07339402  0.05188558  1
  Se  Se128  1  0.75307974  0.08663223  0.56066807  1
  Se  Se129  1  0.74816185  0.41241160  0.04653531  1
  Se  Se130  1  0.74711178  0.41882742  0.55415076  1
  Se  Se131  1  0.74322876  0.74152584  0.05808333  1
  Se  Se132  1  0.74619627  0.75124134  0.55237380  1
  Se  Se133  1  0.25259127  0.25660559  0.05246452  1
  Se  Se134  1  0.25624101  0.25242739  0.56498815  1
  Se  Se135  1  0.25715359  0.59353534  0.04602989  1
  Se  Se136  1  0.24619853  0.58503469  0.56063895  1
  Se  Se137  1  0.22793272  0.88029333  0.03730346  1
  Se  Se138  1  0.24814073  0.91554084  0.55523813  1
  Se  Se139  1  0.58439785  0.25154814  0.04831931  1
  Se  Se140  1  0.58247592  0.24506159  0.55650958  1
  Se  Se141  1  0.58699339  0.58654744  0.05878628  1
  Se  Se142  1  0.55966135  0.56925133  0.55743086  1
  Se  Se143  1  0.59401397  0.91693201  0.04284748  1
  Se  Se144  1  0.58104358  0.91720291  0.55556447  1
  Se  Se145  1  0.92351859  0.25880004  0.06656381  1
  Se  Se146  1  0.91823286  0.24976358  0.55394847  1
  Se  Se147  1  0.91782406  0.58605387  0.05400214  1
  Se  Se148  1  0.91939558  0.58693726  0.55326631  1
  Se  Se149  1  0.92189315  0.92116111  0.05982431  1
  Se  Se150  1  0.91883697  0.91592197  0.55894391  1
  Se  Se151  1  0.07387656  0.26153327  0.44008801  1
  Se  Se152  1  0.08548597  0.25018593  0.95115600  1
  Se  Se153  1  0.08672520  0.58589495  0.45020067  1
  Se  Se154  1  0.09285089  0.58326517  0.93960434  1
  Se  Se155  1  0.08684257  0.92203194  0.44975173  1
  Se  Se156  1  0.07916617  0.91266019  0.94279920  1
  Se  Se157  1  0.41237690  0.24382977  0.44910013  1
  Se  Se158  1  0.42370601  0.25658271  0.94755481  1
  Se  Se159  1  0.41212596  0.58733104  0.45608674  1
  Se  Se160  1  0.41061362  0.59584139  0.93418859  1
  Se  Se161  1  0.42100579  0.91188559  0.44684790  1
  Se  Se162  1  0.40472627  0.92978048  0.94703358  1
  Se  Se163  1  0.75285434  0.24746064  0.45130090  1
  Se  Se164  1  0.74564526  0.25058780  0.93116566  1
  Se  Se165  1  0.75159296  0.59359594  0.45959967  1
  Se  Se166  1  0.73871266  0.59533796  0.93418817  1
  Se  Se167  1  0.75048127  0.92114515  0.45594109  1
  Se  Se168  1  0.74235786  0.92070383  0.93693269  1
  Se  Se169  1  0.25596588  0.07630066  0.44300976  1
  Se  Se170  1  0.23364996  0.09610070  0.94811733  1
  Se  Se171  1  0.24355975  0.41518600  0.45411855  1
  Se  Se172  1  0.25143767  0.42106883  0.94554569  1
  Se  Se173  1  0.24944821  0.75163114  0.44808753  1
  Se  Se174  1  0.23028550  0.77303052  0.94105411  1
  Se  Se175  1  0.58201316  0.07966969  0.44985412  1
  Se  Se176  1  0.57965152  0.08972626  0.93852042  1
  Se  Se177  1  0.58189375  0.41140587  0.45026472  1
  Se  Se178  1  0.59191374  0.42005601  0.93348639  1
  Se  Se179  1  0.59797401  0.73781568  0.46102030  1
  Se  Se180  1  0.57850354  0.75657691  0.94025495  1
  Se  Se181  1  0.92004213  0.08842202  0.45678879  1
  Se  Se182  1  0.91629413  0.07229581  0.94303859  1
  Se  Se183  1  0.91258747  0.42578864  0.45215262  1
  Se  Se184  1  0.93660407  0.40711058  0.93159165  1
  Se  Se185  1  0.92377577  0.75838623  0.45155684  1
  Se  Se186  1  0.92184603  0.74058665  0.93567132  1
  Se  Se187  1  0.24202874  0.23476353  0.30860864  1
  Se  Se188  1  0.25561521  0.23706960  0.81716034  1
  Se  Se189  1  0.24377042  0.57983096  0.31195282  1
  Se  Se190  1  0.24954907  0.59079057  0.79834966  1
  Se  Se191  1  0.25754703  0.91513729  0.30249456  1
  Se  Se192  1  0.24805793  0.91680533  0.80465391  1
  Se  Se193  1  0.56917197  0.22769990  0.30895361  1
  Se  Se194  1  0.58436950  0.25460396  0.79382487  1
  Se  Se195  1  0.57045001  0.57919387  0.32201841  1
  Se  Se196  1  0.58592781  0.59128042  0.79416018  1
  Se  Se197  1  0.58037890  0.90642043  0.30895596  1
  Se  Se198  1  0.57931634  0.92002646  0.80073095  1
  Se  Se199  1  0.91434684  0.25281741  0.31421790  1
  Se  Se200  1  0.91561119  0.23510338  0.81240355  1
  Se  Se201  1  0.92288683  0.59737553  0.31086473  1
  Se  Se202  1  0.91215301  0.57347681  0.79881301  1
  Se  Se203  1  0.91372793  0.91918425  0.31492450  1
  Se  Se204  1  0.90988973  0.91170360  0.79953638  1
  Se  Se205  1  0.09448387  0.08992506  0.30793805  1
  Se  Se206  1  0.08255537  0.07576927  0.80751401  1
  Se  Se207  1  0.08485758  0.42260197  0.31055286  1
  Se  Se208  1  0.09786773  0.41203043  0.80417685  1
  Se  Se209  1  0.08787600  0.75647163  0.30305401  1
  Se  Se210  1  0.07488910  0.74320451  0.79860975  1
  Se  Se211  1  0.41027823  0.06712858  0.30158131  1
  Se  Se212  1  0.41576322  0.08572632  0.80787971  1
  Se  Se213  1  0.41642418  0.42099335  0.31889296  1
  Se  Se214  1  0.42498505  0.42796454  0.80976548  1
  Se  Se215  1  0.42787974  0.75507290  0.30896094  1
  Se  Se216  1  0.41216532  0.75487730  0.80307873  1
  Se  Se217  1  0.75637297  0.08699663  0.31192301  1
  Se  Se218  1  0.74763268  0.07530307  0.79348057  1
  Se  Se219  1  0.75838603  0.43818396  0.31549775  1
  Se  Se220  1  0.75024964  0.41095094  0.79190287  1
  Se  Se221  1  0.75732681  0.76324272  0.32291191  1
  Se  Se222  1  0.74292143  0.74780101  0.79565100  1
  Se  Se223  1  0.24336718  0.06512496  0.17630027  1
  Se  Se224  1  0.25493023  0.07775283  0.70489310  1
  Se  Se225  1  0.24545444  0.42341110  0.19692673  1
  Se  Se226  1  0.24632888  0.42220289  0.69159115  1
  Se  Se227  1  0.24745275  0.75703390  0.18560782  1
  Se  Se228  1  0.24970680  0.75141235  0.69803043  1
  Se  Se229  1  0.57365577  0.07655561  0.18249467  1
  Se  Se230  1  0.58044022  0.07997947  0.69630688  1
  Se  Se231  1  0.58148211  0.41881962  0.20230991  1
  Se  Se232  1  0.58534477  0.42045617  0.69562920  1
  Se  Se233  1  0.58467639  0.74916903  0.19568008  1
  Se  Se234  1  0.57761880  0.75417779  0.69443960  1
  Se  Se235  1  0.91302940  0.09272562  0.19382319  1
  Se  Se236  1  0.92032012  0.08013533  0.69751126  1
  Se  Se237  1  0.90569129  0.43322595  0.19125685  1
  Se  Se238  1  0.91536326  0.41702742  0.68139756  1
  Se  Se239  1  0.92428756  0.74530162  0.20684528  1
  Se  Se240  1  0.91732704  0.74469467  0.69495847  1
  Se  Se241  1  0.10053286  0.24117723  0.19645857  1
  Se  Se242  1  0.09455516  0.23568384  0.69562616  1
  Se  Se243  1  0.08187438  0.59210763  0.19637648  1
  Se  Se244  1  0.08401440  0.57829378  0.70250295  1
  Se  Se245  1  0.09830925  0.91597528  0.18227947  1
  Se  Se246  1  0.08048496  0.91669360  0.70167792  1
  Se  Se247  1  0.42037844  0.23906326  0.18688791  1
  Se  Se248  1  0.42056783  0.24732398  0.68874148  1
  Se  Se249  1  0.42473806  0.57467855  0.19324769  1
  Se  Se250  1  0.41061594  0.59020628  0.69764475  1
  Se  Se251  1  0.41627818  0.91065106  0.18063522  1
  Se  Se252  1  0.41013198  0.92178577  0.69526393  1
  Se  Se253  1  0.74674445  0.24460263  0.19848022  1
  Se  Se254  1  0.75021550  0.24963580  0.69734968  1
  Se  Se255  1  0.75043005  0.58445677  0.19028529  1
  Se  Se256  1  0.75079253  0.58514480  0.68844236  1
  Se  Se257  1  0.76187658  0.90351718  0.19372716  1
  Se  Se258  1  0.74551933  0.91629610  0.69409632  1
