# generated using pymatgen
data_In86Cu29Se144
_symmetry_space_group_name_H-M   'P 1'
_cell_length_a   17.58781529
_cell_length_b   17.58830627
_cell_length_c   23.45208854
_cell_angle_alpha   90.00173039
_cell_angle_beta   89.99689929
_cell_angle_gamma   89.99783724
_symmetry_Int_Tables_number   1
_chemical_formula_structural   In86Cu29Se144
_chemical_formula_sum   'In86 Cu29 Se144'
_cell_volume   7254.66628287
_cell_formula_units_Z   1
loop_
 _symmetry_equiv_pos_site_id
 _symmetry_equiv_pos_as_xyz
  1  'x, y, z'
loop_
 _atom_site_type_symbol
 _atom_site_label
 _atom_site_symmetry_multiplicity
 _atom_site_fract_x
 _atom_site_fract_y
 _atom_site_fract_z
 _atom_site_occupancy
  In  In0  1  -0.00515849  0.18311285  0.12408350  1
  In  In1  1  -0.00125215  0.16521686  0.62446487  1
  In  In2  1  0.01264318  0.49680782  0.13763625  1
  In  In3  1  -0.01887505  0.49860551  0.62207711  1
  In  In4  1  -0.00416201  0.82736895  0.11732576  1
  In  In5  1  0.02000304  0.83868245  0.62868305  1
  In  In6  1  0.33982080  0.16008639  0.13546935  1
  In  In7  1  0.33682270  0.16904813  0.61710156  1
  In  In8  1  0.32883025  0.48802677  0.12740373  1
  In  In9  1  0.34711932  0.49999483  0.62069082  1
  In  In10  1  0.34207922  0.84249158  0.11321851  1
  In  In11  1  0.32694275  0.82707612  0.62828533  1
  In  In12  1  0.67605786  0.17140952  0.12320173  1
  In  In13  1  0.66631740  0.15397223  0.60724596  1
  In  In14  1  0.65410936  0.49648275  0.12568993  1
  In  In15  1  0.66749470  0.50335722  0.62252771  1
  In  In16  1  0.66240311  0.83196984  0.11526572  1
  In  In17  1  0.63472875  0.83237548  0.62788067  1
  In  In18  1  0.17815187  -0.00957694  0.38138320  1
  In  In19  1  0.15102477  -0.00385504  0.86978356  1
  In  In20  1  0.15657156  0.32737976  0.36610052  1
  In  In21  1  0.16402992  0.34041841  0.87133888  1
  In  In22  1  0.16831694  0.68177437  0.37502641  1
  In  In23  1  0.18522178  0.67393380  0.87004212  1
  In  In24  1  0.48949477  0.01109025  0.38543250  1
  In  In25  1  0.50051845  -0.00227942  0.87622280  1
  In  In26  1  0.50188713  0.33271823  0.37366974  1
  In  In27  1  0.50408097  0.33187619  0.88470405  1
  In  In28  1  0.49511497  0.66870523  0.38617282  1
  In  In29  1  0.49561246  0.66733484  0.87317742  1
  In  In30  1  0.84526597  0.00733797  0.37902876  1
  In  In31  1  0.83631506  -0.00418976  0.87710008  1
  In  In32  1  0.83271323  0.33542791  0.37276222  1
  In  In33  1  0.83790096  0.31928583  0.88104719  1
  In  In34  1  0.83124835  0.65437742  0.37724206  1
  In  In35  1  0.83701146  0.68356248  0.87221459  1
  In  In36  1  -0.00664126  0.18134805  0.38242066  1
  In  In37  1  -0.00396330  0.16281282  0.86998837  1
  In  In38  1  -0.00677219  0.48823476  0.36465083  1
  In  In39  1  0.00689693  0.49307180  0.87014291  1
  In  In40  1  0.01279125  0.84022272  0.37532034  1
  In  In41  1  -0.00857345  0.83957982  0.87993097  1
  In  In42  1  0.33464332  0.16505499  0.37506347  1
  In  In43  1  0.34451083  0.16903789  0.87686489  1
  In  In44  1  0.34639301  0.50437492  0.37373882  1
  In  In45  1  0.33519150  0.51613503  0.87979595  1
  In  In46  1  0.32735747  0.83920404  0.38065651  1
  In  In47  1  0.34590028  0.81418190  0.88816222  1
  In  In48  1  0.65126898  0.17850519  0.38743453  1
  In  In49  1  0.66390446  0.16795868  0.88159048  1
  In  In50  1  0.67636975  0.49194432  0.38214722  1
  In  In51  1  0.64694938  0.49954130  0.87744678  1
  In  In52  1  0.65799801  0.82286394  0.37827115  1
  In  In53  1  0.66907319  0.83187075  0.87240270  1
  In  In54  1  0.18036200  0.00643061  0.12546966  1
  In  In55  1  0.15806475  -0.00975572  0.62332879  1
  In  In56  1  0.16765154  0.34126248  0.14118509  1
  In  In57  1  0.16284606  0.31633796  0.61771255  1
  In  In58  1  0.15936087  0.66098817  0.12203592  1
  In  In59  1  0.17161981  0.68789012  0.62681345  1
  In  In60  1  0.49316939  -0.00262293  0.12005680  1
  In  In61  1  0.50277332  0.00060922  0.61674426  1
  In  In62  1  0.50057290  0.33050612  0.13023417  1
  In  In63  1  0.50069059  0.32946126  0.61781914  1
  In  In64  1  0.49327256  0.66659500  0.10907238  1
  In  In65  1  0.49708791  0.66782411  0.63219689  1
  In  In66  1  0.83004537  -0.00139751  0.11650784  1
  In  In67  1  0.82783061  0.01513279  0.62253173  1
  In  In68  1  0.84796802  0.32040694  0.13196880  1
  In  In69  1  0.83470765  0.33434701  0.61970262  1
  In  In70  1  0.83630461  0.67637933  0.11918072  1
  In  In71  1  0.82865176  0.65279284  0.62606276  1
  In  In72  1  0.00150348  0.66619886  0.74838042  1
  In  In73  1  0.66659173  -0.00272537  0.74523880  1
  In  In74  1  0.66883907  0.33330923  0.75197372  1
  In  In75  1  0.33165396  -0.00780817  0.75035591  1
  In  In76  1  0.00516568  0.00495855  0.25142935  1
  In  In77  1  0.82853284  0.83851450  0.50506600  1
  In  In78  1  0.17114955  0.50202366  0.00798594  1
  In  In79  1  0.32609749  0.66096777  0.24511309  1
  In  In80  1  0.33065255  0.33536393  0.74316420  1
  In  In81  1  0.66360066  0.00348263  0.25868695  1
  In  In82  1  0.16508779  0.50254350  0.48772571  1
  In  In83  1  0.66447737  0.66250525  0.24590459  1
  In  In84  1  0.83323731  0.49840185  -0.00085978  1
  In  In85  1  0.16636486  0.16831675  0.00368244  1
  Cu  Cu86  1  0.50353840  0.49503568  0.25292487  1
  Cu  Cu87  1  0.33865800  0.32809817  0.49613140  1
  Cu  Cu88  1  0.66319435  -0.00000381  -0.00338279  1
  Cu  Cu89  1  0.34036270  0.33059158  0.00635843  1
  Cu  Cu90  1  0.66410995  0.33009052  0.00465053  1
  Cu  Cu91  1  0.16821002  0.83305273  0.25166532  1
  Cu  Cu92  1  0.33386762  0.66881069  0.50386445  1
  Cu  Cu93  1  0.83743579  0.16932734  0.74722914  1
  Cu  Cu94  1  0.83478717  0.83693804  0.75053249  1
  Cu  Cu95  1  0.49279252  0.50549405  0.75232528  1
  Cu  Cu96  1  0.83570469  0.82834593  0.24063853  1
  Cu  Cu97  1  0.16956247  0.16569254  0.25336083  1
  Cu  Cu98  1  0.83265424  0.17481691  0.25212843  1
  Cu  Cu99  1  0.00837924  0.00611403  0.50104003  1
  Cu  Cu100  1  0.16073729  0.16415152  0.74555637  1
  Cu  Cu101  1  0.66825313  0.33754104  0.49856374  1
  Cu  Cu102  1  0.48840508  0.83525541  0.24583010  1
  Cu  Cu103  1  0.33442233  -0.00127543  0.50215808  1
  Cu  Cu104  1  0.66662859  0.67188069  -0.00465385  1
  Cu  Cu105  1  0.49982336  0.16807246  0.25508487  1
  Cu  Cu106  1  0.65484036  0.66586033  0.50484269  1
  Cu  Cu107  1  0.33123619  0.00058971  -0.00075872  1
  Cu  Cu108  1  0.16221878  0.49879826  0.74782720  1
  Cu  Cu109  1  -0.00261147  0.33537453  0.49497090  1
  Cu  Cu110  1  0.83522115  0.49739397  0.25262961  1
  Cu  Cu111  1  -0.00350374  0.66995015  0.50507264  1
  Cu  Cu112  1  -0.00410219  -0.00033184  -0.00365281  1
  Cu  Cu113  1  0.00522811  0.66778307  -0.00247202  1
  Cu  Cu114  1  0.82861126  0.49187258  0.74624427  1
  Se  Se115  1  0.07260659  0.07730822  0.06205939  1
  Se  Se116  1  0.09010841  0.08797266  0.55702432  1
  Se  Se117  1  0.08010033  0.40602824  0.06055624  1
  Se  Se118  1  0.07803778  0.41645050  0.55556659  1
  Se  Se119  1  0.08788669  0.75036434  0.05163612  1
  Se  Se120  1  0.08451914  0.75318784  0.55185219  1
  Se  Se121  1  0.41041457  0.08615998  0.05487113  1
  Se  Se122  1  0.41976042  0.08524388  0.55042726  1
  Se  Se123  1  0.42062467  0.41667262  0.05951148  1
  Se  Se124  1  0.41905516  0.41355219  0.54972343  1
  Se  Se125  1  0.42107035  0.75902903  0.04533529  1
  Se  Se126  1  0.41617708  0.75005130  0.56015120  1
  Se  Se127  1  0.74687628  0.08280070  0.05124397  1
  Se  Se128  1  0.76263701  0.08701652  0.54163138  1
  Se  Se129  1  0.74759047  0.40997906  0.06315427  1
  Se  Se130  1  0.75014230  0.41982174  0.55478846  1
  Se  Se131  1  0.75162515  0.75252316  0.04956616  1
  Se  Se132  1  0.74036666  0.74489564  0.56329166  1
  Se  Se133  1  0.25425899  0.25709594  0.06667941  1
  Se  Se134  1  0.25161169  0.24687957  0.54720111  1
  Se  Se135  1  0.26712062  0.59328038  0.05922879  1
  Se  Se136  1  0.24858130  0.58633530  0.55905660  1
  Se  Se137  1  0.24454769  0.91981852  0.05079780  1
  Se  Se138  1  0.25241058  0.91614487  0.55816783  1
  Se  Se139  1  0.58086598  0.24676462  0.05913900  1
  Se  Se140  1  0.58494333  0.25029661  0.54900968  1
  Se  Se141  1  0.59080620  0.58569743  0.05196481  1
  Se  Se142  1  0.57409156  0.58131547  0.55953860  1
  Se  Se143  1  0.57920204  0.91813501  0.05151251  1
  Se  Se144  1  0.60307718  0.93232069  0.55339791  1
  Se  Se145  1  0.91002768  0.24662388  0.04915612  1
  Se  Se146  1  0.91963776  0.25102631  0.55356174  1
  Se  Se147  1  0.92984506  0.58366546  0.05922782  1
  Se  Se148  1  0.90977008  0.58319618  0.54893824  1
  Se  Se149  1  0.91426902  0.91459496  0.05147542  1
  Se  Se150  1  0.92761325  0.92399311  0.56152209  1
  Se  Se151  1  0.08915877  0.25367448  0.44820271  1
  Se  Se152  1  0.07993587  0.25532234  0.93985947  1
  Se  Se153  1  0.06977133  0.59427330  0.43573528  1
  Se  Se154  1  0.08312141  0.58567146  0.93813040  1
  Se  Se155  1  0.08772729  0.91573846  0.45078125  1
  Se  Se156  1  0.08262614  0.91651748  0.94754569  1
  Se  Se157  1  0.42314782  0.24521741  0.44265136  1
  Se  Se158  1  0.42039212  0.24643615  0.95121215  1
  Se  Se159  1  0.41497746  0.58139990  0.45282096  1
  Se  Se160  1  0.43209463  0.57510396  0.94671490  1
  Se  Se161  1  0.41744460  0.91300271  0.44917270  1
  Se  Se162  1  0.41678443  0.91927634  0.94611944  1
  Se  Se163  1  0.75259610  0.25440995  0.44496048  1
  Se  Se164  1  0.74782798  0.24848550  0.95009253  1
  Se  Se165  1  0.74359830  0.58838891  0.45049547  1
  Se  Se166  1  0.74766250  0.58973653  0.93621546  1
  Se  Se167  1  0.74576520  0.92076412  0.43529301  1
  Se  Se168  1  0.74733524  0.91678153  0.94277775  1
  Se  Se169  1  0.25295403  0.08293183  0.44676724  1
  Se  Se170  1  0.25142347  0.08020855  0.93765056  1
  Se  Se171  1  0.25821856  0.40830386  0.43558415  1
  Se  Se172  1  0.25897470  0.40801019  0.94399348  1
  Se  Se173  1  0.24970848  0.75178988  0.45029806  1
  Se  Se174  1  0.24654218  0.74583541  0.95241134  1
  Se  Se175  1  0.59451882  0.07049072  0.44722063  1
  Se  Se176  1  0.57820399  0.08380110  0.94572922  1
  Se  Se177  1  0.58063293  0.41793011  0.44540068  1
  Se  Se178  1  0.58167580  0.41698506  0.95455068  1
  Se  Se179  1  0.57555137  0.75470241  0.45389654  1
  Se  Se180  1  0.58316214  0.75204549  0.94023281  1
  Se  Se181  1  0.92160696  0.08809133  0.45064252  1
  Se  Se182  1  0.91545560  0.08565318  0.94347155  1
  Se  Se183  1  0.91441348  0.42052909  0.44311633  1
  Se  Se184  1  0.92906644  0.40970237  0.94401560  1
  Se  Se185  1  0.91837630  0.75132052  0.44082715  1
  Se  Se186  1  0.91556642  0.75092560  0.95010614  1
  Se  Se187  1  0.25357503  0.24942452  0.30541744  1
  Se  Se188  1  0.24423694  0.24082084  0.80678605  1
  Se  Se189  1  0.24123476  0.57787917  0.31277588  1
  Se  Se190  1  0.24872682  0.57644902  0.80183334  1
  Se  Se191  1  0.25314948  0.91593748  0.30338534  1
  Se  Se192  1  0.25164910  0.90905243  0.81929582  1
  Se  Se193  1  0.58739189  0.25075348  0.30406324  1
  Se  Se194  1  0.57521198  0.24417526  0.80810441  1
  Se  Se195  1  0.57723315  0.58090739  0.31364934  1
  Se  Se196  1  0.58231472  0.58462486  0.80281615  1
  Se  Se197  1  0.57064556  0.90740431  0.30980609  1
  Se  Se198  1  0.57434246  0.90853742  0.80291249  1
  Se  Se199  1  0.92078091  0.25512796  0.30372681  1
  Se  Se200  1  0.91752219  0.25343166  0.80225521  1
  Se  Se201  1  0.91517385  0.58630154  0.30300813  1
  Se  Se202  1  0.90792488  0.57523661  0.80790828  1
  Se  Se203  1  0.90959387  0.90957896  0.30510050  1
  Se  Se204  1  0.91748613  0.91904375  0.80363835  1
  Se  Se205  1  0.08966156  0.08971562  0.31757612  1
  Se  Se206  1  0.07770251  0.08197693  0.79922526  1
  Se  Se207  1  0.08680198  0.41939709  0.29860292  1
  Se  Se208  1  0.08081128  0.41096885  0.79647197  1
  Se  Se209  1  0.08089140  0.75251553  0.30208651  1
  Se  Se210  1  0.08379313  0.75564753  0.81167832  1
  Se  Se211  1  0.41721345  0.08027103  0.30479103  1
  Se  Se212  1  0.42477637  0.08881597  0.80346808  1
  Se  Se213  1  0.41658673  0.41424783  0.30408545  1
  Se  Se214  1  0.41915944  0.41725633  0.81129209  1
  Se  Se215  1  0.41626709  0.74998823  0.30820803  1
  Se  Se216  1  0.40917265  0.74511016  0.80423972  1
  Se  Se217  1  0.75679368  0.09430434  0.31402715  1
  Se  Se218  1  0.75355381  0.09113085  0.80729203  1
  Se  Se219  1  0.74728525  0.41706018  0.30333147  1
  Se  Se220  1  0.75499427  0.42090718  0.81738813  1
  Se  Se221  1  0.75541205  0.75433857  0.30584660  1
  Se  Se222  1  0.75030298  0.75164324  0.79944631  1
  Se  Se223  1  0.25278660  0.07966203  0.20342085  1
  Se  Se224  1  0.24812739  0.08925954  0.68853775  1
  Se  Se225  1  0.25266923  0.42293877  0.20587234  1
  Se  Se226  1  0.23945862  0.42229388  0.68139049  1
  Se  Se227  1  0.24688631  0.75966306  0.18529546  1
  Se  Se228  1  0.25007082  0.75212399  0.70428810  1
  Se  Se229  1  0.57820861  0.08763661  0.19156199  1
  Se  Se230  1  0.57992382  0.09310309  0.68864924  1
  Se  Se231  1  0.58680504  0.41187156  0.20027146  1
  Se  Se232  1  0.57271013  0.42084063  0.69380294  1
  Se  Se233  1  0.57192412  0.75487545  0.18907039  1
  Se  Se234  1  0.59299309  0.73487403  0.70090723  1
  Se  Se235  1  0.90685571  0.08708392  0.19217743  1
  Se  Se236  1  0.91697263  0.08111749  0.69522558  1
  Se  Se237  1  0.91950178  0.41508059  0.19816992  1
  Se  Se238  1  0.91452030  0.41084638  0.69575126  1
  Se  Se239  1  0.92254025  0.74562212  0.19296031  1
  Se  Se240  1  0.91194659  0.75555507  0.68625651  1
  Se  Se241  1  0.08395058  0.24531127  0.19861313  1
  Se  Se242  1  0.07964385  0.25188827  0.69452847  1
  Se  Se243  1  0.09192807  0.58621630  0.20038399  1
  Se  Se244  1  0.08639770  0.57733890  0.68289919  1
  Se  Se245  1  0.08887869  0.91306848  0.18869438  1
  Se  Se246  1  0.08955161  0.91755565  0.70401738  1
  Se  Se247  1  0.41580834  0.25168116  0.20122765  1
  Se  Se248  1  0.42518141  0.24237130  0.69249362  1
  Se  Se249  1  0.42945778  0.57867686  0.19032175  1
  Se  Se250  1  0.40692639  0.58442656  0.69839674  1
  Se  Se251  1  0.40975579  0.92128132  0.19295480  1
  Se  Se252  1  0.42726009  0.91121366  0.68874132  1
  Se  Se253  1  0.74728666  0.25452617  0.19792086  1
  Se  Se254  1  0.74957803  0.24081214  0.68688277  1
  Se  Se255  1  0.75980601  0.57588047  0.18664720  1
  Se  Se256  1  0.74531930  0.57924889  0.69911540  1
  Se  Se257  1  0.74897062  0.91198570  0.19098558  1
  Se  Se258  1  0.75542366  0.90780943  0.68345454  1
