# generated using pymatgen
data_In86Cu29Se144
_symmetry_space_group_name_H-M   'P 1'
_cell_length_a   17.57251868
_cell_length_b   17.56356383
_cell_length_c   23.42700990
_cell_angle_alpha   90.00002597
_cell_angle_beta   89.99931129
_cell_angle_gamma   90.00704037
_symmetry_Int_Tables_number   1
_chemical_formula_structural   In86Cu29Se144
_chemical_formula_sum   'In86 Cu29 Se144'
_cell_volume   7230.41982206
_cell_formula_units_Z   1
loop_
 _symmetry_equiv_pos_site_id
 _symmetry_equiv_pos_as_xyz
  1  'x, y, z'
loop_
 _atom_site_type_symbol
 _atom_site_label
 _atom_site_symmetry_multiplicity
 _atom_site_fract_x
 _atom_site_fract_y
 _atom_site_fract_z
 _atom_site_occupancy
  In  In0  1  -0.00833431  0.17227902  0.11542676  1
  In  In1  1  -0.01252707  0.17069444  0.63136188  1
  In  In2  1  0.01607183  0.51190429  0.11869832  1
  In  In3  1  -0.00064854  0.51960315  0.63902080  1
  In  In4  1  -0.00568085  0.83250041  0.11802184  1
  In  In5  1  -0.00391910  0.83385161  0.63114059  1
  In  In6  1  0.34221552  0.15125332  0.12307528  1
  In  In7  1  0.33058618  0.14622451  0.62343682  1
  In  In8  1  0.35126759  0.51179946  0.11402632  1
  In  In9  1  0.33288932  0.52291149  0.63390625  1
  In  In10  1  0.33536385  0.83429532  0.12151494  1
  In  In11  1  0.31806287  0.84089028  0.64317410  1
  In  In12  1  0.66160397  0.15520625  0.11644307  1
  In  In13  1  0.66688430  0.16241840  0.63048767  1
  In  In14  1  0.66662521  0.52058529  0.11480835  1
  In  In15  1  0.65057661  0.49591101  0.63698921  1
  In  In16  1  0.66778731  0.83487453  0.11974235  1
  In  In17  1  0.68399736  0.83399312  0.62745731  1
  In  In18  1  0.16127650  -0.04552231  0.37166240  1
  In  In19  1  0.15427965  -0.02418667  0.85516586  1
  In  In20  1  0.16540689  0.33840026  0.37699350  1
  In  In21  1  0.15910492  0.34271576  0.86642505  1
  In  In22  1  0.16813598  0.68192773  0.36823798  1
  In  In23  1  0.19082648  0.69140083  0.84827813  1
  In  In24  1  0.50605952  0.00166191  0.36974689  1
  In  In25  1  0.50423049  -0.00078700  0.87413695  1
  In  In26  1  0.49056186  0.32638022  0.37625123  1
  In  In27  1  0.50994251  0.31879311  0.88321107  1
  In  In28  1  0.49930034  0.66968394  0.36156455  1
  In  In29  1  0.49773693  0.68068765  0.89216156  1
  In  In30  1  0.83457666  -0.00170525  0.38617291  1
  In  In31  1  0.83347342  0.00297340  0.87565170  1
  In  In32  1  0.82440438  0.32030562  0.37837016  1
  In  In33  1  0.82277257  0.33077636  0.86517719  1
  In  In34  1  0.84835794  0.68780836  0.36098713  1
  In  In35  1  0.84162870  0.66446805  0.87695256  1
  In  In36  1  -0.01288981  0.14494263  0.38269782  1
  In  In37  1  -0.01075607  0.15773267  0.86635770  1
  In  In38  1  -0.01360068  0.51491705  0.37817408  1
  In  In39  1  0.01528090  0.51322638  0.84966812  1
  In  In40  1  0.01034546  0.82266200  0.40666816  1
  In  In41  1  0.00138459  0.82945605  0.87298658  1
  In  In42  1  0.34612204  0.15984863  0.38338799  1
  In  In43  1  0.34676537  0.15763858  0.87784926  1
  In  In44  1  0.32325414  0.51352050  0.37517721  1
  In  In45  1  0.34097581  0.52353828  0.86443510  1
  In  In46  1  0.32521659  0.82676677  0.35929911  1
  In  In47  1  0.33782050  0.83911480  0.87254298  1
  In  In48  1  0.67508344  0.14848928  0.38567476  1
  In  In49  1  0.66860943  0.16665278  0.87410152  1
  In  In50  1  0.65779998  0.50130326  0.37364323  1
  In  In51  1  0.66782789  0.49416716  0.87477132  1
  In  In52  1  0.67002083  0.84266552  0.36454653  1
  In  In53  1  0.65580453  0.83865995  0.88839462  1
  In  In54  1  0.18539916  -0.00572246  0.13022433  1
  In  In55  1  0.16835909  -0.01458765  0.63595644  1
  In  In56  1  0.16050475  0.34316067  0.12322856  1
  In  In57  1  0.15711341  0.33064376  0.63039468  1
  In  In58  1  0.15899311  0.68879890  0.13417600  1
  In  In59  1  0.13714804  0.70880816  0.67247454  1
  In  In60  1  0.50345041  0.00254638  0.12019953  1
  In  In61  1  0.48907527  0.00787719  0.62969854  1
  In  In62  1  0.50462996  0.33460031  0.11310968  1
  In  In63  1  0.51815055  0.33334811  0.63537878  1
  In  In64  1  0.50042858  0.66960820  0.11842510  1
  In  In65  1  0.48222873  0.65927214  0.63264521  1
  In  In66  1  0.82473397  -0.01246614  0.11341872  1
  In  In67  1  0.83184975  -0.00165787  0.63104924  1
  In  In68  1  0.84255292  0.32151220  0.12183609  1
  In  In69  1  0.83797162  0.32464629  0.63164019  1
  In  In70  1  0.81729198  0.68719305  0.13192210  1
  In  In71  1  0.84472834  0.68542415  0.61339204  1
  In  In72  1  0.00162875  0.34102761  0.24865186  1
  In  In73  1  0.83556591  0.50292017  0.51208322  1
  In  In74  1  0.17100059  0.15624541  -0.00036049  1
  In  In75  1  0.16832025  0.51003067  -0.01460057  1
  In  In76  1  0.33645813  0.34307013  0.24613404  1
  In  In77  1  0.50312959  0.83751602  0.49693796  1
  In  In78  1  0.17284935  0.50236937  0.50477418  1
  In  In79  1  0.49955702  0.49526039  0.50388825  1
  In  In80  1  0.33210852  0.32845091  0.75416570  1
  In  In81  1  0.66869424  0.66908723  0.75250605  1
  In  In82  1  0.16182050  0.15146836  0.50494118  1
  In  In83  1  0.66877003  0.33710712  0.25406237  1
  In  In84  1  0.83652243  0.49805788  -0.00697526  1
  In  In85  1  -0.00055561  -0.00683057  0.25297537  1
  Cu  Cu86  1  0.66802078  0.00430998  -0.00321059  1
  Cu  Cu87  1  0.16323619  0.16042600  0.74633239  1
  Cu  Cu88  1  0.67162487  0.32943809  -0.00483646  1
  Cu  Cu89  1  0.33322338  0.32809190  -0.00389381  1
  Cu  Cu90  1  0.32780910  -0.01051575  0.50307897  1
  Cu  Cu91  1  0.83824384  0.51605932  0.24595778  1
  Cu  Cu92  1  0.50018685  0.83726147  0.23884482  1
  Cu  Cu93  1  0.66919285  0.31682831  0.50810322  1
  Cu  Cu94  1  0.32692584  0.67389824  -0.00438305  1
  Cu  Cu95  1  0.50441787  0.15884184  0.25029953  1
  Cu  Cu96  1  0.82691995  0.16219415  0.75072334  1
  Cu  Cu97  1  0.66736955  0.00404575  0.50352424  1
  Cu  Cu98  1  0.00248535  -0.00337370  -0.00901566  1
  Cu  Cu99  1  0.82792230  0.50162153  0.74845991  1
  Cu  Cu100  1  0.33743568  -0.00663538  -0.00193003  1
  Cu  Cu101  1  0.83148465  0.83781183  0.24627977  1
  Cu  Cu102  1  0.16996343  0.16376885  0.25437148  1
  Cu  Cu103  1  0.16843824  0.52241213  0.24838401  1
  Cu  Cu104  1  0.82951595  0.15414912  0.25216463  1
  Cu  Cu105  1  -0.00079011  0.67138058  -0.00269810  1
  Cu  Cu106  1  -0.00902769  0.32899206  -0.01515127  1
  Cu  Cu107  1  0.83704612  0.83824803  0.75294477  1
  Cu  Cu108  1  0.32786144  0.67915986  0.49974453  1
  Cu  Cu109  1  0.50267092  0.16256996  0.75436443  1
  Cu  Cu110  1  -0.00182327  0.32792171  0.50586364  1
  Cu  Cu111  1  0.50419143  0.51270861  0.24208501  1
  Cu  Cu112  1  0.49996973  0.83009560  0.75781330  1
  Cu  Cu113  1  0.34545781  0.32361447  0.50858370  1
  Cu  Cu114  1  0.66987012  0.66166852  0.49511015  1
  Se  Se115  1  0.07807159  0.07029990  0.06203818  1
  Se  Se116  1  0.07404820  0.07241900  0.57172250  1
  Se  Se117  1  0.07431499  0.41142448  0.04338754  1
  Se  Se118  1  0.07250085  0.41664140  0.56145735  1
  Se  Se119  1  0.08449346  0.75261443  0.05124420  1
  Se  Se120  1  0.09381578  0.75052575  0.57334696  1
  Se  Se121  1  0.42052242  0.08239099  0.04644698  1
  Se  Se122  1  0.41435930  0.07696918  0.54819333  1
  Se  Se123  1  0.41640396  0.41446234  0.04751177  1
  Se  Se124  1  0.41207726  0.41203101  0.57070489  1
  Se  Se125  1  0.41511803  0.75216173  0.04983997  1
  Se  Se126  1  0.41348138  0.75232679  0.56071115  1
  Se  Se127  1  0.75649184  0.08718067  0.04848880  1
  Se  Se128  1  0.75068020  0.08311644  0.55994551  1
  Se  Se129  1  0.74824149  0.40925128  0.05973385  1
  Se  Se130  1  0.73730840  0.41230106  0.56495806  1
  Se  Se131  1  0.75087190  0.75312400  0.04961054  1
  Se  Se132  1  0.74632075  0.75178431  0.54760910  1
  Se  Se133  1  0.25337244  0.25547711  0.06174548  1
  Se  Se134  1  0.25163677  0.25095941  0.56150065  1
  Se  Se135  1  0.24719302  0.59329971  0.05755610  1
  Se  Se136  1  0.25058836  0.60132485  0.56259151  1
  Se  Se137  1  0.24923643  0.91480755  0.05056043  1
  Se  Se138  1  0.24756068  0.90872050  0.55964048  1
  Se  Se139  1  0.58662069  0.24683377  0.04940243  1
  Se  Se140  1  0.57830868  0.24254387  0.56089778  1
  Se  Se141  1  0.56407336  0.57155051  0.04879555  1
  Se  Se142  1  0.58787150  0.59296518  0.56111778  1
  Se  Se143  1  0.58616571  0.92043692  0.05111941  1
  Se  Se144  1  0.58856148  0.92203330  0.56431544  1
  Se  Se145  1  0.91080831  0.24661008  0.04129998  1
  Se  Se146  1  0.91023007  0.24635018  0.55439622  1
  Se  Se147  1  0.91995385  0.59056371  0.05678679  1
  Se  Se148  1  0.93943860  0.59638771  0.55233941  1
  Se  Se149  1  0.91772500  0.91544946  0.04645187  1
  Se  Se150  1  0.89349648  0.89535642  0.56630797  1
  Se  Se151  1  0.07831698  0.25110504  0.44256824  1
  Se  Se152  1  0.08381165  0.24767968  0.93704048  1
  Se  Se153  1  0.08599757  0.58915089  0.43936916  1
  Se  Se154  1  0.07740162  0.60071867  0.92964800  1
  Se  Se155  1  0.06200741  0.94635327  0.45062597  1
  Se  Se156  1  0.08815150  0.91245112  0.94191781  1
  Se  Se157  1  0.42696464  0.24258516  0.45368877  1
  Se  Se158  1  0.41982318  0.24121413  0.95048823  1
  Se  Se159  1  0.41307652  0.59428154  0.44440316  1
  Se  Se160  1  0.41104753  0.58359030  0.94957092  1
  Se  Se161  1  0.40796542  0.91811049  0.43526324  1
  Se  Se162  1  0.42443563  0.91326951  0.94434409  1
  Se  Se163  1  0.75414972  0.23868268  0.45266340  1
  Se  Se164  1  0.75609467  0.24849792  0.94229550  1
  Se  Se165  1  0.75094993  0.58120364  0.43806644  1
  Se  Se166  1  0.74113250  0.59167754  0.94303854  1
  Se  Se167  1  0.73931808  0.91447605  0.44597143  1
  Se  Se168  1  0.75326037  0.91971478  0.94659366  1
  Se  Se169  1  0.24906636  0.06895819  0.43746423  1
  Se  Se170  1  0.25211045  0.06655159  0.93487154  1
  Se  Se171  1  0.26687442  0.40549233  0.44667513  1
  Se  Se172  1  0.25887554  0.40980693  0.93507890  1
  Se  Se173  1  0.24979678  0.76003620  0.44152140  1
  Se  Se174  1  0.24684018  0.75443613  0.93789917  1
  Se  Se175  1  0.57572496  0.07921763  0.44962195  1
  Se  Se176  1  0.58323881  0.08634417  0.94308562  1
  Se  Se177  1  0.59252251  0.40080903  0.44534928  1
  Se  Se178  1  0.58633059  0.41500545  0.94656166  1
  Se  Se179  1  0.58806343  0.74180793  0.43627862  1
  Se  Se180  1  0.59057718  0.74755144  0.96011761  1
  Se  Se181  1  0.90417710  0.08587785  0.45955637  1
  Se  Se182  1  0.91788964  0.08554302  0.94644102  1
  Se  Se183  1  0.91881410  0.40793696  0.44287937  1
  Se  Se184  1  0.92532829  0.41951384  0.92462874  1
  Se  Se185  1  0.90534195  0.74205607  0.45235475  1
  Se  Se186  1  0.91374719  0.75513219  0.94568499  1
  Se  Se187  1  0.25037359  0.25013626  0.31072368  1
  Se  Se188  1  0.24231773  0.23488077  0.81291589  1
  Se  Se189  1  0.25658617  0.59917212  0.30169436  1
  Se  Se190  1  0.21547581  0.55318685  0.81412124  1
  Se  Se191  1  0.26318814  0.93192452  0.29671265  1
  Se  Se192  1  0.25580491  0.90787595  0.79527001  1
  Se  Se193  1  0.58160611  0.24068099  0.31271281  1
  Se  Se194  1  0.58539844  0.24934756  0.80319349  1
  Se  Se195  1  0.59162712  0.58734074  0.29965893  1
  Se  Se196  1  0.57881003  0.58985230  0.81841501  1
  Se  Se197  1  0.58140213  0.91897932  0.29713656  1
  Se  Se198  1  0.58783759  0.91250910  0.80708759  1
  Se  Se199  1  0.91451871  0.23970697  0.30625981  1
  Se  Se200  1  0.91217531  0.24934369  0.80060394  1
  Se  Se201  1  0.92714370  0.59455025  0.29703379  1
  Se  Se202  1  0.91039613  0.58999417  0.79676910  1
  Se  Se203  1  0.91134543  0.90644444  0.31543174  1
  Se  Se204  1  0.91930653  0.92001409  0.80811600  1
  Se  Se205  1  0.09085963  0.08466993  0.31457722  1
  Se  Se206  1  0.07802137  0.07888226  0.79978700  1
  Se  Se207  1  0.09186521  0.43547505  0.30864165  1
  Se  Se208  1  0.06724850  0.39840375  0.79294955  1
  Se  Se209  1  0.07693704  0.77423719  0.31600223  1
  Se  Se210  1  0.07665826  0.74945599  0.79591610  1
  Se  Se211  1  0.41502179  0.08325462  0.30420318  1
  Se  Se212  1  0.41718041  0.07665830  0.80226310  1
  Se  Se213  1  0.42719056  0.43403396  0.30942410  1
  Se  Se214  1  0.42030034  0.41151481  0.81877656  1
  Se  Se215  1  0.41880550  0.75226092  0.29401128  1
  Se  Se216  1  0.42016028  0.74388512  0.81025994  1
  Se  Se217  1  0.75130227  0.07271894  0.30967514  1
  Se  Se218  1  0.74621897  0.07913263  0.80511102  1
  Se  Se219  1  0.76711739  0.42877135  0.30876227  1
  Se  Se220  1  0.74313150  0.41884756  0.79793758  1
  Se  Se221  1  0.74542921  0.75055838  0.29760405  1
  Se  Se222  1  0.75399682  0.76008435  0.81468072  1
  Se  Se223  1  0.25613820  0.08700346  0.19882531  1
  Se  Se224  1  0.25145094  0.07643609  0.69959875  1
  Se  Se225  1  0.24355306  0.43556061  0.18723746  1
  Se  Se226  1  0.24787107  0.41826941  0.69067369  1
  Se  Se227  1  0.26042501  0.75222894  0.19550564  1
  Se  Se228  1  0.28174619  0.71761838  0.69542857  1
  Se  Se229  1  0.58821104  0.08076882  0.19388105  1
  Se  Se230  1  0.58287861  0.07809509  0.69790923  1
  Se  Se231  1  0.58147600  0.42272349  0.18802005  1
  Se  Se232  1  0.57299296  0.42341693  0.71125177  1
  Se  Se233  1  0.58373888  0.75147027  0.18809146  1
  Se  Se234  1  0.57634470  0.75610987  0.68852412  1
  Se  Se235  1  0.91341861  0.08409291  0.18693953  1
  Se  Se236  1  0.91511499  0.08028716  0.70068793  1
  Se  Se237  1  0.91200594  0.42917580  0.18453688  1
  Se  Se238  1  0.91370492  0.42210234  0.69313643  1
  Se  Se239  1  0.91824554  0.75566489  0.19474550  1
  Se  Se240  1  0.91153781  0.74605790  0.70012580  1
  Se  Se241  1  0.09008289  0.24129337  0.19120194  1
  Se  Se242  1  0.07858359  0.24742914  0.69891577  1
  Se  Se243  1  0.07645616  0.59616896  0.19648896  1
  Se  Se244  1  0.10148837  0.57165609  0.70535091  1
  Se  Se245  1  0.08947760  0.90892445  0.18967274  1
  Se  Se246  1  0.08762010  0.90259541  0.70338241  1
  Se  Se247  1  0.42828261  0.24664692  0.19089559  1
  Se  Se248  1  0.41810509  0.23770067  0.69023271  1
  Se  Se249  1  0.41452391  0.59203178  0.19286464  1
  Se  Se250  1  0.43170098  0.56599739  0.70809092  1
  Se  Se251  1  0.41730081  0.92309175  0.18856701  1
  Se  Se252  1  0.42095273  0.91440807  0.69973704  1
  Se  Se253  1  0.75452062  0.24260140  0.19301192  1
  Se  Se254  1  0.74619027  0.25066918  0.69849938  1
  Se  Se255  1  0.74474587  0.58760742  0.19427922  1
  Se  Se256  1  0.75687869  0.58578324  0.68295609  1
  Se  Se257  1  0.74791026  0.91982818  0.19257560  1
  Se  Se258  1  0.74676019  0.91877202  0.70379227  1
