# generated using pymatgen
data_In86Cu29Se144
_symmetry_space_group_name_H-M   'P 1'
_cell_length_a   17.64203086
_cell_length_b   17.63546898
_cell_length_c   23.49368335
_cell_angle_alpha   89.98641499
_cell_angle_beta   90.00876720
_cell_angle_gamma   89.98657157
_symmetry_Int_Tables_number   1
_chemical_formula_structural   In86Cu29Se144
_chemical_formula_sum   'In86 Cu29 Se144'
_cell_volume   7309.48320425
_cell_formula_units_Z   1
loop_
 _symmetry_equiv_pos_site_id
 _symmetry_equiv_pos_as_xyz
  1  'x, y, z'
loop_
 _atom_site_type_symbol
 _atom_site_label
 _atom_site_symmetry_multiplicity
 _atom_site_fract_x
 _atom_site_fract_y
 _atom_site_fract_z
 _atom_site_occupancy
  In  In0  1  -0.00596079  0.16104830  0.13421712  1
  In  In1  1  -0.00122317  0.16528374  0.62135440  1
  In  In2  1  0.01335825  0.50894966  0.11731995  1
  In  In3  1  -0.01519755  0.49742031  0.62981547  1
  In  In4  1  0.00526662  0.82780532  0.14042798  1
  In  In5  1  0.03807877  0.87128312  0.56875378  1
  In  In6  1  0.33168057  0.16436241  0.13685310  1
  In  In7  1  0.32249383  0.15947380  0.61727113  1
  In  In8  1  0.32356467  0.50295434  0.12873036  1
  In  In9  1  0.34737561  0.50203825  0.62485653  1
  In  In10  1  0.34437577  0.82313936  0.13812534  1
  In  In11  1  0.33516122  0.83427983  0.62426849  1
  In  In12  1  0.67559884  0.17295877  0.13668110  1
  In  In13  1  0.67648871  0.17686541  0.61400686  1
  In  In14  1  0.67201902  0.49483384  0.12879790  1
  In  In15  1  0.66106844  0.50637815  0.62664591  1
  In  In16  1  0.65028378  0.83337142  0.12968045  1
  In  In17  1  0.67215685  0.83184083  0.60633971  1
  In  In18  1  0.16967495  -0.00498339  0.38053463  1
  In  In19  1  0.16581349  0.00236132  0.86512067  1
  In  In20  1  0.16972897  0.31848423  0.37793391  1
  In  In21  1  0.16335971  0.34926480  0.87465261  1
  In  In22  1  0.17349869  0.67206279  0.37393917  1
  In  In23  1  0.16498526  0.65714887  0.87370981  1
  In  In24  1  0.49380752  0.00169613  0.38149450  1
  In  In25  1  0.48821009  0.00151576  0.86954193  1
  In  In26  1  0.50259936  0.33447650  0.37365482  1
  In  In27  1  0.49909705  0.32541276  0.87073798  1
  In  In28  1  0.49987444  0.66481118  0.37590918  1
  In  In29  1  0.49840527  0.68033394  0.87631383  1
  In  In30  1  0.85390089  -0.01703770  0.39520723  1
  In  In31  1  0.83960451  -0.00923722  0.86565064  1
  In  In32  1  0.82531552  0.32979921  0.37621806  1
  In  In33  1  0.84862722  0.34972075  0.85480165  1
  In  In34  1  0.84766470  0.69181999  0.35933297  1
  In  In35  1  0.82297955  0.66835852  0.87568053  1
  In  In36  1  0.01857215  0.14294852  0.40390960  1
  In  In37  1  -0.00456896  0.16134878  0.86472491  1
  In  In38  1  -0.01189502  0.50696210  0.37338732  1
  In  In39  1  0.00460420  0.49968275  0.87739181  1
  In  In40  1  -0.00097278  0.83802707  0.38146018  1
  In  In41  1  -0.00713967  0.83910564  0.86575432  1
  In  In42  1  0.33566452  0.16475708  0.37574480  1
  In  In43  1  0.34043963  0.16386781  0.87088672  1
  In  In44  1  0.34662519  0.51118812  0.36474341  1
  In  In45  1  0.31664707  0.50237110  0.87914180  1
  In  In46  1  0.33337273  0.82934189  0.37872902  1
  In  In47  1  0.33502066  0.84001658  0.86595456  1
  In  In48  1  0.66197583  0.17080193  0.38242291  1
  In  In49  1  0.66250047  0.18235443  0.86970731  1
  In  In50  1  0.66514415  0.49110755  0.36759230  1
  In  In51  1  0.67667358  0.49831950  0.87997162  1
  In  In52  1  0.67801855  0.80896188  0.38925779  1
  In  In53  1  0.66470835  0.82222388  0.87425419  1
  In  In54  1  0.17016560  -0.00559022  0.13684466  1
  In  In55  1  0.16968739  0.00953779  0.62352938  1
  In  In56  1  0.16645572  0.34349907  0.12592746  1
  In  In57  1  0.16543146  0.31870624  0.62398167  1
  In  In58  1  0.17732482  0.65647000  0.13533494  1
  In  In59  1  0.16511695  0.68860172  0.62016157  1
  In  In60  1  0.49920139  -0.01685658  0.12939137  1
  In  In61  1  0.48796838  -0.00853376  0.61549542  1
  In  In62  1  0.49893133  0.33631463  0.13417217  1
  In  In63  1  0.50905241  0.34158010  0.61912888  1
  In  In64  1  0.48217720  0.67831073  0.13428889  1
  In  In65  1  0.49934677  0.66115019  0.61546104  1
  In  In66  1  0.83759633  0.00389565  0.13625227  1
  In  In67  1  0.86085354  0.00334254  0.59316130  1
  In  In68  1  0.82363591  0.33390245  0.13102813  1
  In  In69  1  0.84307147  0.33078269  0.63784992  1
  In  In70  1  0.84616413  0.65886905  0.13646150  1
  In  In71  1  0.83185103  0.67308849  0.62098651  1
  In  In72  1  0.17157364  0.82658588  0.00448565  1
  In  In73  1  0.49289984  0.50411053  0.00710649  1
  In  In74  1  0.82464559  0.50835218  0.50181638  1
  In  In75  1  0.33159006  0.33406217  0.75384040  1
  In  In76  1  0.83180749  0.82746688  0.00550713  1
  In  In77  1  0.16697802  0.16931629  0.00113454  1
  In  In78  1  0.66710291  -0.00248249  0.26158107  1
  In  In79  1  0.66840256  0.00279607  0.73374823  1
  In  In80  1  0.83124819  0.16594235  0.00779244  1
  In  In81  1  -0.00277420  0.32926467  0.25620913  1
  In  In82  1  -0.00026854  0.67029502  0.74536331  1
  In  In83  1  0.16908627  0.49951631  0.49180151  1
  In  In84  1  0.49859373  0.16679615  -0.00520524  1
  In  In85  1  0.66731128  0.66810149  0.73975081  1
  Cu  Cu86  1  0.66302314  0.33776643  0.49789157  1
  Cu  Cu87  1  0.49544544  0.82948860  0.25880385  1
  Cu  Cu88  1  0.84226293  0.15956902  0.26383208  1
  Cu  Cu89  1  0.50170799  0.16576173  0.25973811  1
  Cu  Cu90  1  0.16437320  0.50161907  0.75127641  1
  Cu  Cu91  1  0.34450755  0.33368339  0.49925290  1
  Cu  Cu92  1  0.84310394  0.84191815  0.73577771  1
  Cu  Cu93  1  0.16854894  0.15939423  0.26091737  1
  Cu  Cu94  1  0.16652336  0.84125613  0.73656719  1
  Cu  Cu95  1  0.66953667  0.33456435  0.00236257  1
  Cu  Cu96  1  0.50233947  0.50949321  0.74685725  1
  Cu  Cu97  1  0.15841792  0.16409974  0.74409654  1
  Cu  Cu98  1  0.49564061  0.16676339  0.74420744  1
  Cu  Cu99  1  0.49789018  0.83946329  0.74640425  1
  Cu  Cu100  1  -0.00383018  0.33192059  0.50691861  1
  Cu  Cu101  1  0.16233718  0.83895805  0.25966654  1
  Cu  Cu102  1  0.83139947  0.15872296  0.73674749  1
  Cu  Cu103  1  0.00073733  0.65864768  0.00233233  1
  Cu  Cu104  1  0.16502689  0.50083722  0.24948763  1
  Cu  Cu105  1  0.34101761  -0.00781788  -0.00149227  1
  Cu  Cu106  1  0.33275550  0.66795085  0.49623640  1
  Cu  Cu107  1  0.66381598  0.66398783  0.00135871  1
  Cu  Cu108  1  0.00244417  -0.00498991  0.00001925  1
  Cu  Cu109  1  0.83601225  0.50380279  0.25120458  1
  Cu  Cu110  1  0.33111341  0.00254807  0.49819082  1
  Cu  Cu111  1  -0.00407992  0.34040342  -0.00438625  1
  Cu  Cu112  1  0.65919612  -0.00730045  0.00192920  1
  Cu  Cu113  1  0.65594128  0.00326752  0.49807678  1
  Cu  Cu114  1  0.50368534  0.49508062  0.24813685  1
  Se  Se115  1  0.07823803  0.07634045  0.06143960  1
  Se  Se116  1  0.08861168  0.09139125  0.55418305  1
  Se  Se117  1  0.08482274  0.41442309  0.05098714  1
  Se  Se118  1  0.07852656  0.41688158  0.56109139  1
  Se  Se119  1  0.07613160  0.74190260  0.06321545  1
  Se  Se120  1  0.08593304  0.73831851  0.53789762  1
  Se  Se121  1  0.41386936  0.07713480  0.06060017  1
  Se  Se122  1  0.41541216  0.08726290  0.55045798  1
  Se  Se123  1  0.40836589  0.40659002  0.06242613  1
  Se  Se124  1  0.42214195  0.42195061  0.55158358  1
  Se  Se125  1  0.41144201  0.75316775  0.05674150  1
  Se  Se126  1  0.41421233  0.74955843  0.55386986  1
  Se  Se127  1  0.73765693  0.07110514  0.06316709  1
  Se  Se128  1  0.74634899  0.07805705  0.55098026  1
  Se  Se129  1  0.75335881  0.41584718  0.05589091  1
  Se  Se130  1  0.74564781  0.41058839  0.56266990  1
  Se  Se131  1  0.74174597  0.74225195  0.06602200  1
  Se  Se132  1  0.72042101  0.71124583  0.55497388  1
  Se  Se133  1  0.25748605  0.25283468  0.06262622  1
  Se  Se134  1  0.25364243  0.25544008  0.54991604  1
  Se  Se135  1  0.25010652  0.58697594  0.05707842  1
  Se  Se136  1  0.25470808  0.58613820  0.55899419  1
  Se  Se137  1  0.25814564  0.92158626  0.06235706  1
  Se  Se138  1  0.25349761  0.92122086  0.55794316  1
  Se  Se139  1  0.59112988  0.25052305  0.06038726  1
  Se  Se140  1  0.58063205  0.25089167  0.55001781  1
  Se  Se141  1  0.58466265  0.59032065  0.06665786  1
  Se  Se142  1  0.59861301  0.59211899  0.55145264  1
  Se  Se143  1  0.57602964  0.91024490  0.05253804  1
  Se  Se144  1  0.57704698  0.91407004  0.54882654  1
  Se  Se145  1  0.92687502  0.25876799  0.06242689  1
  Se  Se146  1  0.90917481  0.25259114  0.55872202  1
  Se  Se147  1  0.91263086  0.58148528  0.05589689  1
  Se  Se148  1  0.92707026  0.59252519  0.55515778  1
  Se  Se149  1  0.92258534  0.92042876  0.06311519  1
  Se  Se150  1  0.89222625  0.87516046  0.54259923  1
  Se  Se151  1  0.08654669  0.25489826  0.45523985  1
  Se  Se152  1  0.07082107  0.25107708  0.93854533  1
  Se  Se153  1  0.07418638  0.59017374  0.43987307  1
  Se  Se154  1  0.08639952  0.58084135  0.94728940  1
  Se  Se155  1  0.08281055  0.91895395  0.45247666  1
  Se  Se156  1  0.08133649  0.91732941  0.93967569  1
  Se  Se157  1  0.42131623  0.24919143  0.44203970  1
  Se  Se158  1  0.40280088  0.26044362  0.94369560  1
  Se  Se159  1  0.41568438  0.58136312  0.44644942  1
  Se  Se160  1  0.41051674  0.59068632  0.94043888  1
  Se  Se161  1  0.41306872  0.91495692  0.44836637  1
  Se  Se162  1  0.42054844  0.91263535  0.94087129  1
  Se  Se163  1  0.74918706  0.25208130  0.45030454  1
  Se  Se164  1  0.75052771  0.25568479  0.94212134  1
  Se  Se165  1  0.75870665  0.58559926  0.42235666  1
  Se  Se166  1  0.75153834  0.58550892  0.94974310  1
  Se  Se167  1  0.73951924  0.91923107  0.44655464  1
  Se  Se168  1  0.74645445  0.92134408  0.94052974  1
  Se  Se169  1  0.24876154  0.08778817  0.44579188  1
  Se  Se170  1  0.25782700  0.07379955  0.94194288  1
  Se  Se171  1  0.26377455  0.41106938  0.43604080  1
  Se  Se172  1  0.25325583  0.40798720  0.94721811  1
  Se  Se173  1  0.24570784  0.75243774  0.44980773  1
  Se  Se174  1  0.25565327  0.74627222  0.93569809  1
  Se  Se175  1  0.57446121  0.08950179  0.44771066  1
  Se  Se176  1  0.59241241  0.07678715  0.93587116  1
  Se  Se177  1  0.58261317  0.42070369  0.44331488  1
  Se  Se178  1  0.58148894  0.40960338  0.94478684  1
  Se  Se179  1  0.56382527  0.75957434  0.44603768  1
  Se  Se180  1  0.58469819  0.75136470  0.94928049  1
  Se  Se181  1  0.90687204  0.08842564  0.46114220  1
  Se  Se182  1  0.91862625  0.07435641  0.94287916  1
  Se  Se183  1  0.91937476  0.41171106  0.44530873  1
  Se  Se184  1  0.91159020  0.41818674  0.94045882  1
  Se  Se185  1  0.90419901  0.76154040  0.44750199  1
  Se  Se186  1  0.92683086  0.74441815  0.94096438  1
  Se  Se187  1  0.25368581  0.24879090  0.30442291  1
  Se  Se188  1  0.23616932  0.24158601  0.81030400  1
  Se  Se189  1  0.24797146  0.58467722  0.30328620  1
  Se  Se190  1  0.25015727  0.58404175  0.80124158  1
  Se  Se191  1  0.25327134  0.91729277  0.31003492  1
  Se  Se192  1  0.24756131  0.91880500  0.79847545  1
  Se  Se193  1  0.58887239  0.25017681  0.30613645  1
  Se  Se194  1  0.57807021  0.25147547  0.79581254  1
  Se  Se195  1  0.57976060  0.58017208  0.30518027  1
  Se  Se196  1  0.58292080  0.58445787  0.81131675  1
  Se  Se197  1  0.57820113  0.90656007  0.31850081  1
  Se  Se198  1  0.58547563  0.91463209  0.80443915  1
  Se  Se199  1  0.92461776  0.23719002  0.32443374  1
  Se  Se200  1  0.91044956  0.24015507  0.79742250  1
  Se  Se201  1  0.92090118  0.58981544  0.29858893  1
  Se  Se202  1  0.91160547  0.58546484  0.81058890  1
  Se  Se203  1  0.92056910  0.92184507  0.31075128  1
  Se  Se204  1  0.92448316  0.92370246  0.79137217  1
  Se  Se205  1  0.08196461  0.08185955  0.31547960  1
  Se  Se206  1  0.07694114  0.07729491  0.79765918  1
  Se  Se207  1  0.08935286  0.42170284  0.31435898  1
  Se  Se208  1  0.07881916  0.41890271  0.80144301  1
  Se  Se209  1  0.08073998  0.75249460  0.31162470  1
  Se  Se210  1  0.09440376  0.76127866  0.80511782  1
  Se  Se211  1  0.41689771  0.07950024  0.30626097  1
  Se  Se212  1  0.41360629  0.08331912  0.79669030  1
  Se  Se213  1  0.41873889  0.41326901  0.30175624  1
  Se  Se214  1  0.42297913  0.42977042  0.80996098  1
  Se  Se215  1  0.40988009  0.74331881  0.30735208  1
  Se  Se216  1  0.41939262  0.75275218  0.80068567  1
  Se  Se217  1  0.75828612  0.08264351  0.32258528  1
  Se  Se218  1  0.75205933  0.08820294  0.80632415  1
  Se  Se219  1  0.75755096  0.41348190  0.30111948  1
  Se  Se220  1  0.73145583  0.40697923  0.80645389  1
  Se  Se221  1  0.73846139  0.75043198  0.30033442  1
  Se  Se222  1  0.76204383  0.76449138  0.79829998  1
  Se  Se223  1  0.25150830  0.07918583  0.20345550  1
  Se  Se224  1  0.25195647  0.08639877  0.69737643  1
  Se  Se225  1  0.24840107  0.41459793  0.19984641  1
  Se  Se226  1  0.24430556  0.42177250  0.68842397  1
  Se  Se227  1  0.24132399  0.75770114  0.19969755  1
  Se  Se228  1  0.25274924  0.75078135  0.69508300  1
  Se  Se229  1  0.57851152  0.08610178  0.19408144  1
  Se  Se230  1  0.57438510  0.09213081  0.67947276  1
  Se  Se231  1  0.59123113  0.41134868  0.19823004  1
  Se  Se232  1  0.58143113  0.42194666  0.69541876  1
  Se  Se233  1  0.57720918  0.74883601  0.20155108  1
  Se  Se234  1  0.57888097  0.76334554  0.68511434  1
  Se  Se235  1  0.92264507  0.07819929  0.20733773  1
  Se  Se236  1  0.91169465  0.07456521  0.68304256  1
  Se  Se237  1  0.91857044  0.42252493  0.19055188  1
  Se  Se238  1  0.91482694  0.42125989  0.70575476  1
  Se  Se239  1  0.90525370  0.76089771  0.20072177  1
  Se  Se240  1  0.92315122  0.76049265  0.67936937  1
  Se  Se241  1  0.09301029  0.24115451  0.19556712  1
  Se  Se242  1  0.07608832  0.25048387  0.69473132  1
  Se  Se243  1  0.07892012  0.58409590  0.19878634  1
  Se  Se244  1  0.09163286  0.58076447  0.68503352  1
  Se  Se245  1  0.07986438  0.92191055  0.20428207  1
  Se  Se246  1  0.07974488  0.90950632  0.67367650  1
  Se  Se247  1  0.42143715  0.24585518  0.19962511  1
  Se  Se248  1  0.41601825  0.25107747  0.68545656  1
  Se  Se249  1  0.41555467  0.57631558  0.19642544  1
  Se  Se250  1  0.41962691  0.59164440  0.69420855  1
  Se  Se251  1  0.41575136  0.91794073  0.20523616  1
  Se  Se252  1  0.41298746  0.92184891  0.69506536  1
  Se  Se253  1  0.76288005  0.24436593  0.20711508  1
  Se  Se254  1  0.74510501  0.24838359  0.69528372  1
  Se  Se255  1  0.74882087  0.58247207  0.19734853  1
  Se  Se256  1  0.76480872  0.57502858  0.69325443  1
  Se  Se257  1  0.75049006  0.91058154  0.19377898  1
  Se  Se258  1  0.75889756  0.91534311  0.67512706  1
