# generated using pymatgen
data_In86Cu29Se144
_symmetry_space_group_name_H-M   'P 1'
_cell_length_a   17.58642460
_cell_length_b   17.59163621
_cell_length_c   23.45400513
_cell_angle_alpha   89.98410575
_cell_angle_beta   90.01141082
_cell_angle_gamma   90.00564492
_symmetry_Int_Tables_number   1
_chemical_formula_structural   In86Cu29Se144
_chemical_formula_sum   'In86 Cu29 Se144'
_cell_volume   7256.05854533
_cell_formula_units_Z   1
loop_
 _symmetry_equiv_pos_site_id
 _symmetry_equiv_pos_as_xyz
  1  'x, y, z'
loop_
 _atom_site_type_symbol
 _atom_site_label
 _atom_site_symmetry_multiplicity
 _atom_site_fract_x
 _atom_site_fract_y
 _atom_site_fract_z
 _atom_site_occupancy
  In  In0  1  -0.00046948  0.16090760  0.11487895  1
  In  In1  1  -0.00533020  0.16643043  0.62764598  1
  In  In2  1  0.00840269  0.49186610  0.12514777  1
  In  In3  1  -0.00305663  0.49340576  0.62092803  1
  In  In4  1  -0.01478411  0.84595537  0.13456415  1
  In  In5  1  -0.00391704  0.84878364  0.62481188  1
  In  In6  1  0.33046588  0.16931158  0.11435857  1
  In  In7  1  0.31891606  0.16628088  0.62319626  1
  In  In8  1  0.33391361  0.49962069  0.12528281  1
  In  In9  1  0.33589662  0.49260926  0.61468626  1
  In  In10  1  0.32175816  0.82819714  0.13100738  1
  In  In11  1  0.33749533  0.84003258  0.62639525  1
  In  In12  1  0.66478064  0.16284387  0.11867297  1
  In  In13  1  0.69347174  0.15093522  0.64649311  1
  In  In14  1  0.67334669  0.50916287  0.12481253  1
  In  In15  1  0.66719850  0.49235379  0.62354747  1
  In  In16  1  0.67472089  0.82930510  0.12994771  1
  In  In17  1  0.68008425  0.83628305  0.62001477  1
  In  In18  1  0.14925849  0.02157110  0.37811830  1
  In  In19  1  0.17479226  0.01303395  0.86832388  1
  In  In20  1  0.16545677  0.32843193  0.38090678  1
  In  In21  1  0.15178254  0.34265045  0.88078615  1
  In  In22  1  0.15606868  0.65727956  0.36750542  1
  In  In23  1  0.16533094  0.65319030  0.87678507  1
  In  In24  1  0.49988178  -0.00935094  0.37405489  1
  In  In25  1  0.51966852  0.02004034  0.86479845  1
  In  In26  1  0.51596228  0.33169639  0.38054976  1
  In  In27  1  0.52277208  0.31768230  0.89579244  1
  In  In28  1  0.49437588  0.65950682  0.36803623  1
  In  In29  1  0.49422065  0.66143168  0.88110756  1
  In  In30  1  0.83142355  0.00096075  0.37630663  1
  In  In31  1  0.83329062  0.01033793  0.87391911  1
  In  In32  1  0.84175532  0.32701574  0.38387544  1
  In  In33  1  0.81744609  0.30395376  0.84995612  1
  In  In34  1  0.83072767  0.66803232  0.37310447  1
  In  In35  1  0.84149068  0.67233372  0.88179327  1
  In  In36  1  0.00237894  0.15688420  0.37464110  1
  In  In37  1  -0.00115926  0.16845038  0.87023670  1
  In  In38  1  -0.00833052  0.50338731  0.38281952  1
  In  In39  1  0.01472685  0.48669669  0.88081495  1
  In  In40  1  -0.01140977  0.82560752  0.36982722  1
  In  In41  1  -0.01885523  0.83723810  0.87892903  1
  In  In42  1  0.31413723  0.15560549  0.37604913  1
  In  In43  1  0.33923693  0.16737131  0.87784779  1
  In  In44  1  0.32647941  0.50538898  0.38085670  1
  In  In45  1  0.33625921  0.49735909  0.87905965  1
  In  In46  1  0.34203042  0.83126283  0.37139019  1
  In  In47  1  0.32126523  0.83883763  0.87790737  1
  In  In48  1  0.68008646  0.16301141  0.37440067  1
  In  In49  1  0.67339302  0.16832387  0.87683994  1
  In  In50  1  0.65945271  0.50255661  0.37974550  1
  In  In51  1  0.67324630  0.47755451  0.88024776  1
  In  In52  1  0.67881195  0.84851830  0.36805385  1
  In  In53  1  0.67218204  0.85275495  0.87554454  1
  In  In54  1  0.15562584  0.00305378  0.12613496  1
  In  In55  1  0.15456739  0.00919863  0.63257334  1
  In  In56  1  0.14774796  0.33138547  0.10537840  1
  In  In57  1  0.16203078  0.32600491  0.62038767  1
  In  In58  1  0.16928916  0.65689808  0.13745139  1
  In  In59  1  0.17489209  0.65772349  0.62001489  1
  In  In60  1  0.50419028  0.01446116  0.12034926  1
  In  In61  1  0.49576719  0.01216579  0.63176297  1
  In  In62  1  0.50080299  0.32822947  0.11072403  1
  In  In63  1  0.50838657  0.34365989  0.62512772  1
  In  In64  1  0.50649534  0.65716784  0.13326433  1
  In  In65  1  0.50729641  0.65769810  0.62012698  1
  In  In66  1  0.83985480  0.00393820  0.12355097  1
  In  In67  1  0.83880782  0.00665898  0.62580121  1
  In  In68  1  0.83717881  0.31806308  0.11488376  1
  In  In69  1  0.83617064  0.33021763  0.62898774  1
  In  In70  1  0.82112288  0.67567725  0.13665193  1
  In  In71  1  0.83616960  0.66752840  0.61326442  1
  In  In72  1  0.50230206  0.83296145  0.49130916  1
  In  In73  1  0.15943683  0.83560317  0.00974618  1
  In  In74  1  0.50178182  0.17721790  0.50960431  1
  In  In75  1  0.00291998  0.66767777  0.74993986  1
  In  In76  1  0.33080639  0.33689419  0.25298444  1
  In  In77  1  0.67405747  0.33508283  0.23844315  1
  In  In78  1  0.50278741  0.83352281  0.00244000  1
  In  In79  1  0.84251795  0.49113255  0.00033185  1
  In  In80  1  0.33212829  0.67093893  0.75378219  1
  In  In81  1  0.33435806  0.33301403  0.74938061  1
  In  In82  1  0.66505082  0.66796921  0.74294910  1
  In  In83  1  -0.00453623  0.32505732  0.24364709  1
  In  In84  1  0.16357827  0.83158772  0.50203069  1
  In  In85  1  0.33332434  -0.00606467  0.25043618  1
  Cu  Cu86  1  0.16321218  0.49479199  0.25110871  1
  Cu  Cu87  1  0.16209585  0.16712633  0.74883864  1
  Cu  Cu88  1  0.49783342  0.84655041  0.74926605  1
  Cu  Cu89  1  0.84341410  0.49334543  0.74967801  1
  Cu  Cu90  1  0.66914802  0.00519951  0.50190586  1
  Cu  Cu91  1  0.83375504  0.50238371  0.25583298  1
  Cu  Cu92  1  0.50460199  0.16370499  0.24284340  1
  Cu  Cu93  1  0.66914229  0.66733446  0.00809711  1
  Cu  Cu94  1  0.66901700  0.66216906  0.49632679  1
  Cu  Cu95  1  0.00052580  0.33085425  0.50354876  1
  Cu  Cu96  1  0.32658099  0.33818593  -0.00316200  1
  Cu  Cu97  1  0.33556111  0.65963980  0.49432723  1
  Cu  Cu98  1  0.67797388  0.33340310  0.50604991  1
  Cu  Cu99  1  0.82944399  0.84470859  0.74998291  1
  Cu  Cu100  1  0.49695489  0.50441623  0.25003064  1
  Cu  Cu101  1  -0.00039901  0.66250245  0.49294026  1
  Cu  Cu102  1  0.83468746  0.83810732  0.25143970  1
  Cu  Cu103  1  0.50113889  0.17160872  0.75678104  1
  Cu  Cu104  1  0.50635851  0.82910575  0.25038890  1
  Cu  Cu105  1  0.16400571  0.82966716  0.25322109  1
  Cu  Cu106  1  0.16113374  0.84354875  0.75333353  1
  Cu  Cu107  1  0.33440541  0.33216100  0.49942798  1
  Cu  Cu108  1  -0.00895158  0.00295115  0.50197257  1
  Cu  Cu109  1  0.50030718  0.49798750  0.75413684  1
  Cu  Cu110  1  -0.00374300  0.66821042  0.00567430  1
  Cu  Cu111  1  0.32829271  0.65763409  0.00814742  1
  Cu  Cu112  1  0.34322664  0.00308698  -0.00508925  1
  Cu  Cu113  1  0.67952493  0.00888528  -0.00374683  1
  Cu  Cu114  1  -0.00119830  0.00319328  -0.00226640  1
  Se  Se115  1  0.08988222  0.08191214  0.04740004  1
  Se  Se116  1  0.07677202  0.08279117  0.55657438  1
  Se  Se117  1  0.07437439  0.42581925  0.04160794  1
  Se  Se118  1  0.08613804  0.41662522  0.55254595  1
  Se  Se119  1  0.07444758  0.74421237  0.07055680  1
  Se  Se120  1  0.07174592  0.74103891  0.56212260  1
  Se  Se121  1  0.42122985  0.08956601  0.04961680  1
  Se  Se122  1  0.40709742  0.07878552  0.55527579  1
  Se  Se123  1  0.41127854  0.41725734  0.05358850  1
  Se  Se124  1  0.42406654  0.41238538  0.54947959  1
  Se  Se125  1  0.40925058  0.74438589  0.06211164  1
  Se  Se126  1  0.41089430  0.74244873  0.55617089  1
  Se  Se127  1  0.76068858  0.09014397  0.05320424  1
  Se  Se128  1  0.75166991  0.08800234  0.55648080  1
  Se  Se129  1  0.74153186  0.40836565  0.05776407  1
  Se  Se130  1  0.76020688  0.41979047  0.55742012  1
  Se  Se131  1  0.75426095  0.75247373  0.05565903  1
  Se  Se132  1  0.74948466  0.75000093  0.54784126  1
  Se  Se133  1  0.24518561  0.25058927  0.04782844  1
  Se  Se134  1  0.24799461  0.24886466  0.54928885  1
  Se  Se135  1  0.24068735  0.57871959  0.06000301  1
  Se  Se136  1  0.25182952  0.57749270  0.54838363  1
  Se  Se137  1  0.26205213  0.92710970  0.05801956  1
  Se  Se138  1  0.24779968  0.92372487  0.56272735  1
  Se  Se139  1  0.59105506  0.25021799  0.04914270  1
  Se  Se140  1  0.60301940  0.25106124  0.56921513  1
  Se  Se141  1  0.58287270  0.58342277  0.05589845  1
  Se  Se142  1  0.58872996  0.57832591  0.55208553  1
  Se  Se143  1  0.59697595  0.92649729  0.05610776  1
  Se  Se144  1  0.58323115  0.92566120  0.55886634  1
  Se  Se145  1  0.94795877  0.27337564  0.05346916  1
  Se  Se146  1  0.91481374  0.24898458  0.55597735  1
  Se  Se147  1  0.91480210  0.58970906  0.06701483  1
  Se  Se148  1  0.91952381  0.58005107  0.55096933  1
  Se  Se149  1  0.91867417  0.91745708  0.05203389  1
  Se  Se150  1  0.90881924  0.91599188  0.55251701  1
  Se  Se151  1  0.07766037  0.24647689  0.44461756  1
  Se  Se152  1  0.09067685  0.23778186  0.94051993  1
  Se  Se153  1  0.08869491  0.57931104  0.44663473  1
  Se  Se154  1  0.07663431  0.58725100  0.94925028  1
  Se  Se155  1  0.07129888  0.91922338  0.44207423  1
  Se  Se156  1  0.08175202  0.92152006  0.93866751  1
  Se  Se157  1  0.40942438  0.25086062  0.43599868  1
  Se  Se158  1  0.41373709  0.25113386  0.95046832  1
  Se  Se159  1  0.42462030  0.57828182  0.44502027  1
  Se  Se160  1  0.41376326  0.58204427  0.95067552  1
  Se  Se161  1  0.40168522  0.92789093  0.44638322  1
  Se  Se162  1  0.42117318  0.92220112  0.93506828  1
  Se  Se163  1  0.75073478  0.24665073  0.44799573  1
  Se  Se164  1  0.74895667  0.26242958  0.94141135  1
  Se  Se165  1  0.75368754  0.57949347  0.44319560  1
  Se  Se166  1  0.74653208  0.58700428  0.94322042  1
  Se  Se167  1  0.74977302  0.91830511  0.44915509  1
  Se  Se168  1  0.76005813  0.91916915  0.94726474  1
  Se  Se169  1  0.24165361  0.08002750  0.45105250  1
  Se  Se170  1  0.25363897  0.08327112  0.94516019  1
  Se  Se171  1  0.24912621  0.41437346  0.44578934  1
  Se  Se172  1  0.24432144  0.42301244  0.94499765  1
  Se  Se173  1  0.25428073  0.74386321  0.43848463  1
  Se  Se174  1  0.25112611  0.74174796  0.94814974  1
  Se  Se175  1  0.58242090  0.08104971  0.44336479  1
  Se  Se176  1  0.58615917  0.08769141  0.94805202  1
  Se  Se177  1  0.58927663  0.41314994  0.45306366  1
  Se  Se178  1  0.56833905  0.43768997  0.94918542  1
  Se  Se179  1  0.59267712  0.74408569  0.43312969  1
  Se  Se180  1  0.59503042  0.74587272  0.94023605  1
  Se  Se181  1  0.91156551  0.08687244  0.44556139  1
  Se  Se182  1  0.91725943  0.08869118  0.94445141  1
  Se  Se183  1  0.91598533  0.41612680  0.45182576  1
  Se  Se184  1  0.90607297  0.40429355  0.92497227  1
  Se  Se185  1  0.91384333  0.74831550  0.44553287  1
  Se  Se186  1  0.91369436  0.75445379  0.95571308  1
  Se  Se187  1  0.23745584  0.24121035  0.30318019  1
  Se  Se188  1  0.24357658  0.24650113  0.80988296  1
  Se  Se189  1  0.24919547  0.57751988  0.30360410  1
  Se  Se190  1  0.24454146  0.57089238  0.80334893  1
  Se  Se191  1  0.23909313  0.91326503  0.31485585  1
  Se  Se192  1  0.25371985  0.92062799  0.80253665  1
  Se  Se193  1  0.58295955  0.24576326  0.30286621  1
  Se  Se194  1  0.58530162  0.25391220  0.80895624  1
  Se  Se195  1  0.58689884  0.58149465  0.30289368  1
  Se  Se196  1  0.58280224  0.58056669  0.81135405  1
  Se  Se197  1  0.58313784  0.92019941  0.30102254  1
  Se  Se198  1  0.58965431  0.92129906  0.80031147  1
  Se  Se199  1  0.90608622  0.23967886  0.30663048  1
  Se  Se200  1  0.90985767  0.22284038  0.78885037  1
  Se  Se201  1  0.91945775  0.58395996  0.30723616  1
  Se  Se202  1  0.91399338  0.57888189  0.81235700  1
  Se  Se203  1  0.91738229  0.92163641  0.30532724  1
  Se  Se204  1  0.91584346  0.92239760  0.80446017  1
  Se  Se205  1  0.07737782  0.08419859  0.29613807  1
  Se  Se206  1  0.08038227  0.08052740  0.80119772  1
  Se  Se207  1  0.08105438  0.41549920  0.31040844  1
  Se  Se208  1  0.08519752  0.41811472  0.80053940  1
  Se  Se209  1  0.07732478  0.74647494  0.30300447  1
  Se  Se210  1  0.08979122  0.75820295  0.81551367  1
  Se  Se211  1  0.42227189  0.09213809  0.30835726  1
  Se  Se212  1  0.41423014  0.08564236  0.80374870  1
  Se  Se213  1  0.42751327  0.41962606  0.31322137  1
  Se  Se214  1  0.42679444  0.41328984  0.81426397  1
  Se  Se215  1  0.41695275  0.74865165  0.29986516  1
  Se  Se216  1  0.42578441  0.76269764  0.81141428  1
  Se  Se217  1  0.73865056  0.06884219  0.30509968  1
  Se  Se218  1  0.73442257  0.07254733  0.80661729  1
  Se  Se219  1  0.75525980  0.41614496  0.31242744  1
  Se  Se220  1  0.74908277  0.41719899  0.79792336  1
  Se  Se221  1  0.75012224  0.75239457  0.30305431  1
  Se  Se222  1  0.75555461  0.75476294  0.80782276  1
  Se  Se223  1  0.25008551  0.08808951  0.18997870  1
  Se  Se224  1  0.24943366  0.08400970  0.69864836  1
  Se  Se225  1  0.23604225  0.41330818  0.18728735  1
  Se  Se226  1  0.24726693  0.42154557  0.68736763  1
  Se  Se227  1  0.25029430  0.74584019  0.20406310  1
  Se  Se228  1  0.23796753  0.76022023  0.69237705  1
  Se  Se229  1  0.59076852  0.08057297  0.19443209  1
  Se  Se230  1  0.58206540  0.08610643  0.70154842  1
  Se  Se231  1  0.57225068  0.42256215  0.18733760  1
  Se  Se232  1  0.58645518  0.41994446  0.69975408  1
  Se  Se233  1  0.58907376  0.74630393  0.19630266  1
  Se  Se234  1  0.57157226  0.76236439  0.68708118  1
  Se  Se235  1  0.93174533  0.07906797  0.19029993  1
  Se  Se236  1  0.90584800  0.09638929  0.70037478  1
  Se  Se237  1  0.90206027  0.42067432  0.18883983  1
  Se  Se238  1  0.92623949  0.41179638  0.69634836  1
  Se  Se239  1  0.91688895  0.74888065  0.20124542  1
  Se  Se240  1  0.90695128  0.75689211  0.69213762  1
  Se  Se241  1  0.09407089  0.24383725  0.18703655  1
  Se  Se242  1  0.08224618  0.25111324  0.69408228  1
  Se  Se243  1  0.07568948  0.57722097  0.20047949  1
  Se  Se244  1  0.09118700  0.57732902  0.69094251  1
  Se  Se245  1  0.08665919  0.91484960  0.19729750  1
  Se  Se246  1  0.07410341  0.92164436  0.70024289  1
  Se  Se247  1  0.42113939  0.24694444  0.18960665  1
  Se  Se248  1  0.42451464  0.24336902  0.68706211  1
  Se  Se249  1  0.40947288  0.58404421  0.19752220  1
  Se  Se250  1  0.42120469  0.57716320  0.69302127  1
  Se  Se251  1  0.42799269  0.90978497  0.18679559  1
  Se  Se252  1  0.41117072  0.92522279  0.69672437  1
  Se  Se253  1  0.76354558  0.23549767  0.19081304  1
  Se  Se254  1  0.73971894  0.26907221  0.69995833  1
  Se  Se255  1  0.74552300  0.58305329  0.20341703  1
  Se  Se256  1  0.76450641  0.57910117  0.69111352  1
  Se  Se257  1  0.75517848  0.91987848  0.19277002  1
  Se  Se258  1  0.74780594  0.92281045  0.69226570  1
