# generated using pymatgen
data_In86Cu29Se144
_symmetry_space_group_name_H-M   'P 1'
_cell_length_a   17.58328877
_cell_length_b   17.58869011
_cell_length_c   23.45014115
_cell_angle_alpha   90.00385320
_cell_angle_beta   89.98318247
_cell_angle_gamma   89.99295119
_symmetry_Int_Tables_number   1
_chemical_formula_structural   In86Cu29Se144
_chemical_formula_sum   'In86 Cu29 Se144'
_cell_volume   7252.35482813
_cell_formula_units_Z   1
loop_
 _symmetry_equiv_pos_site_id
 _symmetry_equiv_pos_as_xyz
  1  'x, y, z'
loop_
 _atom_site_type_symbol
 _atom_site_label
 _atom_site_symmetry_multiplicity
 _atom_site_fract_x
 _atom_site_fract_y
 _atom_site_fract_z
 _atom_site_occupancy
  In  In0  1  0.01132091  0.15953701  0.12202805  1
  In  In1  1  0.00079613  0.15864204  0.62141167  1
  In  In2  1  -0.00768939  0.51430302  0.12707962  1
  In  In3  1  0.00186310  0.50714819  0.62050060  1
  In  In4  1  -0.00939915  0.82502995  0.12792710  1
  In  In5  1  -0.00072571  0.81445356  0.62562678  1
  In  In6  1  0.33199813  0.16949101  0.12049499  1
  In  In7  1  0.33763105  0.16901901  0.62741691  1
  In  In8  1  0.34522730  0.48924739  0.12513813  1
  In  In9  1  0.32870096  0.49374012  0.62359749  1
  In  In10  1  0.35613918  0.83416975  0.12937119  1
  In  In11  1  0.34715309  0.84575239  0.61962982  1
  In  In12  1  0.64685510  0.18575742  0.13324154  1
  In  In13  1  0.65422627  0.19950593  0.63302971  1
  In  In14  1  0.66807177  0.50028166  0.12335792  1
  In  In15  1  0.66801864  0.49817420  0.61673543  1
  In  In16  1  0.64332545  0.84548901  0.14521351  1
  In  In17  1  0.64758187  0.83290265  0.63048199  1
  In  In18  1  0.18102216  -0.00807879  0.38086461  1
  In  In19  1  0.19025031  0.00228372  0.86679452  1
  In  In20  1  0.17465925  0.32774772  0.38995359  1
  In  In21  1  0.16843998  0.31988868  0.87489946  1
  In  In22  1  0.16230395  0.67381722  0.38085267  1
  In  In23  1  0.16232929  0.67310638  0.86764258  1
  In  In24  1  0.49997085  -0.00249844  0.37322216  1
  In  In25  1  0.49029842  0.01429288  0.88154916  1
  In  In26  1  0.51143160  0.32527841  0.38753869  1
  In  In27  1  0.50299684  0.33384459  0.86809575  1
  In  In28  1  0.50515798  0.66283049  0.38009585  1
  In  In29  1  0.51166540  0.64856835  0.88117547  1
  In  In30  1  0.82135801  0.00967440  0.37379968  1
  In  In31  1  0.82668877  -0.00222107  0.87687120  1
  In  In32  1  0.82402939  0.34842502  0.38100888  1
  In  In33  1  0.83535999  0.34793600  0.87801839  1
  In  In34  1  0.82100810  0.65547644  0.36900710  1
  In  In35  1  0.80755616  0.64765952  0.85332143  1
  In  In36  1  0.00300614  0.17512952  0.38029708  1
  In  In37  1  0.00749579  0.17946446  0.87769066  1
  In  In38  1  -0.01072831  0.50979837  0.38322866  1
  In  In39  1  -0.01535810  0.50139580  0.87560532  1
  In  In40  1  0.01267535  0.83075963  0.37540134  1
  In  In41  1  -0.00143498  0.82515661  0.86652339  1
  In  In42  1  0.34679940  0.15662922  0.38164781  1
  In  In43  1  0.33948594  0.17039006  0.87037074  1
  In  In44  1  0.34108785  0.49337012  0.38732689  1
  In  In45  1  0.35635587  0.49847631  0.87233641  1
  In  In46  1  0.33088771  0.83792830  0.37785180  1
  In  In47  1  0.34160077  0.84718680  0.86996363  1
  In  In48  1  0.65416976  0.15594289  0.36712269  1
  In  In49  1  0.64961806  0.16893789  0.87594634  1
  In  In50  1  0.66132721  0.49936073  0.37697297  1
  In  In51  1  0.66279892  0.49638072  0.87445316  1
  In  In52  1  0.65605931  0.82708728  0.36730776  1
  In  In53  1  0.66056155  0.81763260  0.87074810  1
  In  In54  1  0.17614099  0.01414429  0.12609557  1
  In  In55  1  0.18465206  0.01139190  0.61669567  1
  In  In56  1  0.17960419  0.32090540  0.12483429  1
  In  In57  1  0.17352639  0.33983950  0.62285325  1
  In  In58  1  0.15589881  0.65798645  0.13051068  1
  In  In59  1  0.16084352  0.65713753  0.61841004  1
  In  In60  1  0.49198406  0.00098749  0.12848761  1
  In  In61  1  0.48654443  -0.01039385  0.62102938  1
  In  In62  1  0.51912141  0.35358762  0.10034636  1
  In  In63  1  0.50376656  0.33144592  0.62164517  1
  In  In64  1  0.51382546  0.67821002  0.11918168  1
  In  In65  1  0.51377419  0.67979128  0.62197526  1
  In  In66  1  0.83031656  -0.01344139  0.12372934  1
  In  In67  1  0.82679745  0.00593141  0.62373453  1
  In  In68  1  0.80882042  0.33182341  0.11951459  1
  In  In69  1  0.79261663  0.34191399  0.62889131  1
  In  In70  1  0.82816896  0.66294176  0.12842284  1
  In  In71  1  0.84230644  0.66208478  0.63043014  1
  In  In72  1  0.33916647  0.66669126  0.74692133  1
  In  In73  1  -0.00006041  -0.00499510  0.74214486  1
  In  In74  1  0.17381925  0.49193926  0.00355681  1
  In  In75  1  0.82566121  0.16947049  -0.00321491  1
  In  In76  1  0.83260737  0.17090602  0.50266161  1
  In  In77  1  0.83068258  0.82563112  -0.00113896  1
  In  In78  1  -0.00435790  0.33514119  0.75284203  1
  In  In79  1  0.66164522  0.00024755  0.75093768  1
  In  In80  1  0.83188333  0.83258347  0.50430540  1
  In  In81  1  0.33653078  0.67052879  0.25689720  1
  In  In82  1  -0.00643523  0.33876292  0.25870820  1
  In  In83  1  0.34113218  0.33046877  0.24669179  1
  In  In84  1  0.17412731  0.83592048  -0.00740658  1
  In  In85  1  -0.00292817  -0.00411636  0.24913866  1
  Cu  Cu86  1  0.33649431  0.00716476  -0.00219768  1
  Cu  Cu87  1  0.01297357  -0.00429863  0.50068576  1
  Cu  Cu88  1  0.33418123  0.00452923  0.49907500  1
  Cu  Cu89  1  0.00071260  0.33517262  0.00016916  1
  Cu  Cu90  1  0.00279590  0.33295572  0.50528983  1
  Cu  Cu91  1  0.65436226  0.00364358  0.49972162  1
  Cu  Cu92  1  0.83075516  0.82530634  0.25033113  1
  Cu  Cu93  1  0.16821046  0.82903719  0.74522669  1
  Cu  Cu94  1  0.33530205  0.66682413  0.50448558  1
  Cu  Cu95  1  0.17293682  0.16429787  0.74766024  1
  Cu  Cu96  1  0.49792737  0.16619695  0.25108135  1
  Cu  Cu97  1  0.65710695  -0.00048350  0.00762531  1
  Cu  Cu98  1  -0.00449440  0.66443684  -0.00214386  1
  Cu  Cu99  1  0.17246046  0.16188459  0.25299858  1
  Cu  Cu100  1  0.83029054  0.50071515  0.74733195  1
  Cu  Cu101  1  0.66782144  0.66418589  0.49608013  1
  Cu  Cu102  1  0.34244271  0.66537071  0.00089264  1
  Cu  Cu103  1  0.82196676  0.16807192  0.24763153  1
  Cu  Cu104  1  0.66809596  0.66265774  0.00022981  1
  Cu  Cu105  1  0.49589511  0.16759114  0.74990378  1
  Cu  Cu106  1  0.50695320  0.50056885  0.24952279  1
  Cu  Cu107  1  0.16053001  0.50287200  0.25661735  1
  Cu  Cu108  1  0.16829959  0.83109578  0.25485105  1
  Cu  Cu109  1  0.01539686  0.00417399  -0.00257214  1
  Cu  Cu110  1  0.16576142  0.50041965  0.74421263  1
  Cu  Cu111  1  -0.00078916  0.66526282  0.49968947  1
  Cu  Cu112  1  0.33437631  0.33106210  0.50668036  1
  Cu  Cu113  1  0.51156311  0.49713238  0.74675311  1
  Cu  Cu114  1  0.82562906  0.49915366  0.25184097  1
  Se  Se115  1  0.09650845  0.08733692  0.05001365  1
  Se  Se116  1  0.08900619  0.08652921  0.55215049  1
  Se  Se117  1  0.07711070  0.41087485  0.06760702  1
  Se  Se118  1  0.08572205  0.41954741  0.55629579  1
  Se  Se119  1  0.07941555  0.74569590  0.05379487  1
  Se  Se120  1  0.08433951  0.74896845  0.55027865  1
  Se  Se121  1  0.41933623  0.08609610  0.05526862  1
  Se  Se122  1  0.41700102  0.08567721  0.55499383  1
  Se  Se123  1  0.39416281  0.39524426  0.05160774  1
  Se  Se124  1  0.41810209  0.41779669  0.55590451  1
  Se  Se125  1  0.42190627  0.75342230  0.05184318  1
  Se  Se126  1  0.42086831  0.75187940  0.55362174  1
  Se  Se127  1  0.74469475  0.07818196  0.06277576  1
  Se  Se128  1  0.73389253  0.08455068  0.55963255  1
  Se  Se129  1  0.75028528  0.42444644  0.04956907  1
  Se  Se130  1  0.75200577  0.42061550  0.54432729  1
  Se  Se131  1  0.73682249  0.75048659  0.06418883  1
  Se  Se132  1  0.74094736  0.74444069  0.56287910  1
  Se  Se133  1  0.25325048  0.25077040  0.04839168  1
  Se  Se134  1  0.24910080  0.24684272  0.55789769  1
  Se  Se135  1  0.25861868  0.59219381  0.06281245  1
  Se  Se136  1  0.25132374  0.57969063  0.55321073  1
  Se  Se137  1  0.25932141  0.92160816  0.05858047  1
  Se  Se138  1  0.25318775  0.91470010  0.55033905  1
  Se  Se139  1  0.58974045  0.24840689  0.04499276  1
  Se  Se140  1  0.58276851  0.25203450  0.54791179  1
  Se  Se141  1  0.58154626  0.58118359  0.05366424  1
  Se  Se142  1  0.58187169  0.58606155  0.55293861  1
  Se  Se143  1  0.57740943  0.91356039  0.06102099  1
  Se  Se144  1  0.57913788  0.91380959  0.55355608  1
  Se  Se145  1  0.92126645  0.25286757  0.06217764  1
  Se  Se146  1  0.91683663  0.26104004  0.56705087  1
  Se  Se147  1  0.91027112  0.58684199  0.05341645  1
  Se  Se148  1  0.91294288  0.58437420  0.55209894  1
  Se  Se149  1  0.93113753  0.92207476  0.05203634  1
  Se  Se150  1  0.92659933  0.92503579  0.56140540  1
  Se  Se151  1  0.08464193  0.24615716  0.45413721  1
  Se  Se152  1  0.08731375  0.25100250  0.95262289  1
  Se  Se153  1  0.08567179  0.58239642  0.44740538  1
  Se  Se154  1  0.08446076  0.58623258  0.94262634  1
  Se  Se155  1  0.09130766  0.91080523  0.44604441  1
  Se  Se156  1  0.08246265  0.92285858  0.93055457  1
  Se  Se157  1  0.41587337  0.24951245  0.45003224  1
  Se  Se158  1  0.44220418  0.23128867  0.93454297  1
  Se  Se159  1  0.41973701  0.58533015  0.45013379  1
  Se  Se160  1  0.42253136  0.57547932  0.95224573  1
  Se  Se161  1  0.41618861  0.91948780  0.44530685  1
  Se  Se162  1  0.41777010  0.91722319  0.94839548  1
  Se  Se163  1  0.74105885  0.24769967  0.43660327  1
  Se  Se164  1  0.73919950  0.26189115  0.93949690  1
  Se  Se165  1  0.75144552  0.57846479  0.44657881  1
  Se  Se166  1  0.74978250  0.58327645  0.94137321  1
  Se  Se167  1  0.74201241  0.92335306  0.44431260  1
  Se  Se168  1  0.73601295  0.92027647  0.94521491  1
  Se  Se169  1  0.24802850  0.08868861  0.44767952  1
  Se  Se170  1  0.25385507  0.08753743  0.94153239  1
  Se  Se171  1  0.25113168  0.41816752  0.45509990  1
  Se  Se172  1  0.25883460  0.41210402  0.93497115  1
  Se  Se173  1  0.25431190  0.74902202  0.44615797  1
  Se  Se174  1  0.26331085  0.73991733  0.93653219  1
  Se  Se175  1  0.57426898  0.08765133  0.44478159  1
  Se  Se176  1  0.58125884  0.08575913  0.95174295  1
  Se  Se177  1  0.56792144  0.43350656  0.44740566  1
  Se  Se178  1  0.56326778  0.43127860  0.93896566  1
  Se  Se179  1  0.58547577  0.75285722  0.44711864  1
  Se  Se180  1  0.58350949  0.74599172  0.94772675  1
  Se  Se181  1  0.92459278  0.07306953  0.44361995  1
  Se  Se182  1  0.92513721  0.07804945  0.94089040  1
  Se  Se183  1  0.91945419  0.41321034  0.44925933  1
  Se  Se184  1  0.91655682  0.42143777  0.95298276  1
  Se  Se185  1  0.91751943  0.74462591  0.43852604  1
  Se  Se186  1  0.91578187  0.73811472  0.93421394  1
  Se  Se187  1  0.24992185  0.24555720  0.31169759  1
  Se  Se188  1  0.25249057  0.25119534  0.80068038  1
  Se  Se189  1  0.24932939  0.57446500  0.31507496  1
  Se  Se190  1  0.24770952  0.57540507  0.80911850  1
  Se  Se191  1  0.25263307  0.91697443  0.30229704  1
  Se  Se192  1  0.25491969  0.91217303  0.79452044  1
  Se  Se193  1  0.57839819  0.25351324  0.30425392  1
  Se  Se194  1  0.58578246  0.25011822  0.79696140  1
  Se  Se195  1  0.58432809  0.58580171  0.30557803  1
  Se  Se196  1  0.59026112  0.58428890  0.80051365  1
  Se  Se197  1  0.59772053  0.93236343  0.30561661  1
  Se  Se198  1  0.57359808  0.91740601  0.81551870  1
  Se  Se199  1  0.90188818  0.24174799  0.31229379  1
  Se  Se200  1  0.90641790  0.24317796  0.81169571  1
  Se  Se201  1  0.91496841  0.57941525  0.30316158  1
  Se  Se202  1  0.91941547  0.58256924  0.79811487  1
  Se  Se203  1  0.90721891  0.90792355  0.31290507  1
  Se  Se204  1  0.90584805  0.91198873  0.80572134  1
  Se  Se205  1  0.08574356  0.08541542  0.31110556  1
  Se  Se206  1  0.08726679  0.08731897  0.80693329  1
  Se  Se207  1  0.09097774  0.41808394  0.31954958  1
  Se  Se208  1  0.08878409  0.42468119  0.81222052  1
  Se  Se209  1  0.08332524  0.74518360  0.30213027  1
  Se  Se210  1  0.08101395  0.74747941  0.79473319  1
  Se  Se211  1  0.41552447  0.08142909  0.30274668  1
  Se  Se212  1  0.41420726  0.07969891  0.80001701  1
  Se  Se213  1  0.42554495  0.42099204  0.30988938  1
  Se  Se214  1  0.42101755  0.41611936  0.79536754  1
  Se  Se215  1  0.42847015  0.76028625  0.31167584  1
  Se  Se216  1  0.42550316  0.74554860  0.81554913  1
  Se  Se217  1  0.74246578  0.07886336  0.29741264  1
  Se  Se218  1  0.75197664  0.09122385  0.81137133  1
  Se  Se219  1  0.74272761  0.41593771  0.30474017  1
  Se  Se220  1  0.75106709  0.41732951  0.80398776  1
  Se  Se221  1  0.74482644  0.74500995  0.30292420  1
  Se  Se222  1  0.75434768  0.76160948  0.79894649  1
  Se  Se223  1  0.25993197  0.08669362  0.19809297  1
  Se  Se224  1  0.25766331  0.08053808  0.69702856  1
  Se  Se225  1  0.24024074  0.42453896  0.19535093  1
  Se  Se226  1  0.25173332  0.41444917  0.69881221  1
  Se  Se227  1  0.24488312  0.75334802  0.18873272  1
  Se  Se228  1  0.24872309  0.75073432  0.68307176  1
  Se  Se229  1  0.58178585  0.08360489  0.19516654  1
  Se  Se230  1  0.57529091  0.08861185  0.68633051  1
  Se  Se231  1  0.57996465  0.41527958  0.18944675  1
  Se  Se232  1  0.59090450  0.41345780  0.68972595  1
  Se  Se233  1  0.58094971  0.73961125  0.20445813  1
  Se  Se234  1  0.58128945  0.74869222  0.70488472  1
  Se  Se235  1  0.90814667  0.09144086  0.18931395  1
  Se  Se236  1  0.90581965  0.09371356  0.69519597  1
  Se  Se237  1  0.90628428  0.41891198  0.19031663  1
  Se  Se238  1  0.90896269  0.41875725  0.68624865  1
  Se  Se239  1  0.91571381  0.74282457  0.19828070  1
  Se  Se240  1  0.91093265  0.75539897  0.69914497  1
  Se  Se241  1  0.08740626  0.24543652  0.19901248  1
  Se  Se242  1  0.08646339  0.24410867  0.69229240  1
  Se  Se243  1  0.07548148  0.58304566  0.20377069  1
  Se  Se244  1  0.08088112  0.58458321  0.69534973  1
  Se  Se245  1  0.09188609  0.90967528  0.18750345  1
  Se  Se246  1  0.09471105  0.91235329  0.68170339  1
  Se  Se247  1  0.43184305  0.24951769  0.18340548  1
  Se  Se248  1  0.41808207  0.25543270  0.69485371  1
  Se  Se249  1  0.42246227  0.58048715  0.19243331  1
  Se  Se250  1  0.42814106  0.57674441  0.68654985  1
  Se  Se251  1  0.41846354  0.91853943  0.20331956  1
  Se  Se252  1  0.42168887  0.91090346  0.70024077  1
  Se  Se253  1  0.74120395  0.25815301  0.20018878  1
  Se  Se254  1  0.76229189  0.23822694  0.70134606  1
  Se  Se255  1  0.74387944  0.58310380  0.19734059  1
  Se  Se256  1  0.74774114  0.58066794  0.69010289  1
  Se  Se257  1  0.75253811  0.91574550  0.19957954  1
  Se  Se258  1  0.75345519  0.91158931  0.68999592  1
