# generated using pymatgen
data_In86Cu29Se144
_symmetry_space_group_name_H-M   'P 1'
_cell_length_a   17.58584468
_cell_length_b   17.58242501
_cell_length_c   23.44863005
_cell_angle_alpha   89.98828332
_cell_angle_beta   90.01863701
_cell_angle_gamma   90.00707454
_symmetry_Int_Tables_number   1
_chemical_formula_structural   In86Cu29Se144
_chemical_formula_sum   'In86 Cu29 Se144'
_cell_volume   7250.35791926
_cell_formula_units_Z   1
loop_
 _symmetry_equiv_pos_site_id
 _symmetry_equiv_pos_as_xyz
  1  'x, y, z'
loop_
 _atom_site_type_symbol
 _atom_site_label
 _atom_site_symmetry_multiplicity
 _atom_site_fract_x
 _atom_site_fract_y
 _atom_site_fract_z
 _atom_site_occupancy
  In  In0  1  0.00687525  0.18053971  0.12587406  1
  In  In1  1  0.01188851  0.17928629  0.61738281  1
  In  In2  1  0.00363556  0.49729726  0.11663852  1
  In  In3  1  -0.00795115  0.49711316  0.63050592  1
  In  In4  1  0.00856896  0.83001911  0.12565068  1
  In  In5  1  -0.01405988  0.82963098  0.62262779  1
  In  In6  1  0.33621848  0.14986833  0.13103707  1
  In  In7  1  0.33207666  0.17055445  0.62729242  1
  In  In8  1  0.35403582  0.51806948  0.10215111  1
  In  In9  1  0.32090694  0.48756489  0.61704648  1
  In  In10  1  0.34799134  0.81836207  0.13218273  1
  In  In11  1  0.33886978  0.84319621  0.63212420  1
  In  In12  1  0.65660785  0.17504927  0.13498645  1
  In  In13  1  0.67793946  0.18182783  0.61288505  1
  In  In14  1  0.65858780  0.50881386  0.13767471  1
  In  In15  1  0.66700205  0.49932323  0.62431906  1
  In  In16  1  0.65755136  0.84257039  0.13428357  1
  In  In17  1  0.67357303  0.81505437  0.62761405  1
  In  In18  1  0.17703299  0.00745565  0.37168560  1
  In  In19  1  0.19018576  -0.00766988  0.86551793  1
  In  In20  1  0.16042092  0.34060419  0.38588051  1
  In  In21  1  0.19275135  0.34187103  0.85375148  1
  In  In22  1  0.16689541  0.66004033  0.37562335  1
  In  In23  1  0.15151686  0.66653502  0.86963670  1
  In  In24  1  0.50605713  0.00541722  0.36906978  1
  In  In25  1  0.49304266  0.01353560  0.88758334  1
  In  In26  1  0.50746773  0.32125785  0.38086118  1
  In  In27  1  0.50063171  0.33676939  0.87318032  1
  In  In28  1  0.49574428  0.66156994  0.36736535  1
  In  In29  1  0.50495561  0.65266636  0.89242639  1
  In  In30  1  0.82375618  0.00783543  0.38658935  1
  In  In31  1  0.83650163  0.00502538  0.87391622  1
  In  In32  1  0.82744521  0.34226053  0.38587826  1
  In  In33  1  0.84925410  0.36361825  0.83909700  1
  In  In34  1  0.82795707  0.66942939  0.38729290  1
  In  In35  1  0.83482074  0.65412540  0.86164799  1
  In  In36  1  -0.00377000  0.17109693  0.38825944  1
  In  In37  1  -0.00294598  0.17313242  0.86961657  1
  In  In38  1  0.00200160  0.50858058  0.39460225  1
  In  In39  1  0.01718816  0.51453777  0.85512151  1
  In  In40  1  -0.00703302  0.81630603  0.38444693  1
  In  In41  1  0.01485725  0.80997146  0.86787242  1
  In  In42  1  0.33523444  0.16757732  0.37982304  1
  In  In43  1  0.34212969  0.17666223  0.86146129  1
  In  In44  1  0.32848763  0.50547006  0.38103677  1
  In  In45  1  0.34404961  0.49412062  0.88361301  1
  In  In46  1  0.34277017  0.84141650  0.36520259  1
  In  In47  1  0.33049705  0.84093542  0.87380881  1
  In  In48  1  0.66506157  0.16673144  0.37728721  1
  In  In49  1  0.65338515  0.17616952  0.87698182  1
  In  In50  1  0.66234507  0.49652317  0.37563426  1
  In  In51  1  0.65839188  0.49539724  0.86253948  1
  In  In52  1  0.66724942  0.83533904  0.37298630  1
  In  In53  1  0.66374357  0.81782054  0.87432155  1
  In  In54  1  0.19168120  0.00952293  0.13056484  1
  In  In55  1  0.16690971  0.02076349  0.63169912  1
  In  In56  1  0.16340306  0.34381000  0.12521504  1
  In  In57  1  0.16300792  0.32651620  0.63324072  1
  In  In58  1  0.17952924  0.67139603  0.11499393  1
  In  In59  1  0.16405731  0.65032365  0.62167898  1
  In  In60  1  0.49833511  -0.00210141  0.12765880  1
  In  In61  1  0.48580979  0.00642795  0.62772382  1
  In  In62  1  0.50845884  0.33948442  0.11920370  1
  In  In63  1  0.49902154  0.33569370  0.62201652  1
  In  In64  1  0.50078022  0.66708111  0.12232613  1
  In  In65  1  0.51719924  0.66041455  0.63132571  1
  In  In66  1  0.83292809  -0.01526061  0.13231217  1
  In  In67  1  0.83074524  -0.00040482  0.61375208  1
  In  In68  1  0.83071862  0.32198914  0.12512590  1
  In  In69  1  0.83341130  0.34008671  0.62761660  1
  In  In70  1  0.82666148  0.65334234  0.12745449  1
  In  In71  1  0.83160767  0.65947129  0.62343906  1
  In  In72  1  -0.00162088  0.33789757  0.24972012  1
  In  In73  1  0.83221187  0.49869620  -0.00427914  1
  In  In74  1  0.16783223  0.82828552  -0.00538534  1
  In  In75  1  -0.00807525  0.00248940  0.26066533  1
  In  In76  1  0.33133597  0.33714634  0.25415614  1
  In  In77  1  -0.00107522  0.66425017  0.25416241  1
  In  In78  1  0.81174294  0.17049052  -0.00454284  1
  In  In79  1  0.82743674  0.82785399  -0.01453202  1
  In  In80  1  0.33125025  0.66874280  0.75247497  1
  In  In81  1  0.16754853  0.83564064  0.49776533  1
  In  In82  1  0.16986570  0.16956858  0.00163352  1
  In  In83  1  0.00215409  -0.00422863  0.74753336  1
  In  In84  1  0.66378975  0.00572629  0.74963254  1
  In  In85  1  0.50405521  0.83576094  0.50391717  1
  Cu  Cu86  1  0.49783720  0.16407724  0.25441093  1
  Cu  Cu87  1  0.66493641  0.33399807  0.50088566  1
  Cu  Cu88  1  0.00001154  0.00017827  0.50378452  1
  Cu  Cu89  1  0.16760609  0.49440687  0.74536750  1
  Cu  Cu90  1  0.83333658  0.82447639  0.74902631  1
  Cu  Cu91  1  0.49540897  0.49812792  0.75084986  1
  Cu  Cu92  1  0.66585865  0.33946462  -0.00558419  1
  Cu  Cu93  1  0.66378979  0.66799600  0.00341356  1
  Cu  Cu94  1  0.50087567  0.49949556  0.24631037  1
  Cu  Cu95  1  0.66906961  0.65870832  0.50299458  1
  Cu  Cu96  1  0.66025528  -0.00183149  0.49689860  1
  Cu  Cu97  1  0.34024481  0.66923903  0.50013519  1
  Cu  Cu98  1  0.33763882  0.32550714  -0.00664973  1
  Cu  Cu99  1  0.82469029  0.49558624  0.25791477  1
  Cu  Cu100  1  0.82238274  0.82906592  0.25580184  1
  Cu  Cu101  1  0.32999550  0.33514830  0.50357203  1
  Cu  Cu102  1  0.34006594  -0.00215911  0.00133348  1
  Cu  Cu103  1  0.82698775  0.16342010  0.25589152  1
  Cu  Cu104  1  -0.00027793  0.33564514  0.51042782  1
  Cu  Cu105  1  0.83473818  0.17175431  0.73872859  1
  Cu  Cu106  1  0.17092233  0.50557512  0.25200624  1
  Cu  Cu107  1  0.50157793  0.83650762  0.75515859  1
  Cu  Cu108  1  0.33140984  0.01083358  0.50091702  1
  Cu  Cu109  1  0.00410132  0.33868246  -0.00795377  1
  Cu  Cu110  1  0.00473779  -0.00453027  -0.00080778  1
  Cu  Cu111  1  0.50181098  0.17627428  0.74891544  1
  Cu  Cu112  1  0.17412805  0.84038909  0.24741388  1
  Cu  Cu113  1  0.49773945  0.82728188  0.24696487  1
  Cu  Cu114  1  0.65665639  0.00211315  0.00844194  1
  Se  Se115  1  0.08018791  0.07463304  0.06285830  1
  Se  Se116  1  0.08690847  0.08388472  0.55198407  1
  Se  Se117  1  0.08721135  0.41737157  0.04802789  1
  Se  Se118  1  0.08422159  0.41520215  0.56547562  1
  Se  Se119  1  0.07067081  0.73938057  0.05150573  1
  Se  Se120  1  0.08120375  0.74622916  0.55835045  1
  Se  Se121  1  0.42013547  0.08374533  0.05553184  1
  Se  Se122  1  0.41724247  0.09097511  0.55385568  1
  Se  Se123  1  0.42134503  0.40958093  0.04653521  1
  Se  Se124  1  0.41854293  0.42013164  0.55104098  1
  Se  Se125  1  0.40668935  0.73681702  0.05385689  1
  Se  Se126  1  0.41510907  0.74516310  0.56490266  1
  Se  Se127  1  0.74554774  0.07469512  0.06684687  1
  Se  Se128  1  0.74658847  0.08285726  0.54829625  1
  Se  Se129  1  0.74449075  0.41291335  0.06167008  1
  Se  Se130  1  0.74905119  0.41638040  0.55486274  1
  Se  Se131  1  0.74688408  0.74834953  0.06107858  1
  Se  Se132  1  0.75267558  0.74760655  0.55070215  1
  Se  Se133  1  0.26171774  0.25652645  0.06477677  1
  Se  Se134  1  0.24780843  0.25186617  0.55823354  1
  Se  Se135  1  0.22840622  0.56019187  0.05556272  1
  Se  Se136  1  0.25347633  0.58474548  0.54892862  1
  Se  Se137  1  0.25782862  0.91660730  0.05876490  1
  Se  Se138  1  0.25533458  0.92539182  0.55932637  1
  Se  Se139  1  0.59245490  0.25174313  0.05295583  1
  Se  Se140  1  0.57723021  0.24990421  0.55017164  1
  Se  Se141  1  0.58694597  0.57898228  0.05672681  1
  Se  Se142  1  0.57938222  0.57917921  0.55260028  1
  Se  Se143  1  0.57780754  0.91150710  0.05700353  1
  Se  Se144  1  0.59163590  0.92275331  0.56884252  1
  Se  Se145  1  0.92315945  0.25514146  0.04896438  1
  Se  Se146  1  0.91065119  0.25037013  0.55753120  1
  Se  Se147  1  0.92254373  0.59335595  0.05386819  1
  Se  Se148  1  0.91454419  0.57593091  0.55649407  1
  Se  Se149  1  0.92076119  0.91455142  0.05397949  1
  Se  Se150  1  0.91430937  0.91293712  0.54890479  1
  Se  Se151  1  0.08188737  0.25380455  0.45358041  1
  Se  Se152  1  0.08610371  0.25687300  0.93541372  1
  Se  Se153  1  0.09310045  0.59051906  0.45334608  1
  Se  Se154  1  0.07694411  0.58214337  0.94026025  1
  Se  Se155  1  0.07614616  0.92543115  0.43642159  1
  Se  Se156  1  0.07982412  0.92092440  0.93287328  1
  Se  Se157  1  0.41301817  0.25251429  0.44945051  1
  Se  Se158  1  0.42104809  0.24454009  0.93991818  1
  Se  Se159  1  0.42085070  0.58607249  0.44493411  1
  Se  Se160  1  0.40832863  0.58399959  0.95600400  1
  Se  Se161  1  0.41192472  0.92532945  0.44486171  1
  Se  Se162  1  0.41813301  0.91214443  0.94613836  1
  Se  Se163  1  0.74801590  0.24814032  0.44783291  1
  Se  Se164  1  0.75074400  0.27211051  0.92895898  1
  Se  Se165  1  0.74856676  0.57355831  0.44724255  1
  Se  Se166  1  0.73970224  0.58928284  0.93856456  1
  Se  Se167  1  0.74527346  0.91155780  0.44816005  1
  Se  Se168  1  0.73512499  0.93158180  0.93901338  1
  Se  Se169  1  0.24398161  0.08983025  0.44808642  1
  Se  Se170  1  0.26078544  0.08013095  0.94104147  1
  Se  Se171  1  0.24806092  0.42179168  0.45028543  1
  Se  Se172  1  0.25029672  0.40669615  0.94243306  1
  Se  Se173  1  0.26422861  0.75157389  0.43851602  1
  Se  Se174  1  0.25497655  0.73708362  0.93577540  1
  Se  Se175  1  0.57836240  0.08349052  0.44552919  1
  Se  Se176  1  0.58459319  0.09263680  0.95232639  1
  Se  Se177  1  0.58040132  0.41556858  0.44681981  1
  Se  Se178  1  0.58323002  0.42327737  0.94139197  1
  Se  Se179  1  0.58645884  0.74121353  0.44302717  1
  Se  Se180  1  0.58133986  0.75421706  0.95176161  1
  Se  Se181  1  0.91350181  0.08491546  0.45295581  1
  Se  Se182  1  0.92340688  0.08292638  0.94720773  1
  Se  Se183  1  0.91825764  0.41660661  0.45339306  1
  Se  Se184  1  0.92026469  0.41313311  0.93220841  1
  Se  Se185  1  0.92576947  0.73147554  0.45576303  1
  Se  Se186  1  0.92138063  0.73368312  0.93637373  1
  Se  Se187  1  0.23955678  0.25225370  0.31504514  1
  Se  Se188  1  0.24106043  0.23026338  0.79333312  1
  Se  Se189  1  0.25455185  0.58767069  0.30490418  1
  Se  Se190  1  0.24716763  0.57195788  0.81038015  1
  Se  Se191  1  0.25455337  0.92456363  0.30133477  1
  Se  Se192  1  0.24488633  0.89703068  0.79503521  1
  Se  Se193  1  0.58415141  0.24742525  0.30418412  1
  Se  Se194  1  0.58648276  0.25864224  0.80112523  1
  Se  Se195  1  0.58478035  0.58077434  0.30259415  1
  Se  Se196  1  0.57034045  0.58899552  0.80529690  1
  Se  Se197  1  0.57833744  0.90984273  0.30446585  1
  Se  Se198  1  0.57946965  0.91909217  0.81614189  1
  Se  Se199  1  0.91057943  0.24654400  0.31101702  1
  Se  Se200  1  0.92208087  0.24923880  0.79409392  1
  Se  Se201  1  0.91219115  0.57276400  0.31431417  1
  Se  Se202  1  0.90513620  0.56340528  0.79461756  1
  Se  Se203  1  0.90653590  0.90475073  0.31664512  1
  Se  Se204  1  0.91163405  0.90445351  0.81138100  1
  Se  Se205  1  0.08303987  0.09751354  0.31142764  1
  Se  Se206  1  0.09013016  0.08168936  0.81206584  1
  Se  Se207  1  0.08437464  0.43175891  0.31090765  1
  Se  Se208  1  0.08380520  0.40768212  0.79712101  1
  Se  Se209  1  0.09229073  0.76192100  0.30750302  1
  Se  Se210  1  0.08853398  0.74456822  0.78835685  1
  Se  Se211  1  0.41151590  0.08431071  0.30690963  1
  Se  Se212  1  0.42875419  0.08378984  0.80321276  1
  Se  Se213  1  0.42517776  0.42313253  0.31363325  1
  Se  Se214  1  0.41175541  0.41548702  0.80431335  1
  Se  Se215  1  0.41273208  0.74597666  0.30004528  1
  Se  Se216  1  0.42648098  0.75024789  0.81485880  1
  Se  Se217  1  0.74631868  0.07847915  0.30838871  1
  Se  Se218  1  0.75829341  0.09744639  0.80724654  1
  Se  Se219  1  0.74514682  0.40790397  0.30790994  1
  Se  Se220  1  0.74221646  0.43082775  0.78654127  1
  Se  Se221  1  0.74768408  0.74086986  0.31056724  1
  Se  Se222  1  0.74696406  0.74497291  0.80251936  1
  Se  Se223  1  0.24769458  0.09403826  0.20817522  1
  Se  Se224  1  0.27200037  0.07016946  0.69688832  1
  Se  Se225  1  0.25118882  0.42967768  0.18974730  1
  Se  Se226  1  0.25500390  0.41101792  0.69724831  1
  Se  Se227  1  0.24659008  0.74761078  0.19458269  1
  Se  Se228  1  0.24407361  0.75154375  0.68503350  1
  Se  Se229  1  0.58023930  0.08100160  0.19812117  1
  Se  Se230  1  0.58162136  0.09658932  0.68640946  1
  Se  Se231  1  0.58433905  0.40965212  0.19897287  1
  Se  Se232  1  0.57889942  0.41937742  0.69338879  1
  Se  Se233  1  0.58379071  0.74441454  0.19572744  1
  Se  Se234  1  0.58360689  0.75335428  0.70204117  1
  Se  Se235  1  0.91146639  0.09490032  0.18947675  1
  Se  Se236  1  0.91283867  0.08427123  0.68460438  1
  Se  Se237  1  0.90547751  0.42834699  0.18965961  1
  Se  Se238  1  0.91963606  0.40854140  0.70157550  1
  Se  Se239  1  0.90805538  0.75699210  0.19278005  1
  Se  Se240  1  0.91573216  0.74287165  0.69489912  1
  Se  Se241  1  0.09866609  0.24678058  0.19897664  1
  Se  Se242  1  0.09089869  0.23164386  0.69999682  1
  Se  Se243  1  0.08685571  0.57939159  0.18928507  1
  Se  Se244  1  0.08286895  0.58018134  0.69701345  1
  Se  Se245  1  0.08731950  0.92069266  0.19242493  1
  Se  Se246  1  0.08821803  0.90957591  0.68334678  1
  Se  Se247  1  0.42309197  0.24923801  0.19147437  1
  Se  Se248  1  0.41713442  0.25597115  0.69437594  1
  Se  Se249  1  0.41738483  0.57898714  0.19020777  1
  Se  Se250  1  0.41483409  0.57702580  0.68847018  1
  Se  Se251  1  0.41502955  0.91683829  0.19757454  1
  Se  Se252  1  0.41975461  0.92093037  0.70371310  1
  Se  Se253  1  0.75028032  0.25175974  0.20015881  1
  Se  Se254  1  0.74476754  0.25513016  0.69413727  1
  Se  Se255  1  0.74830971  0.58637629  0.20496622  1
  Se  Se256  1  0.72183313  0.60840073  0.68716399  1
  Se  Se257  1  0.74449721  0.91984406  0.20479806  1
  Se  Se258  1  0.75756876  0.91365017  0.69352438  1
