# generated using pymatgen
data_In86Cu29Se144
_symmetry_space_group_name_H-M   'P 1'
_cell_length_a   17.57850905
_cell_length_b   17.58128034
_cell_length_c   23.44451865
_cell_angle_alpha   90.01680992
_cell_angle_beta   89.97851723
_cell_angle_gamma   90.00713574
_symmetry_Int_Tables_number   1
_chemical_formula_structural   In86Cu29Se144
_chemical_formula_sum   'In86 Cu29 Se144'
_cell_volume   7245.59080701
_cell_formula_units_Z   1
loop_
 _symmetry_equiv_pos_site_id
 _symmetry_equiv_pos_as_xyz
  1  'x, y, z'
loop_
 _atom_site_type_symbol
 _atom_site_label
 _atom_site_symmetry_multiplicity
 _atom_site_fract_x
 _atom_site_fract_y
 _atom_site_fract_z
 _atom_site_occupancy
  In  In0  1  -0.00579513  0.16451485  0.12596075  1
  In  In1  1  0.01701354  0.16670877  0.62158487  1
  In  In2  1  0.00456226  0.50233116  0.12103100  1
  In  In3  1  0.01032992  0.49328061  0.63456785  1
  In  In4  1  -0.00254120  0.83307528  0.12683340  1
  In  In5  1  -0.00545881  0.83477358  0.61918311  1
  In  In6  1  0.33613414  0.14860129  0.14107976  1
  In  In7  1  0.33465686  0.16593157  0.61727924  1
  In  In8  1  0.31489295  0.50340174  0.12375283  1
  In  In9  1  0.31930996  0.51195622  0.63346722  1
  In  In10  1  0.33858664  0.84216186  0.12105549  1
  In  In11  1  0.31795078  0.82330242  0.61087957  1
  In  In12  1  0.65748062  0.15716453  0.12368817  1
  In  In13  1  0.64840077  0.17245934  0.61753112  1
  In  In14  1  0.67348809  0.49364304  0.12033053  1
  In  In15  1  0.66808114  0.50013504  0.62420644  1
  In  In16  1  0.67616309  0.84578951  0.12267549  1
  In  In17  1  0.67382025  0.83066118  0.61084063  1
  In  In18  1  0.16557841  -0.00031495  0.36776315  1
  In  In19  1  0.15803354  -0.01516648  0.88027982  1
  In  In20  1  0.18001099  0.31669444  0.39082120  1
  In  In21  1  0.17750247  0.34243119  0.86879922  1
  In  In22  1  0.15514780  0.68208067  0.38413242  1
  In  In23  1  0.16492449  0.67050577  0.87339579  1
  In  In24  1  0.49635212  -0.00303704  0.37754477  1
  In  In25  1  0.50374356  -0.00078462  0.88508765  1
  In  In26  1  0.47802566  0.33485636  0.37715797  1
  In  In27  1  0.48737569  0.32895433  0.87510554  1
  In  In28  1  0.49569749  0.69741890  0.38120883  1
  In  In29  1  0.50080744  0.67824771  0.87392147  1
  In  In30  1  0.82478998  -0.01021237  0.36066378  1
  In  In31  1  0.85514708  -0.00691928  0.89802041  1
  In  In32  1  0.82843496  0.33440986  0.37339178  1
  In  In33  1  0.84762859  0.32630545  0.88053542  1
  In  In34  1  0.85107767  0.66833372  0.37129832  1
  In  In35  1  0.84195947  0.65506412  0.88320029  1
  In  In36  1  0.02370750  0.15935489  0.37289753  1
  In  In37  1  -0.00945209  0.16071531  0.87736471  1
  In  In38  1  0.00299428  0.51729294  0.36987829  1
  In  In39  1  0.00539923  0.50355327  0.87474574  1
  In  In40  1  0.00393426  0.83516872  0.36968056  1
  In  In41  1  0.00999168  0.82203160  0.88527975  1
  In  In42  1  0.32405625  0.16303805  0.37534848  1
  In  In43  1  0.33164099  0.17867745  0.87765443  1
  In  In44  1  0.32664309  0.48463713  0.37403320  1
  In  In45  1  0.32245605  0.49557029  0.87167224  1
  In  In46  1  0.30527213  0.86836636  0.40140983  1
  In  In47  1  0.33942908  0.82965648  0.87783799  1
  In  In48  1  0.67065128  0.15327484  0.37513783  1
  In  In49  1  0.67310182  0.16077412  0.88347340  1
  In  In50  1  0.66697294  0.50480231  0.37070870  1
  In  In51  1  0.67442989  0.50924286  0.87745215  1
  In  In52  1  0.65415429  0.84345036  0.38297614  1
  In  In53  1  0.66753745  0.83914107  0.88334864  1
  In  In54  1  0.17591287  -0.00669742  0.13459741  1
  In  In55  1  0.16551250  -0.00269877  0.59649909  1
  In  In56  1  0.16420730  0.34035695  0.12441187  1
  In  In57  1  0.16663577  0.33670900  0.62716891  1
  In  In58  1  0.15253482  0.65942102  0.11964817  1
  In  In59  1  0.16417425  0.66725386  0.62592029  1
  In  In60  1  0.49957407  0.00205840  0.12826203  1
  In  In61  1  0.48942588  -0.00177926  0.60920355  1
  In  In62  1  0.50047135  0.31557428  0.12540193  1
  In  In63  1  0.48805128  0.31207523  0.61674414  1
  In  In64  1  0.48686827  0.68046685  0.12332134  1
  In  In65  1  0.49217559  0.65771954  0.62396797  1
  In  In66  1  0.83474674  -0.00369671  0.13016147  1
  In  In67  1  0.84600942  -0.01299025  0.62017336  1
  In  In68  1  0.84177148  0.33485723  0.11552214  1
  In  In69  1  0.83294322  0.34461550  0.62794759  1
  In  In70  1  0.84154401  0.67583393  0.12134574  1
  In  In71  1  0.84265430  0.68579978  0.62418714  1
  In  In72  1  0.00582983  0.33055728  0.24915095  1
  In  In73  1  0.16761462  0.16458269  0.00513087  1
  In  In74  1  0.83746815  0.15839941  0.49247407  1
  In  In75  1  0.32848268  0.66859094  0.25161259  1
  In  In76  1  0.66844756  0.00438531  0.75438176  1
  In  In77  1  0.66876468  0.66448274  0.74915827  1
  In  In78  1  0.49934813  0.50113467  0.49838538  1
  In  In79  1  0.83623427  0.50174725  0.49973714  1
  In  In80  1  0.66549841  0.32910456  0.25228869  1
  In  In81  1  0.00376106  -0.00042714  0.74802785  1
  In  In82  1  0.66942129  0.67078064  0.24617121  1
  In  In83  1  0.50097783  0.49948570  -0.00642346  1
  In  In84  1  0.66215210  0.33539355  0.74573891  1
  In  In85  1  0.33161707  0.00446377  0.73806852  1
  Cu  Cu86  1  0.66627508  0.00390994  0.49570515  1
  Cu  Cu87  1  0.16815817  0.17484748  0.74720133  1
  Cu  Cu88  1  0.66622167  0.66867631  -0.00056253  1
  Cu  Cu89  1  0.16513146  0.50498951  0.75193537  1
  Cu  Cu90  1  0.49297627  0.16195099  0.25295817  1
  Cu  Cu91  1  0.83766295  0.83041469  0.75180595  1
  Cu  Cu92  1  0.48730181  0.49416128  0.74844427  1
  Cu  Cu93  1  0.84466393  0.49932882  0.75465371  1
  Cu  Cu94  1  0.32466804  0.33258592  0.50233883  1
  Cu  Cu95  1  0.83455778  0.16481285  0.24829004  1
  Cu  Cu96  1  0.49510928  0.84792467  0.25229315  1
  Cu  Cu97  1  0.83476370  0.16875605  0.75492112  1
  Cu  Cu98  1  0.16777073  0.83103106  0.74559201  1
  Cu  Cu99  1  0.00440714  0.33292711  0.50254288  1
  Cu  Cu100  1  0.00873017  0.33947009  -0.00218851  1
  Cu  Cu101  1  0.33219411  0.66178557  0.50283313  1
  Cu  Cu102  1  0.83669681  0.83124500  0.24710882  1
  Cu  Cu103  1  0.33755639  0.33026671  -0.00034376  1
  Cu  Cu104  1  0.67507953  0.32841003  0.00204231  1
  Cu  Cu105  1  0.00026459  0.66855826  0.00020722  1
  Cu  Cu106  1  0.33520037  0.00025736  0.00765628  1
  Cu  Cu107  1  0.16649940  0.82906204  0.25417916  1
  Cu  Cu108  1  0.66729015  0.00193143  0.00794915  1
  Cu  Cu109  1  0.32332329  0.67581605  0.00010486  1
  Cu  Cu110  1  0.49250178  0.82615576  0.74812165  1
  Cu  Cu111  1  0.49206019  0.16736099  0.74825779  1
  Cu  Cu112  1  0.49864387  0.49983289  0.25543458  1
  Cu  Cu113  1  0.16372658  0.49615883  0.25032161  1
  Cu  Cu114  1  0.00528695  0.67187422  0.49972108  1
  Se  Se115  1  0.08149480  0.07304492  0.06374308  1
  Se  Se116  1  0.05226152  0.06432993  0.54922036  1
  Se  Se117  1  0.09061972  0.42267181  0.05138386  1
  Se  Se118  1  0.08350275  0.41932672  0.55642607  1
  Se  Se119  1  0.08180427  0.75419390  0.05359418  1
  Se  Se120  1  0.08741862  0.75454469  0.55603331  1
  Se  Se121  1  0.41540842  0.08681080  0.05948654  1
  Se  Se122  1  0.42392824  0.09702334  0.54650237  1
  Se  Se123  1  0.41459733  0.41510549  0.06117765  1
  Se  Se124  1  0.40555873  0.41768433  0.56139001  1
  Se  Se125  1  0.41413231  0.75684822  0.04773206  1
  Se  Se126  1  0.41883896  0.74401234  0.55367477  1
  Se  Se127  1  0.75342980  0.08345939  0.06043731  1
  Se  Se128  1  0.74519324  0.07794710  0.56254241  1
  Se  Se129  1  0.75618309  0.41832509  0.04909569  1
  Se  Se130  1  0.73917857  0.40693755  0.55296914  1
  Se  Se131  1  0.74680231  0.75025663  0.05652736  1
  Se  Se132  1  0.75897362  0.74689573  0.54826994  1
  Se  Se133  1  0.26073650  0.25164716  0.06426033  1
  Se  Se134  1  0.24172367  0.24878243  0.55659318  1
  Se  Se135  1  0.24446112  0.58557014  0.04993797  1
  Se  Se136  1  0.24452406  0.58202582  0.55474274  1
  Se  Se137  1  0.24596842  0.91731267  0.05437975  1
  Se  Se138  1  0.28209347  0.93867277  0.54832876  1
  Se  Se139  1  0.58646630  0.24800737  0.05216067  1
  Se  Se140  1  0.58153013  0.25638091  0.54431559  1
  Se  Se141  1  0.58361179  0.59109085  0.06087210  1
  Se  Se142  1  0.59506252  0.59165041  0.55512692  1
  Se  Se143  1  0.57978764  0.91785057  0.05759854  1
  Se  Se144  1  0.58654721  0.91843502  0.55104226  1
  Se  Se145  1  0.92857853  0.25263616  0.05118964  1
  Se  Se146  1  0.91648246  0.25560987  0.55908010  1
  Se  Se147  1  0.91791020  0.58413966  0.05433774  1
  Se  Se148  1  0.92780917  0.58805389  0.56158646  1
  Se  Se149  1  0.89853412  0.90005913  0.06165089  1
  Se  Se150  1  0.91877565  0.91390541  0.54463561  1
  Se  Se151  1  0.08343803  0.24161761  0.45355365  1
  Se  Se152  1  0.08604078  0.25505723  0.93761429  1
  Se  Se153  1  0.08408514  0.58232943  0.44825052  1
  Se  Se154  1  0.08543257  0.58725947  0.94483959  1
  Se  Se155  1  0.10453914  0.89786117  0.43548058  1
  Se  Se156  1  0.06125890  0.93038021  0.94952512  1
  Se  Se157  1  0.40594368  0.24919183  0.44757897  1
  Se  Se158  1  0.42175112  0.24377890  0.95129364  1
  Se  Se159  1  0.40938700  0.58899938  0.43517729  1
  Se  Se160  1  0.40703326  0.59336754  0.94069382  1
  Se  Se161  1  0.44182154  0.88502331  0.43852037  1
  Se  Se162  1  0.41477087  0.91742490  0.94787259  1
  Se  Se163  1  0.74187651  0.25542704  0.44242729  1
  Se  Se164  1  0.75850559  0.24670104  0.94646025  1
  Se  Se165  1  0.74922242  0.59107126  0.43785680  1
  Se  Se166  1  0.75162032  0.58115634  0.95305745  1
  Se  Se167  1  0.75196820  0.92249493  0.44310157  1
  Se  Se168  1  0.75006889  0.91877030  0.95235402  1
  Se  Se169  1  0.24715515  0.07479559  0.44264973  1
  Se  Se170  1  0.25658577  0.07399030  0.93989053  1
  Se  Se171  1  0.24430282  0.42283783  0.45307116  1
  Se  Se172  1  0.25288932  0.41415002  0.94853063  1
  Se  Se173  1  0.24925175  0.74962580  0.45262324  1
  Se  Se174  1  0.24296344  0.75907512  0.94338921  1
  Se  Se175  1  0.57976731  0.08522046  0.44501614  1
  Se  Se176  1  0.58484269  0.08455647  0.95123718  1
  Se  Se177  1  0.58668568  0.41153845  0.43546281  1
  Se  Se178  1  0.59438460  0.40473412  0.93731920  1
  Se  Se179  1  0.59764180  0.74131153  0.45077296  1
  Se  Se180  1  0.58228737  0.75175069  0.94695082  1
  Se  Se181  1  0.92110853  0.07337249  0.42733245  1
  Se  Se182  1  0.92196895  0.09347256  0.95900893  1
  Se  Se183  1  0.92640853  0.40999047  0.43901149  1
  Se  Se184  1  0.92140373  0.42109361  0.94484642  1
  Se  Se185  1  0.92324724  0.75258979  0.44343457  1
  Se  Se186  1  0.91148809  0.75085642  0.94912983  1
  Se  Se187  1  0.25709423  0.26176759  0.30880984  1
  Se  Se188  1  0.25562319  0.25186785  0.80121686  1
  Se  Se189  1  0.23936149  0.57998529  0.31291687  1
  Se  Se190  1  0.25010461  0.58807551  0.80478595  1
  Se  Se191  1  0.25483569  0.91159416  0.30314853  1
  Se  Se192  1  0.24694673  0.91438039  0.80442758  1
  Se  Se193  1  0.57299826  0.24409304  0.31337413  1
  Se  Se194  1  0.58035506  0.23925463  0.80878532  1
  Se  Se195  1  0.57052651  0.58981937  0.31041393  1
  Se  Se196  1  0.57340749  0.57198868  0.80659706  1
  Se  Se197  1  0.58651535  0.92316980  0.30470968  1
  Se  Se198  1  0.57326526  0.90798219  0.80656050  1
  Se  Se199  1  0.91311737  0.24155208  0.31155755  1
  Se  Se200  1  0.92325307  0.24973484  0.80379236  1
  Se  Se201  1  0.91140850  0.57775061  0.29841917  1
  Se  Se202  1  0.92237884  0.58908387  0.80526776  1
  Se  Se203  1  0.92226029  0.91615608  0.29792588  1
  Se  Se204  1  0.91480441  0.91296411  0.81167652  1
  Se  Se205  1  0.09360352  0.08623448  0.29445868  1
  Se  Se206  1  0.09516073  0.08979519  0.80971896  1
  Se  Se207  1  0.09104059  0.41534099  0.31613197  1
  Se  Se208  1  0.08385030  0.41773075  0.80437522  1
  Se  Se209  1  0.08065477  0.74254820  0.30056466  1
  Se  Se210  1  0.08260707  0.75531443  0.80330576  1
  Se  Se211  1  0.41284103  0.07941543  0.30904210  1
  Se  Se212  1  0.41914431  0.08337564  0.81074374  1
  Se  Se213  1  0.41014002  0.41414783  0.29898417  1
  Se  Se214  1  0.40984660  0.41162632  0.80577292  1
  Se  Se215  1  0.41002789  0.76766924  0.30780437  1
  Se  Se216  1  0.41017493  0.74534738  0.80236731  1
  Se  Se217  1  0.74508207  0.08303394  0.29669436  1
  Se  Se218  1  0.76752774  0.08073890  0.81614871  1
  Se  Se219  1  0.75902025  0.42788494  0.30117228  1
  Se  Se220  1  0.75561997  0.42002600  0.80842203  1
  Se  Se221  1  0.75343728  0.75809513  0.31156393  1
  Se  Se222  1  0.75454795  0.75428030  0.81282188  1
  Se  Se223  1  0.23991427  0.08420665  0.20780782  1
  Se  Se224  1  0.23208694  0.08683491  0.68204583  1
  Se  Se225  1  0.24902613  0.41568203  0.19734748  1
  Se  Se226  1  0.24744215  0.41751168  0.69947334  1
  Se  Se227  1  0.24253434  0.75313349  0.18533665  1
  Se  Se228  1  0.25350858  0.74916342  0.69339922  1
  Se  Se229  1  0.58169448  0.08316963  0.20017108  1
  Se  Se230  1  0.57166949  0.08389384  0.69076747  1
  Se  Se231  1  0.57576358  0.42228433  0.19083205  1
  Se  Se232  1  0.56751474  0.42058067  0.68499240  1
  Se  Se233  1  0.57259021  0.76286577  0.19251835  1
  Se  Se234  1  0.58222811  0.75621313  0.68795923  1
  Se  Se235  1  0.91960601  0.08106735  0.19818363  1
  Se  Se236  1  0.90980714  0.08974590  0.68934046  1
  Se  Se237  1  0.91378384  0.41943468  0.19136635  1
  Se  Se238  1  0.92079912  0.41111203  0.70015401  1
  Se  Se239  1  0.92095258  0.74453971  0.19888271  1
  Se  Se240  1  0.92661313  0.75424386  0.69886850  1
  Se  Se241  1  0.09470612  0.23991873  0.19062215  1
  Se  Se242  1  0.07928117  0.25438511  0.69641722  1
  Se  Se243  1  0.08196759  0.57993312  0.19688680  1
  Se  Se244  1  0.08181651  0.58945168  0.69919736  1
  Se  Se245  1  0.08442531  0.91065287  0.19727079  1
  Se  Se246  1  0.09628446  0.91747839  0.68420693  1
  Se  Se247  1  0.41482304  0.24957847  0.19925075  1
  Se  Se248  1  0.40731312  0.24727217  0.69510674  1
  Se  Se249  1  0.42086077  0.57722864  0.19029720  1
  Se  Se250  1  0.41184165  0.58818196  0.69987677  1
  Se  Se251  1  0.40866172  0.92472042  0.19641785  1
  Se  Se252  1  0.42042626  0.90726384  0.68459240  1
  Se  Se253  1  0.75757271  0.24729226  0.18762736  1
  Se  Se254  1  0.75170674  0.23856444  0.68942705  1
  Se  Se255  1  0.75689376  0.57800869  0.18850291  1
  Se  Se256  1  0.76453928  0.57629098  0.69067311  1
  Se  Se257  1  0.74794634  0.91799371  0.20211820  1
  Se  Se258  1  0.75461946  0.90925077  0.69311620  1
