# generated using pymatgen
data_In86Cu29Se144
_symmetry_space_group_name_H-M   'P 1'
_cell_length_a   17.57752876
_cell_length_b   17.57833894
_cell_length_c   23.44118455
_cell_angle_alpha   89.98439658
_cell_angle_beta   90.03387097
_cell_angle_gamma   90.00927274
_symmetry_Int_Tables_number   1
_chemical_formula_structural   In86Cu29Se144
_chemical_formula_sum   'In86 Cu29 Se144'
_cell_volume   7242.94367292
_cell_formula_units_Z   1
loop_
 _symmetry_equiv_pos_site_id
 _symmetry_equiv_pos_as_xyz
  1  'x, y, z'
loop_
 _atom_site_type_symbol
 _atom_site_label
 _atom_site_symmetry_multiplicity
 _atom_site_fract_x
 _atom_site_fract_y
 _atom_site_fract_z
 _atom_site_occupancy
  In  In0  1  0.00234406  0.17215581  0.12370613  1
  In  In1  1  -0.01173670  0.17181305  0.62766466  1
  In  In2  1  -0.00570541  0.50248795  0.13181793  1
  In  In3  1  -0.00314361  0.49567111  0.61624857  1
  In  In4  1  0.00247452  0.81880007  0.12687601  1
  In  In5  1  0.00731488  0.83986954  0.63006500  1
  In  In6  1  0.33079865  0.16810109  0.12631052  1
  In  In7  1  0.35170180  0.16810851  0.62222377  1
  In  In8  1  0.33581636  0.49827555  0.13270584  1
  In  In9  1  0.31989077  0.49110694  0.61915616  1
  In  In10  1  0.33802400  0.83203330  0.11832469  1
  In  In11  1  0.33824460  0.82292837  0.62419146  1
  In  In12  1  0.65965653  0.16057050  0.11893607  1
  In  In13  1  0.65807013  0.17226808  0.61751341  1
  In  In14  1  0.67828600  0.49854889  0.12728654  1
  In  In15  1  0.66863430  0.50124907  0.61936134  1
  In  In16  1  0.65458274  0.84110171  0.13415217  1
  In  In17  1  0.66479690  0.83526016  0.63492200  1
  In  In18  1  0.17111063  -0.01114269  0.36911550  1
  In  In19  1  0.16628364  0.00154822  0.88356247  1
  In  In20  1  0.17957170  0.34808678  0.36272204  1
  In  In21  1  0.16899538  0.32634291  0.87370205  1
  In  In22  1  0.16195851  0.65904476  0.36655480  1
  In  In23  1  0.18049212  0.67134135  0.88221671  1
  In  In24  1  0.51193195  0.01247192  0.36680433  1
  In  In25  1  0.50354592  -0.00492529  0.88044268  1
  In  In26  1  0.49650348  0.34124892  0.38455772  1
  In  In27  1  0.47967115  0.33419842  0.87643637  1
  In  In28  1  0.49100305  0.65230338  0.36539740  1
  In  In29  1  0.51088545  0.66279889  0.87846961  1
  In  In30  1  0.82550049  0.02440660  0.37115418  1
  In  In31  1  0.83920283  0.00750554  0.87144721  1
  In  In32  1  0.83763812  0.32202115  0.37908918  1
  In  In33  1  0.83558849  0.33197646  0.88504116  1
  In  In34  1  0.82162479  0.65385703  0.36601139  1
  In  In35  1  0.81583269  0.66905024  0.87682336  1
  In  In36  1  -0.02328007  0.17803277  0.37315906  1
  In  In37  1  0.01173344  0.15943462  0.88478468  1
  In  In38  1  0.00105604  0.49666495  0.37095924  1
  In  In39  1  -0.00455992  0.48590142  0.87480445  1
  In  In40  1  0.01385836  0.82956096  0.36875590  1
  In  In41  1  -0.00301245  0.84631157  0.88084900  1
  In  In42  1  0.34474149  0.17740269  0.36425405  1
  In  In43  1  0.32763606  0.17871334  0.88824854  1
  In  In44  1  0.33584481  0.50250330  0.37668900  1
  In  In45  1  0.34180496  0.49953376  0.86897482  1
  In  In46  1  0.33028854  0.82874995  0.36292543  1
  In  In47  1  0.33691749  0.82520268  0.89716129  1
  In  In48  1  0.67350611  0.16936219  0.37884326  1
  In  In49  1  0.67360859  0.16213334  0.88182800  1
  In  In50  1  0.65274024  0.49587474  0.39118825  1
  In  In51  1  0.66086319  0.51564579  0.87358603  1
  In  In52  1  0.66607914  0.83486163  0.36506570  1
  In  In53  1  0.65613897  0.82954668  0.87055111  1
  In  In54  1  0.17777063  0.01532675  0.11830521  1
  In  In55  1  0.16743479  -0.01464949  0.62983856  1
  In  In56  1  0.17745085  0.31900033  0.13345203  1
  In  In57  1  0.17475710  0.34985800  0.62613078  1
  In  In58  1  0.16597987  0.66623800  0.12611569  1
  In  In59  1  0.17349845  0.65065439  0.62510499  1
  In  In60  1  0.49983029  -0.00161138  0.12312503  1
  In  In61  1  0.50610989  0.01756125  0.62374462  1
  In  In62  1  0.49358254  0.32033574  0.12080182  1
  In  In63  1  0.49554557  0.32938611  0.62012216  1
  In  In64  1  0.48792780  0.67829506  0.13294740  1
  In  In65  1  0.50571900  0.66938869  0.62116040  1
  In  In66  1  0.81877962  0.00395036  0.12851283  1
  In  In67  1  0.82210306  0.01130813  0.63427113  1
  In  In68  1  0.83506351  0.33804323  0.12120834  1
  In  In69  1  0.82223447  0.32827752  0.60510407  1
  In  In70  1  0.84144347  0.65939875  0.13535358  1
  In  In71  1  0.82842078  0.65071451  0.61977926  1
  In  In72  1  0.33562433  0.66460212  0.75262850  1
  In  In73  1  -0.00613454  0.66804004  0.74333774  1
  In  In74  1  0.83614956  0.83139633  0.49229147  1
  In  In75  1  0.66384609  0.33571520  0.74295531  1
  In  In76  1  0.33356221  0.00464634  0.75735596  1
  In  In77  1  0.83225232  0.83368719  0.00618498  1
  In  In78  1  0.49941558  0.50133976  -0.00184399  1
  In  In79  1  0.66474746  0.33374465  0.25167811  1
  In  In80  1  0.00035539  0.00191195  0.24976926  1
  In  In81  1  0.49774669  0.82776893  0.50094557  1
  In  In82  1  0.00071849  0.33145621  0.74595026  1
  In  In83  1  0.16378032  0.16638234  0.49402721  1
  In  In84  1  0.17030460  0.82591910  0.49847330  1
  In  In85  1  0.16689133  0.49746671  0.00018348  1
  Cu  Cu86  1  0.82757437  0.83576793  0.75627208  1
  Cu  Cu87  1  0.82731241  0.49984134  0.74573077  1
  Cu  Cu88  1  0.50049495  0.49814775  0.25685050  1
  Cu  Cu89  1  0.33161277  0.33376443  0.49327650  1
  Cu  Cu90  1  -0.00142091  0.33477886  0.00328074  1
  Cu  Cu91  1  -0.00795738  0.00635304  0.50329147  1
  Cu  Cu92  1  0.33536117  0.00500812  0.00409942  1
  Cu  Cu93  1  0.66766829  0.01179038  0.49950162  1
  Cu  Cu94  1  0.16974051  0.16270355  0.75918856  1
  Cu  Cu95  1  0.16023779  0.83715344  0.75789054  1
  Cu  Cu96  1  0.00218359  0.33688113  0.49536868  1
  Cu  Cu97  1  0.16393129  0.16695772  0.24722968  1
  Cu  Cu98  1  -0.00227282  0.66002392  0.00770840  1
  Cu  Cu99  1  0.50055946  0.83859938  0.75174164  1
  Cu  Cu100  1  0.83298510  0.49812336  0.25289420  1
  Cu  Cu101  1  0.00210530  0.00262371  0.00220074  1
  Cu  Cu102  1  0.34486605  0.00273798  0.49352530  1
  Cu  Cu103  1  0.16466350  0.50017633  0.24832179  1
  Cu  Cu104  1  0.83569940  0.16114144  0.75286310  1
  Cu  Cu105  1  0.83348466  0.83465057  0.24773674  1
  Cu  Cu106  1  0.66763822  0.66717118  0.00222470  1
  Cu  Cu107  1  0.00451082  0.65725946  0.49370391  1
  Cu  Cu108  1  0.50509693  0.17040030  0.74916093  1
  Cu  Cu109  1  0.66462875  0.66452445  0.49720350  1
  Cu  Cu110  1  0.49712975  0.16398511  0.24406136  1
  Cu  Cu111  1  0.49852053  0.83149097  0.24631313  1
  Cu  Cu112  1  0.66657758  -0.00124481  0.00131365  1
  Cu  Cu113  1  0.66767040  0.33120129  0.00240636  1
  Cu  Cu114  1  0.17503809  0.83286681  0.24252011  1
  Se  Se115  1  0.08365584  0.08990826  0.05359290  1
  Se  Se116  1  0.08183013  0.07631869  0.56240595  1
  Se  Se117  1  0.08068208  0.41122030  0.06498244  1
  Se  Se118  1  0.08632063  0.41460824  0.55210048  1
  Se  Se119  1  0.08419806  0.74627389  0.05296589  1
  Se  Se120  1  0.07408722  0.74042749  0.55952270  1
  Se  Se121  1  0.41832090  0.08758792  0.05806585  1
  Se  Se122  1  0.42488646  0.08697182  0.54755667  1
  Se  Se123  1  0.40777479  0.41098265  0.05583519  1
  Se  Se124  1  0.41151922  0.41366108  0.55315135  1
  Se  Se125  1  0.42420018  0.75031439  0.05117694  1
  Se  Se126  1  0.40146362  0.73238543  0.54989659  1
  Se  Se127  1  0.75162338  0.08376539  0.05070477  1
  Se  Se128  1  0.75225321  0.08909832  0.55641144  1
  Se  Se129  1  0.74973639  0.41876833  0.05169546  1
  Se  Se130  1  0.76524915  0.43899056  0.55024317  1
  Se  Se131  1  0.74483743  0.74445718  0.06759998  1
  Se  Se132  1  0.74165196  0.74973677  0.55665842  1
  Se  Se133  1  0.24683306  0.24643648  0.05508517  1
  Se  Se134  1  0.25475718  0.25179495  0.55730771  1
  Se  Se135  1  0.25913474  0.58508761  0.05860003  1
  Se  Se136  1  0.24619483  0.57990361  0.54883714  1
  Se  Se137  1  0.25015284  0.91925106  0.05413070  1
  Se  Se138  1  0.26515424  0.92280093  0.55463313  1
  Se  Se139  1  0.58069016  0.24784610  0.05049504  1
  Se  Se140  1  0.59691567  0.27280778  0.55052135  1
  Se  Se141  1  0.58692157  0.58727873  0.06349264  1
  Se  Se142  1  0.58115747  0.58312090  0.55135020  1
  Se  Se143  1  0.58430449  0.91397589  0.05402922  1
  Se  Se144  1  0.59083422  0.92326031  0.55700026  1
  Se  Se145  1  0.91472351  0.24930415  0.05413481  1
  Se  Se146  1  0.92215086  0.24876355  0.54831023  1
  Se  Se147  1  0.91142404  0.57913442  0.05792465  1
  Se  Se148  1  0.91645776  0.58136856  0.54854609  1
  Se  Se149  1  0.92365384  0.92416999  0.06582842  1
  Se  Se150  1  0.91647170  0.92071027  0.56148296  1
  Se  Se151  1  0.08105487  0.25901142  0.43223685  1
  Se  Se152  1  0.08482310  0.25634038  0.94789479  1
  Se  Se153  1  0.08866956  0.57681290  0.44067764  1
  Se  Se154  1  0.07389810  0.58720015  0.93879336  1
  Se  Se155  1  0.07507366  0.92507059  0.44602457  1
  Se  Se156  1  0.08468322  0.91541322  0.95223322  1
  Se  Se157  1  0.41542823  0.24540491  0.44652460  1
  Se  Se158  1  0.42869045  0.24339955  0.95236071  1
  Se  Se159  1  0.43374385  0.56885620  0.44416948  1
  Se  Se160  1  0.40579724  0.59442332  0.94291570  1
  Se  Se161  1  0.41654272  0.91660857  0.43330006  1
  Se  Se162  1  0.42020980  0.92012411  0.95320173  1
  Se  Se163  1  0.75043760  0.25061266  0.44977988  1
  Se  Se164  1  0.75370194  0.24692094  0.95084566  1
  Se  Se165  1  0.75104107  0.58213862  0.44630258  1
  Se  Se166  1  0.74819622  0.58084316  0.94956960  1
  Se  Se167  1  0.74248573  0.92606049  0.43964037  1
  Se  Se168  1  0.74698657  0.91840358  0.93943359  1
  Se  Se169  1  0.25720144  0.07707732  0.43577675  1
  Se  Se170  1  0.24861280  0.08558799  0.95039260  1
  Se  Se171  1  0.24755181  0.41929494  0.44429988  1
  Se  Se172  1  0.25975804  0.41188559  0.93949260  1
  Se  Se173  1  0.25759300  0.73961262  0.43668876  1
  Se  Se174  1  0.24019520  0.75408162  0.95922683  1
  Se  Se175  1  0.58101182  0.08976553  0.44539591  1
  Se  Se176  1  0.58403269  0.08254018  0.94755556  1
  Se  Se177  1  0.59770579  0.39022220  0.45739911  1
  Se  Se178  1  0.59037970  0.40997144  0.93780884  1
  Se  Se179  1  0.58786496  0.74545457  0.43612622  1
  Se  Se180  1  0.58533969  0.75082356  0.94843776  1
  Se  Se181  1  0.91250733  0.08807533  0.44725535  1
  Se  Se182  1  0.91613527  0.08241016  0.94770803  1
  Se  Se183  1  0.91702129  0.41728424  0.44155060  1
  Se  Se184  1  0.91501095  0.42049185  0.95223811  1
  Se  Se185  1  0.92670654  0.74021156  0.43417072  1
  Se  Se186  1  0.91980660  0.74118646  0.94348840  1
  Se  Se187  1  0.25081554  0.25038205  0.29898763  1
  Se  Se188  1  0.25634042  0.24819704  0.80545393  1
  Se  Se189  1  0.25279740  0.57946563  0.30250071  1
  Se  Se190  1  0.23767353  0.57616682  0.80722407  1
  Se  Se191  1  0.25491606  0.91969686  0.29524931  1
  Se  Se192  1  0.25176458  0.90599949  0.81653833  1
  Se  Se193  1  0.57108346  0.24595935  0.30973533  1
  Se  Se194  1  0.58322787  0.24924270  0.81258648  1
  Se  Se195  1  0.59216987  0.57452743  0.30782200  1
  Se  Se196  1  0.57510574  0.58287811  0.80110322  1
  Se  Se197  1  0.58097889  0.91699820  0.29935231  1
  Se  Se198  1  0.58356282  0.92384043  0.80325608  1
  Se  Se199  1  0.90901205  0.25506782  0.29618447  1
  Se  Se200  1  0.91529001  0.24382086  0.81193385  1
  Se  Se201  1  0.92030049  0.58426741  0.30218642  1
  Se  Se202  1  0.90784908  0.57761057  0.80844331  1
  Se  Se203  1  0.90977882  0.91369693  0.31355175  1
  Se  Se204  1  0.91706851  0.91625613  0.80467233  1
  Se  Se205  1  0.08637517  0.09213353  0.31442493  1
  Se  Se206  1  0.08566165  0.07924550  0.80922863  1
  Se  Se207  1  0.07934368  0.41426285  0.29814776  1
  Se  Se208  1  0.09186099  0.42195394  0.80433214  1
  Se  Se209  1  0.08958731  0.75079335  0.29605302  1
  Se  Se210  1  0.08212726  0.75028533  0.81353243  1
  Se  Se211  1  0.41444568  0.07935377  0.29926943  1
  Se  Se212  1  0.42440271  0.09509175  0.81372085  1
  Se  Se213  1  0.41678322  0.41344671  0.30840418  1
  Se  Se214  1  0.43084993  0.42806641  0.80137173  1
  Se  Se215  1  0.41668984  0.74500031  0.29896297  1
  Se  Se216  1  0.42014973  0.76100302  0.81300228  1
  Se  Se217  1  0.73559822  0.08644358  0.29986390  1
  Se  Se218  1  0.74664994  0.08293007  0.80485681  1
  Se  Se219  1  0.75037723  0.42261307  0.31528865  1
  Se  Se220  1  0.75498886  0.41839472  0.81083085  1
  Se  Se221  1  0.74998180  0.74958963  0.30054586  1
  Se  Se222  1  0.74286740  0.74798204  0.80235155  1
  Se  Se223  1  0.25118329  0.08385455  0.19877192  1
  Se  Se224  1  0.24712281  0.08987779  0.68900967  1
  Se  Se225  1  0.25034231  0.41527745  0.19834861  1
  Se  Se226  1  0.25770180  0.41371218  0.70145492  1
  Se  Se227  1  0.25648308  0.74804514  0.18967541  1
  Se  Se228  1  0.23704274  0.75740274  0.69447632  1
  Se  Se229  1  0.58335790  0.08154606  0.19351894  1
  Se  Se230  1  0.59029815  0.08957544  0.69599620  1
  Se  Se231  1  0.57299888  0.42076406  0.18794173  1
  Se  Se232  1  0.57305532  0.42646665  0.68796414  1
  Se  Se233  1  0.58649095  0.74366436  0.20041927  1
  Se  Se234  1  0.57727726  0.75037860  0.69708779  1
  Se  Se235  1  0.90879420  0.09084590  0.19278908  1
  Se  Se236  1  0.92219243  0.08088684  0.69919929  1
  Se  Se237  1  0.91259472  0.41415717  0.19743456  1
  Se  Se238  1  0.90412390  0.41604111  0.68649988  1
  Se  Se239  1  0.92059423  0.74912090  0.20204438  1
  Se  Se240  1  0.90037153  0.75963384  0.68622636  1
  Se  Se241  1  0.07764851  0.25149217  0.19900424  1
  Se  Se242  1  0.09660117  0.24073208  0.68980398  1
  Se  Se243  1  0.08243338  0.58596364  0.19558546  1
  Se  Se244  1  0.08422117  0.56986331  0.69358282  1
  Se  Se245  1  0.09041416  0.91587409  0.18645094  1
  Se  Se246  1  0.07945481  0.92190554  0.70481641  1
  Se  Se247  1  0.41272402  0.25248891  0.19751471  1
  Se  Se248  1  0.41893794  0.25169236  0.69716033  1
  Se  Se249  1  0.41909518  0.58134379  0.19992757  1
  Se  Se250  1  0.41558795  0.58132146  0.68375350  1
  Se  Se251  1  0.41635044  0.91479242  0.19147139  1
  Se  Se252  1  0.42079404  0.91624511  0.68930293  1
  Se  Se253  1  0.74882753  0.24684768  0.18665430  1
  Se  Se254  1  0.76104406  0.24458070  0.69010605  1
  Se  Se255  1  0.74857078  0.58267998  0.20139937  1
  Se  Se256  1  0.74387349  0.58490010  0.69500507  1
  Se  Se257  1  0.74674544  0.91881135  0.20003141  1
  Se  Se258  1  0.74614504  0.92075130  0.70087577  1
