# generated using pymatgen
data_In86Cu29Se144
_symmetry_space_group_name_H-M   'P 1'
_cell_length_a   17.57887058
_cell_length_b   17.57748157
_cell_length_c   23.43881257
_cell_angle_alpha   89.99999003
_cell_angle_beta   89.97502538
_cell_angle_gamma   89.98692471
_symmetry_Int_Tables_number   1
_chemical_formula_structural   In86Cu29Se144
_chemical_formula_sum   'In86 Cu29 Se144'
_cell_volume   7242.41111174
_cell_formula_units_Z   1
loop_
 _symmetry_equiv_pos_site_id
 _symmetry_equiv_pos_as_xyz
  1  'x, y, z'
loop_
 _atom_site_type_symbol
 _atom_site_label
 _atom_site_symmetry_multiplicity
 _atom_site_fract_x
 _atom_site_fract_y
 _atom_site_fract_z
 _atom_site_occupancy
  In  In0  1  0.01126042  0.16321737  0.12483716  1
  In  In1  1  0.02202901  0.16892290  0.62625717  1
  In  In2  1  -0.00657844  0.51335875  0.13724435  1
  In  In3  1  -0.00304028  0.50390876  0.62247065  1
  In  In4  1  -0.00880682  0.83016293  0.12429299  1
  In  In5  1  -0.00651943  0.82352900  0.62158874  1
  In  In6  1  0.32333563  0.15803363  0.12279977  1
  In  In7  1  0.32242069  0.16100183  0.62289249  1
  In  In8  1  0.33313168  0.50908250  0.13607099  1
  In  In9  1  0.34322163  0.52020700  0.59833465  1
  In  In10  1  0.34890515  0.82303128  0.12900629  1
  In  In11  1  0.34707825  0.83398434  0.61451150  1
  In  In12  1  0.66033903  0.17736708  0.13063346  1
  In  In13  1  0.65439089  0.15356563  0.62923435  1
  In  In14  1  0.66732810  0.48403759  0.12865770  1
  In  In15  1  0.68410122  0.51313937  0.61491833  1
  In  In16  1  0.67134935  0.83962374  0.11999699  1
  In  In17  1  0.65871520  0.83790679  0.63584532  1
  In  In18  1  0.17886839  -0.01850091  0.39395099  1
  In  In19  1  0.18121631  0.00039029  0.87258719  1
  In  In20  1  0.15078153  0.34560969  0.37967908  1
  In  In21  1  0.15863671  0.33638599  0.87614781  1
  In  In22  1  0.16914735  0.66952775  0.36966657  1
  In  In23  1  0.16147816  0.67456075  0.86777275  1
  In  In24  1  0.49488701  -0.00184437  0.36880021  1
  In  In25  1  0.50235327  -0.00859378  0.87955906  1
  In  In26  1  0.51336832  0.33872375  0.37116262  1
  In  In27  1  0.48895918  0.33229736  0.87985544  1
  In  In28  1  0.48011217  0.68376752  0.39303203  1
  In  In29  1  0.51438015  0.66809301  0.87433271  1
  In  In30  1  0.83229085  0.01127179  0.36797405  1
  In  In31  1  0.81417310  -0.00516655  0.87142210  1
  In  In32  1  0.84828215  0.34254474  0.36117954  1
  In  In33  1  0.84863120  0.33405280  0.87400816  1
  In  In34  1  0.83595014  0.65072358  0.37638339  1
  In  In35  1  0.83389731  0.66501372  0.88105344  1
  In  In36  1  0.00081350  0.17449201  0.37393971  1
  In  In37  1  -0.00092707  0.18208725  0.87470919  1
  In  In38  1  0.00321870  0.49905917  0.36888979  1
  In  In39  1  -0.00201000  0.49060547  0.86966527  1
  In  In40  1  0.02863528  0.83204704  0.37907206  1
  In  In41  1  -0.00093151  0.81601243  0.87121940  1
  In  In42  1  0.33235777  0.15112442  0.37180983  1
  In  In43  1  0.34704794  0.15706135  0.88907065  1
  In  In44  1  0.30699981  0.52871155  0.39456066  1
  In  In45  1  0.34106100  0.49653089  0.87092352  1
  In  In46  1  0.33235518  0.83456771  0.37617126  1
  In  In47  1  0.33113523  0.84218873  0.87438164  1
  In  In48  1  0.67670801  0.16699901  0.35530924  1
  In  In49  1  0.66143406  0.14694569  0.87558489  1
  In  In50  1  0.67438595  0.49767849  0.38170423  1
  In  In51  1  0.67140379  0.52476232  0.87282582  1
  In  In52  1  0.65225550  0.83489258  0.37668544  1
  In  In53  1  0.66856792  0.82858122  0.87910050  1
  In  In54  1  0.16595468  0.01361043  0.12460094  1
  In  In55  1  0.17666201  0.01179348  0.61657775  1
  In  In56  1  0.16929395  0.32447512  0.13405652  1
  In  In57  1  0.16135393  0.33642495  0.61643082  1
  In  In58  1  0.17130771  0.66343131  0.13730944  1
  In  In59  1  0.15995764  0.65737302  0.61200265  1
  In  In60  1  0.49787639  -0.00204062  0.12420789  1
  In  In61  1  0.50584359  -0.02294347  0.64191020  1
  In  In62  1  0.51513135  0.33538337  0.12697574  1
  In  In63  1  0.48728670  0.33129989  0.62227812  1
  In  In64  1  0.48622651  0.67564060  0.12362676  1
  In  In65  1  0.50967423  0.68438100  0.60765787  1
  In  In66  1  0.83438288  -0.01587131  0.12245603  1
  In  In67  1  0.82100179  -0.01423580  0.63145376  1
  In  In68  1  0.82251385  0.33799072  0.13054338  1
  In  In69  1  0.83620400  0.35091549  0.62513356  1
  In  In70  1  0.84054517  0.67235103  0.12077250  1
  In  In71  1  0.84466272  0.66755094  0.63453538  1
  In  In72  1  -0.00274710  -0.00281138  0.74668525  1
  In  In73  1  0.33832366  0.67389935  0.74502754  1
  In  In74  1  0.00086077  -0.00050444  0.25201651  1
  In  In75  1  0.49767607  0.16507449  0.49524862  1
  In  In76  1  0.83388031  0.83316867  0.50739785  1
  In  In77  1  0.50496804  0.50109230  0.00171663  1
  In  In78  1  0.31655950  0.33160722  0.73865424  1
  In  In79  1  0.66808662  0.33197390  0.74866631  1
  In  In80  1  0.16988926  0.83337812  -0.00498774  1
  In  In81  1  0.33381751  0.34011756  0.25463424  1
  In  In82  1  0.66368756  0.66540190  0.25698547  1
  In  In83  1  0.83040405  0.16331602  -0.00336472  1
  In  In84  1  0.16749483  0.49909929  0.01347316  1
  In  In85  1  0.83893588  0.17123105  0.49151632  1
  Cu  Cu86  1  0.17442838  0.83545277  0.25486328  1
  Cu  Cu87  1  0.67120314  0.33520923  0.49738495  1
  Cu  Cu88  1  0.83743216  0.82876387  0.24773230  1
  Cu  Cu89  1  0.16481199  0.16459095  0.25229833  1
  Cu  Cu90  1  0.32974957  0.33243456  0.49796168  1
  Cu  Cu91  1  0.49736562  0.83772669  0.25285039  1
  Cu  Cu92  1  0.33156420  0.32851337  0.00757803  1
  Cu  Cu93  1  0.66967547  0.33266701  0.00227372  1
  Cu  Cu94  1  0.16252962  0.50484905  0.73966801  1
  Cu  Cu95  1  0.83261452  0.49661659  0.25222971  1
  Cu  Cu96  1  -0.00079961  -0.00104152  0.00064427  1
  Cu  Cu97  1  0.65950304  -0.00386737  -0.00052917  1
  Cu  Cu98  1  -0.00079855  0.33375629  -0.00056063  1
  Cu  Cu99  1  -0.00357259  0.33953039  0.49559033  1
  Cu  Cu100  1  0.67200305  0.66854806  0.00148214  1
  Cu  Cu101  1  0.00084188  0.66039325  0.00057221  1
  Cu  Cu102  1  0.83835632  0.50759246  0.74985269  1
  Cu  Cu103  1  0.66252664  -0.00111457  0.50160268  1
  Cu  Cu104  1  0.49803157  0.16401924  0.24666780  1
  Cu  Cu105  1  0.66370847  0.66678036  0.49919728  1
  Cu  Cu106  1  0.83863831  0.17082526  0.75190104  1
  Cu  Cu107  1  0.17293975  0.16750083  0.74813127  1
  Cu  Cu108  1  -0.00264686  0.66289486  0.49727023  1
  Cu  Cu109  1  0.50598387  0.50004244  0.74091603  1
  Cu  Cu110  1  0.49869878  0.50728827  0.25642416  1
  Cu  Cu111  1  0.34147409  -0.00397280  0.49983794  1
  Cu  Cu112  1  0.49588164  0.15124017  0.75720484  1
  Cu  Cu113  1  0.33477542  0.00078771  0.00150602  1
  Cu  Cu114  1  0.16279990  0.83018007  0.74509682  1
  Se  Se115  1  0.08387610  0.08410787  0.04859521  1
  Se  Se116  1  0.08595658  0.08793977  0.55024991  1
  Se  Se117  1  0.07398158  0.40834274  0.06755867  1
  Se  Se118  1  0.07906542  0.42319485  0.55095713  1
  Se  Se119  1  0.08356129  0.74176025  0.05875225  1
  Se  Se120  1  0.07767092  0.75025101  0.54954604  1
  Se  Se121  1  0.41627444  0.08530267  0.05610082  1
  Se  Se122  1  0.42094988  0.07517592  0.56318581  1
  Se  Se123  1  0.41038062  0.41455756  0.06504136  1
  Se  Se124  1  0.41987688  0.41253567  0.54672170  1
  Se  Se125  1  0.41920742  0.75505913  0.04684584  1
  Se  Se126  1  0.39617825  0.72818803  0.54711030  1
  Se  Se127  1  0.74260957  0.07638861  0.06020058  1
  Se  Se128  1  0.74680570  0.08082660  0.55638584  1
  Se  Se129  1  0.75222062  0.41764471  0.05245221  1
  Se  Se130  1  0.75681890  0.41876900  0.54790618  1
  Se  Se131  1  0.75497246  0.75366606  0.05430370  1
  Se  Se132  1  0.74125894  0.74506200  0.56484374  1
  Se  Se133  1  0.24260665  0.24798352  0.05698061  1
  Se  Se134  1  0.24989383  0.24974822  0.55383013  1
  Se  Se135  1  0.26269207  0.59622452  0.05911846  1
  Se  Se136  1  0.23934228  0.58186004  0.53811825  1
  Se  Se137  1  0.25329918  0.92032084  0.06187884  1
  Se  Se138  1  0.25417657  0.91704990  0.55340193  1
  Se  Se139  1  0.58339111  0.25019749  0.05198927  1
  Se  Se140  1  0.59194778  0.25419523  0.55731799  1
  Se  Se141  1  0.59269923  0.59022300  0.06588372  1
  Se  Se142  1  0.58195333  0.57860058  0.55127144  1
  Se  Se143  1  0.57755807  0.91226291  0.05402236  1
  Se  Se144  1  0.58313435  0.91692168  0.55849074  1
  Se  Se145  1  0.91859868  0.25115307  0.05933976  1
  Se  Se146  1  0.92301913  0.25751506  0.56051322  1
  Se  Se147  1  0.91743330  0.57879255  0.05551442  1
  Se  Se148  1  0.91112769  0.58791913  0.55517862  1
  Se  Se149  1  0.91814457  0.91113453  0.04908838  1
  Se  Se150  1  0.92252029  0.93188223  0.55990269  1
  Se  Se151  1  0.08033136  0.25053908  0.44807958  1
  Se  Se152  1  0.08538230  0.25099857  0.94875397  1
  Se  Se153  1  0.08027985  0.58681886  0.43754203  1
  Se  Se154  1  0.08504165  0.58344190  0.94129636  1
  Se  Se155  1  0.07623866  0.92037802  0.45767961  1
  Se  Se156  1  0.07681809  0.92176527  0.93454726  1
  Se  Se157  1  0.40987083  0.25633139  0.43427979  1
  Se  Se158  1  0.42107749  0.25062785  0.95554805  1
  Se  Se159  1  0.42640966  0.57076191  0.44942512  1
  Se  Se160  1  0.41376066  0.58748183  0.94017471  1
  Se  Se161  1  0.42392368  0.91559835  0.44354814  1
  Se  Se162  1  0.41372350  0.91346418  0.94888605  1
  Se  Se163  1  0.74470310  0.25645936  0.43306795  1
  Se  Se164  1  0.74259531  0.25472957  0.93424239  1
  Se  Se165  1  0.75234031  0.58388958  0.45182106  1
  Se  Se166  1  0.75434086  0.57943547  0.95344322  1
  Se  Se167  1  0.74752414  0.92284936  0.44123981  1
  Se  Se168  1  0.74957502  0.91529533  0.95020394  1
  Se  Se169  1  0.25652604  0.08381330  0.45160776  1
  Se  Se170  1  0.24678348  0.08284906  0.95003457  1
  Se  Se171  1  0.24295186  0.41635659  0.44854272  1
  Se  Se172  1  0.25886039  0.41284773  0.94517508  1
  Se  Se173  1  0.23110032  0.76737261  0.43885301  1
  Se  Se174  1  0.25797745  0.73745670  0.93878560  1
  Se  Se175  1  0.59444487  0.08273066  0.43548854  1
  Se  Se176  1  0.57590097  0.08360785  0.95104987  1
  Se  Se177  1  0.58383961  0.41766623  0.44819355  1
  Se  Se178  1  0.59343889  0.41342098  0.93635192  1
  Se  Se179  1  0.58111602  0.75766160  0.45367812  1
  Se  Se180  1  0.58321848  0.74865277  0.95133889  1
  Se  Se181  1  0.92770677  0.07198823  0.44170618  1
  Se  Se182  1  0.92086190  0.07555303  0.93433657  1
  Se  Se183  1  0.91424317  0.42148193  0.44035250  1
  Se  Se184  1  0.91800538  0.41947911  0.94756656  1
  Se  Se185  1  0.91955830  0.74850794  0.43843315  1
  Se  Se186  1  0.91998164  0.74832093  0.94920195  1
  Se  Se187  1  0.24356680  0.24708960  0.31314735  1
  Se  Se188  1  0.25098405  0.24344228  0.81510972  1
  Se  Se189  1  0.25469307  0.58617453  0.30300899  1
  Se  Se190  1  0.24640875  0.57574239  0.80451996  1
  Se  Se191  1  0.25158042  0.92380761  0.30772749  1
  Se  Se192  1  0.24641113  0.91129820  0.79945351  1
  Se  Se193  1  0.57997815  0.24986402  0.29843143  1
  Se  Se194  1  0.57380063  0.24438019  0.80995201  1
  Se  Se195  1  0.57451645  0.58496524  0.32222666  1
  Se  Se196  1  0.58195175  0.58436282  0.79760278  1
  Se  Se197  1  0.58584888  0.91976898  0.30171171  1
  Se  Se198  1  0.60181128  0.92826019  0.81381572  1
  Se  Se199  1  0.89671682  0.22466186  0.30711006  1
  Se  Se200  1  0.92347402  0.25702877  0.79768197  1
  Se  Se201  1  0.91714993  0.58393992  0.30006434  1
  Se  Se202  1  0.91987733  0.58642901  0.80903545  1
  Se  Se203  1  0.91658646  0.90451811  0.31366722  1
  Se  Se204  1  0.91052458  0.90975819  0.80989995  1
  Se  Se205  1  0.09384591  0.07974609  0.31606492  1
  Se  Se206  1  0.08736631  0.09002934  0.80856230  1
  Se  Se207  1  0.06720493  0.40093608  0.30054026  1
  Se  Se208  1  0.09025330  0.41851133  0.80024355  1
  Se  Se209  1  0.08358017  0.75066423  0.29781104  1
  Se  Se210  1  0.07838000  0.74485974  0.79390085  1
  Se  Se211  1  0.41432704  0.08001431  0.29769047  1
  Se  Se212  1  0.41125242  0.07347355  0.81227458  1
  Se  Se213  1  0.41688171  0.42978253  0.31775881  1
  Se  Se214  1  0.42382397  0.41611010  0.79664946  1
  Se  Se215  1  0.41740576  0.75177932  0.30700706  1
  Se  Se216  1  0.42526783  0.75817934  0.81012891  1
  Se  Se217  1  0.74366151  0.06721490  0.29271637  1
  Se  Se218  1  0.75084235  0.08783737  0.79963360  1
  Se  Se219  1  0.74401730  0.41736450  0.30410206  1
  Se  Se220  1  0.75645871  0.42411895  0.80903313  1
  Se  Se221  1  0.75699642  0.75629219  0.31470031  1
  Se  Se222  1  0.72924744  0.72209743  0.81625396  1
  Se  Se223  1  0.24973930  0.08143641  0.20062819  1
  Se  Se224  1  0.25292278  0.07866549  0.69850955  1
  Se  Se225  1  0.23719344  0.42871625  0.19846552  1
  Se  Se226  1  0.24975599  0.43594060  0.67692452  1
  Se  Se227  1  0.25630484  0.75303946  0.19819382  1
  Se  Se228  1  0.24176126  0.75132304  0.68228223  1
  Se  Se229  1  0.58176281  0.08226338  0.19227334  1
  Se  Se230  1  0.58416333  0.07340696  0.70394224  1
  Se  Se231  1  0.57967964  0.42013185  0.20411689  1
  Se  Se232  1  0.58394756  0.41805034  0.68154553  1
  Se  Se233  1  0.57980304  0.75648307  0.19298368  1
  Se  Se234  1  0.56442971  0.75354217  0.69358495  1
  Se  Se235  1  0.91214670  0.08305384  0.18665043  1
  Se  Se236  1  0.91169790  0.09180661  0.68501025  1
  Se  Se237  1  0.91481912  0.41456267  0.19623756  1
  Se  Se238  1  0.92061448  0.42098374  0.69804186  1
  Se  Se239  1  0.92110227  0.74429130  0.19763132  1
  Se  Se240  1  0.90648053  0.76930035  0.69891268  1
  Se  Se241  1  0.07933074  0.24678118  0.20110178  1
  Se  Se242  1  0.09340136  0.25678524  0.69739053  1
  Se  Se243  1  0.08696182  0.58356291  0.20277519  1
  Se  Se244  1  0.07881555  0.59089560  0.69065417  1
  Se  Se245  1  0.09173618  0.90928241  0.18905530  1
  Se  Se246  1  0.08988592  0.91531391  0.68349953  1
  Se  Se247  1  0.41744983  0.24924320  0.18853701  1
  Se  Se248  1  0.42178296  0.23541895  0.69500130  1
  Se  Se249  1  0.42037487  0.59113519  0.20049439  1
  Se  Se250  1  0.42122640  0.57836022  0.68472183  1
  Se  Se251  1  0.41448721  0.91964200  0.19710710  1
  Se  Se252  1  0.39997590  0.91252188  0.69895551  1
  Se  Se253  1  0.75026260  0.24904741  0.19832362  1
  Se  Se254  1  0.75618844  0.24305954  0.68532717  1
  Se  Se255  1  0.75258047  0.58019653  0.19181307  1
  Se  Se256  1  0.75035405  0.58548256  0.69677153  1
  Se  Se257  1  0.75202267  0.91114665  0.19689885  1
  Se  Se258  1  0.74713435  0.91150049  0.70569543  1
