# generated using pymatgen
data_In86Cu29Se144
_symmetry_space_group_name_H-M   'P 1'
_cell_length_a   17.57284650
_cell_length_b   17.56846997
_cell_length_c   23.42917263
_cell_angle_alpha   90.01561404
_cell_angle_beta   90.01128420
_cell_angle_gamma   90.00010186
_symmetry_Int_Tables_number   1
_chemical_formula_structural   In86Cu29Se144
_chemical_formula_sum   'In86 Cu29 Se144'
_cell_volume   7233.24180877
_cell_formula_units_Z   1
loop_
 _symmetry_equiv_pos_site_id
 _symmetry_equiv_pos_as_xyz
  1  'x, y, z'
loop_
 _atom_site_type_symbol
 _atom_site_label
 _atom_site_symmetry_multiplicity
 _atom_site_fract_x
 _atom_site_fract_y
 _atom_site_fract_z
 _atom_site_occupancy
  In  In0  1  -0.00695045  0.17248793  0.13189578  1
  In  In1  1  0.01052254  0.17414271  0.61851770  1
  In  In2  1  0.01567087  0.48485390  0.13274713  1
  In  In3  1  -0.01227932  0.49722734  0.62509206  1
  In  In4  1  0.00115016  0.83307566  0.12996001  1
  In  In5  1  0.00759914  0.83688633  0.61970131  1
  In  In6  1  0.36412822  0.15461180  0.15590117  1
  In  In7  1  0.34834776  0.17104214  0.60605334  1
  In  In8  1  0.33247121  0.49903314  0.12695504  1
  In  In9  1  0.34697741  0.48404223  0.62137176  1
  In  In10  1  0.34461795  0.84321193  0.11803061  1
  In  In11  1  0.34182269  0.84992304  0.60739386  1
  In  In12  1  0.66460948  0.15729840  0.13170571  1
  In  In13  1  0.65563655  0.17018737  0.63116529  1
  In  In14  1  0.65691455  0.48264314  0.12738820  1
  In  In15  1  0.65657220  0.49879146  0.63382625  1
  In  In16  1  0.67500043  0.84100076  0.11763142  1
  In  In17  1  0.65760693  0.84575031  0.63375782  1
  In  In18  1  0.16763376  0.00402366  0.37569106  1
  In  In19  1  0.15424015  -0.00080006  0.88028869  1
  In  In20  1  0.15187499  0.31398795  0.37316621  1
  In  In21  1  0.17204122  0.34249474  0.87934142  1
  In  In22  1  0.16793196  0.68048672  0.37072354  1
  In  In23  1  0.16177621  0.66896787  0.88276245  1
  In  In24  1  0.49797679  0.00483330  0.36638401  1
  In  In25  1  0.50876433  -0.00584226  0.88207142  1
  In  In26  1  0.49996984  0.32622053  0.36819279  1
  In  In27  1  0.49831985  0.32241269  0.87809920  1
  In  In28  1  0.49595879  0.67782600  0.38425999  1
  In  In29  1  0.51271438  0.66932232  0.87257064  1
  In  In30  1  0.83458705  0.00849092  0.36304789  1
  In  In31  1  0.82553756  0.01067109  0.88511098  1
  In  In32  1  0.83082632  0.32766734  0.37094425  1
  In  In33  1  0.81904782  0.32275378  0.87260510  1
  In  In34  1  0.83587179  0.65716318  0.37063584  1
  In  In35  1  0.83013100  0.67882291  0.87868277  1
  In  In36  1  0.00871658  0.17043308  0.37505735  1
  In  In37  1  -0.01545998  0.16177183  0.87651291  1
  In  In38  1  -0.00874968  0.49409100  0.36574521  1
  In  In39  1  0.01327220  0.50085993  0.87884757  1
  In  In40  1  0.01864918  0.85352182  0.35598955  1
  In  In41  1  -0.00071654  0.83152439  0.88644576  1
  In  In42  1  0.33635245  0.15755234  0.36736015  1
  In  In43  1  0.34439700  0.17878961  0.88080067  1
  In  In44  1  0.35635293  0.49167098  0.37270883  1
  In  In45  1  0.32811972  0.48423565  0.88241201  1
  In  In46  1  0.31955887  0.85457222  0.38725707  1
  In  In47  1  0.33098890  0.83988956  0.88490615  1
  In  In48  1  0.65978506  0.16992181  0.36724045  1
  In  In49  1  0.66473262  0.16288972  0.87794225  1
  In  In50  1  0.65357278  0.48461112  0.36832688  1
  In  In51  1  0.65407292  0.49735276  0.86328147  1
  In  In52  1  0.64838783  0.84067062  0.37657383  1
  In  In53  1  0.66629369  0.83682935  0.87596985  1
  In  In54  1  0.17959704  -0.00657911  0.13231895  1
  In  In55  1  0.18567999  0.02176531  0.59052414  1
  In  In56  1  0.16659456  0.33032737  0.12911007  1
  In  In57  1  0.16651780  0.32359462  0.62011370  1
  In  In58  1  0.16382531  0.65612649  0.12361381  1
  In  In59  1  0.16146053  0.67622329  0.62244907  1
  In  In60  1  0.50374879  0.00162217  0.13044605  1
  In  In61  1  0.50903896  0.02259023  0.60510841  1
  In  In62  1  0.53555866  0.30520777  0.16742156  1
  In  In63  1  0.52132670  0.34123031  0.59772548  1
  In  In64  1  0.48714194  0.66771204  0.12487955  1
  In  In65  1  0.50372766  0.67122960  0.62517824  1
  In  In66  1  0.83163320  0.00040857  0.12632938  1
  In  In67  1  0.82957486  -0.00885112  0.62490027  1
  In  In68  1  0.84223341  0.32179615  0.12875997  1
  In  In69  1  0.82389914  0.33461019  0.63311111  1
  In  In70  1  0.83438129  0.68301850  0.12106169  1
  In  In71  1  0.82747831  0.65498854  0.62831860  1
  In  In72  1  0.67189177  0.66793149  0.24764807  1
  In  In73  1  0.34298978  0.33224181  0.75005648  1
  In  In74  1  0.33558101  0.00407131  0.73779062  1
  In  In75  1  0.83155636  0.17155358  0.49125249  1
  In  In76  1  0.33416843  0.66616098  0.74268106  1
  In  In77  1  0.83872286  0.50302758  -0.00525547  1
  In  In78  1  0.17332182  0.50110919  0.50200445  1
  In  In79  1  0.49343679  0.50111931  0.00054128  1
  In  In80  1  -0.00793030  0.66396281  0.75077639  1
  In  In81  1  0.33285757  0.66439688  0.24757315  1
  In  In82  1  0.17219417  0.16556480  0.00940491  1
  In  In83  1  0.83921964  0.83274972  0.50046453  1
  In  In84  1  0.82604803  0.49712232  0.49654910  1
  In  In85  1  -0.00633514  -0.00069781  0.74623984  1
  Cu  Cu86  1  0.66211975  0.66619861  0.50535377  1
  Cu  Cu87  1  0.34141038  0.66687240  0.49678464  1
  Cu  Cu88  1  0.82593242  0.83495757  0.75417305  1
  Cu  Cu89  1  0.32660468  0.67130312  0.00280966  1
  Cu  Cu90  1  0.66616020  0.00369441  0.49568995  1
  Cu  Cu91  1  -0.00069995  -0.00871070  0.00708855  1
  Cu  Cu92  1  0.50551599  0.16307647  0.74898036  1
  Cu  Cu93  1  0.00566744  0.67356896  0.49095870  1
  Cu  Cu94  1  0.66760419  0.32205061  0.00540500  1
  Cu  Cu95  1  0.00199495  0.32777963  0.00601185  1
  Cu  Cu96  1  0.16457021  0.84179734  0.74729910  1
  Cu  Cu97  1  0.84032654  0.50125481  0.24460782  1
  Cu  Cu98  1  0.49654954  0.83666867  0.25048454  1
  Cu  Cu99  1  0.82728343  0.49285718  0.75103979  1
  Cu  Cu100  1  0.33952627  0.32824555  0.01212817  1
  Cu  Cu101  1  0.66247346  0.00200996  0.00320983  1
  Cu  Cu102  1  0.16517344  0.49590107  0.75647450  1
  Cu  Cu103  1  0.33436677  0.32821284  0.48748311  1
  Cu  Cu104  1  0.82864442  0.83864566  0.24451024  1
  Cu  Cu105  1  0.16311911  0.17283232  0.74122484  1
  Cu  Cu106  1  0.00353229  0.66548744  0.00599814  1
  Cu  Cu107  1  0.83151961  0.16490154  0.24942887  1
  Cu  Cu108  1  0.16285131  0.49914026  0.25306734  1
  Cu  Cu109  1  0.50600580  0.83174644  0.75103110  1
  Cu  Cu110  1  0.16875638  0.83722925  0.24966424  1
  Cu  Cu111  1  0.16309289  0.16345141  0.25050976  1
  Cu  Cu112  1  0.66152463  0.67387591  -0.00228526  1
  Cu  Cu113  1  0.33891230  0.00598199  0.00957334  1
  Cu  Cu114  1  0.82737197  0.16719929  0.75378709  1
  Se  Se115  1  0.07928707  0.07517812  0.06589422  1
  Se  Se116  1  0.07879494  0.09607684  0.54201141  1
  Se  Se117  1  0.08891770  0.41110275  0.05388701  1
  Se  Se118  1  0.07509495  0.41466742  0.55709526  1
  Se  Se119  1  0.08510807  0.74976395  0.06021116  1
  Se  Se120  1  0.08548143  0.75384094  0.54818118  1
  Se  Se121  1  0.41824890  0.08982314  0.06442497  1
  Se  Se122  1  0.38522388  0.04988978  0.54986385  1
  Se  Se123  1  0.42404813  0.40807220  0.06888135  1
  Se  Se124  1  0.41687656  0.41427601  0.54054098  1
  Se  Se125  1  0.41879967  0.75081851  0.04994330  1
  Se  Se126  1  0.42242296  0.75008456  0.55310314  1
  Se  Se127  1  0.74767593  0.08344170  0.05732866  1
  Se  Se128  1  0.74676163  0.08054256  0.55801886  1
  Se  Se129  1  0.75040012  0.41082699  0.05660535  1
  Se  Se130  1  0.73781256  0.41105296  0.55890374  1
  Se  Se131  1  0.75108120  0.75401625  0.04727725  1
  Se  Se132  1  0.74575050  0.74649332  0.56256191  1
  Se  Se133  1  0.26669920  0.24191546  0.07313156  1
  Se  Se134  1  0.25223958  0.25271882  0.54803403  1
  Se  Se135  1  0.25272454  0.57968619  0.05504983  1
  Se  Se136  1  0.26386266  0.59184792  0.56386696  1
  Se  Se137  1  0.24994978  0.91868948  0.05245760  1
  Se  Se138  1  0.22984521  0.89684216  0.54647179  1
  Se  Se139  1  0.58255820  0.25397550  0.06916138  1
  Se  Se140  1  0.56329508  0.21585563  0.55201289  1
  Se  Se141  1  0.59054086  0.58944812  0.06051396  1
  Se  Se142  1  0.58226698  0.58023780  0.55888021  1
  Se  Se143  1  0.57873066  0.91808447  0.05640028  1
  Se  Se144  1  0.58814919  0.91791674  0.55261989  1
  Se  Se145  1  0.91559855  0.24276034  0.05236015  1
  Se  Se146  1  0.91297542  0.26077799  0.55930247  1
  Se  Se147  1  0.92451072  0.58217726  0.06507621  1
  Se  Se148  1  0.92331641  0.59502290  0.55106103  1
  Se  Se149  1  0.91311883  0.91081243  0.06002825  1
  Se  Se150  1  0.92932279  0.93137798  0.55328429  1
  Se  Se151  1  0.07939432  0.24631411  0.45422668  1
  Se  Se152  1  0.08193014  0.24839963  0.94183272  1
  Se  Se153  1  0.08072672  0.58364450  0.43557903  1
  Se  Se154  1  0.08712087  0.58092821  0.95279697  1
  Se  Se155  1  0.08683474  0.91162166  0.44064431  1
  Se  Se156  1  0.08631852  0.91273258  0.95293298  1
  Se  Se157  1  0.41813623  0.24251403  0.43796275  1
  Se  Se158  1  0.42425879  0.24854865  0.95680421  1
  Se  Se159  1  0.42244607  0.57926435  0.44701847  1
  Se  Se160  1  0.40604835  0.59361699  0.93759709  1
  Se  Se161  1  0.44137770  0.90170011  0.43498891  1
  Se  Se162  1  0.41696514  0.92131730  0.95042912  1
  Se  Se163  1  0.73300833  0.26282584  0.44249535  1
  Se  Se164  1  0.75098534  0.24193697  0.94959814  1
  Se  Se165  1  0.73537336  0.58970703  0.43851282  1
  Se  Se166  1  0.73608281  0.58561228  0.93894922  1
  Se  Se167  1  0.74984844  0.92326689  0.43875390  1
  Se  Se168  1  0.74643244  0.91843658  0.94803966  1
  Se  Se169  1  0.25841311  0.07984751  0.44213443  1
  Se  Se170  1  0.25971073  0.07808588  0.94049422  1
  Se  Se171  1  0.25112219  0.41254541  0.43315656  1
  Se  Se172  1  0.25270160  0.40873704  0.95828118  1
  Se  Se173  1  0.25288129  0.74639475  0.44579031  1
  Se  Se174  1  0.24421675  0.75489173  0.94807010  1
  Se  Se175  1  0.58466576  0.08372669  0.43847853  1
  Se  Se176  1  0.57914676  0.08762615  0.95019295  1
  Se  Se177  1  0.57073984  0.41621144  0.44114432  1
  Se  Se178  1  0.59149074  0.40876230  0.94572586  1
  Se  Se179  1  0.58411929  0.75495618  0.45273518  1
  Se  Se180  1  0.57779112  0.75751209  0.94580251  1
  Se  Se181  1  0.92129310  0.07446394  0.43962025  1
  Se  Se182  1  0.92025540  0.07946195  0.95372923  1
  Se  Se183  1  0.92194525  0.40774139  0.44302061  1
  Se  Se184  1  0.92473293  0.40462899  0.93936694  1
  Se  Se185  1  0.92336091  0.74991428  0.43117917  1
  Se  Se186  1  0.91709660  0.74568048  0.95247904  1
  Se  Se187  1  0.24593459  0.24570148  0.30540260  1
  Se  Se188  1  0.24518146  0.24306816  0.80794007  1
  Se  Se189  1  0.24787037  0.57431167  0.31368701  1
  Se  Se190  1  0.24607107  0.57952417  0.81197548  1
  Se  Se191  1  0.25152920  0.92072698  0.30355545  1
  Se  Se192  1  0.24518450  0.92036475  0.80771205  1
  Se  Se193  1  0.59483790  0.26377543  0.29550319  1
  Se  Se194  1  0.58271532  0.24706784  0.80719132  1
  Se  Se195  1  0.57616446  0.59084786  0.31078296  1
  Se  Se196  1  0.57661820  0.58532531  0.79815453  1
  Se  Se197  1  0.58548323  0.92037135  0.29769052  1
  Se  Se198  1  0.58414337  0.91961383  0.80525419  1
  Se  Se199  1  0.91635445  0.24477051  0.30592710  1
  Se  Se200  1  0.91400697  0.24912335  0.80535515  1
  Se  Se201  1  0.92070277  0.58767543  0.29705875  1
  Se  Se202  1  0.90600188  0.57286471  0.81413301  1
  Se  Se203  1  0.91484733  0.92152869  0.29608638  1
  Se  Se204  1  0.91154209  0.91070366  0.81364229  1
  Se  Se205  1  0.07988356  0.08026615  0.30451491  1
  Se  Se206  1  0.08784243  0.09242526  0.80523403  1
  Se  Se207  1  0.08212867  0.41099544  0.30495297  1
  Se  Se208  1  0.08239425  0.41088045  0.80694572  1
  Se  Se209  1  0.08371739  0.74704852  0.29491540  1
  Se  Se210  1  0.08658006  0.75904805  0.80589538  1
  Se  Se211  1  0.43197507  0.09682097  0.29337438  1
  Se  Se212  1  0.41936409  0.08775723  0.80881514  1
  Se  Se213  1  0.40547645  0.39798896  0.29724544  1
  Se  Se214  1  0.42811751  0.42621810  0.81137547  1
  Se  Se215  1  0.41440057  0.75861536  0.31008924  1
  Se  Se216  1  0.41497998  0.76039669  0.80829073  1
  Se  Se217  1  0.74185926  0.08416009  0.29913560  1
  Se  Se218  1  0.74779558  0.08033614  0.80699015  1
  Se  Se219  1  0.75968218  0.42502538  0.30572585  1
  Se  Se220  1  0.74275958  0.41016882  0.80368704  1
  Se  Se221  1  0.75383712  0.76156541  0.31224092  1
  Se  Se222  1  0.74508346  0.74799910  0.80557736  1
  Se  Se223  1  0.25274049  0.08070957  0.20332148  1
  Se  Se224  1  0.24467943  0.09745276  0.68110459  1
  Se  Se225  1  0.24501852  0.42161516  0.19516799  1
  Se  Se226  1  0.24467426  0.42108754  0.69196203  1
  Se  Se227  1  0.24833179  0.75772761  0.18635819  1
  Se  Se228  1  0.24832114  0.76584565  0.68735848  1
  Se  Se229  1  0.56319372  0.09941261  0.20195068  1
  Se  Se230  1  0.58061048  0.07266153  0.69471231  1
  Se  Se231  1  0.58932915  0.42767095  0.21382196  1
  Se  Se232  1  0.57463294  0.40022696  0.68903477  1
  Se  Se233  1  0.57674509  0.75628759  0.18900779  1
  Se  Se234  1  0.58773563  0.74667522  0.69796418  1
  Se  Se235  1  0.91568807  0.08075393  0.19693638  1
  Se  Se236  1  0.90783607  0.09485169  0.68716286  1
  Se  Se237  1  0.92101376  0.40970687  0.19637528  1
  Se  Se238  1  0.91566469  0.41519502  0.69830165  1
  Se  Se239  1  0.91397128  0.75030947  0.19869139  1
  Se  Se240  1  0.90794728  0.76085803  0.68958683  1
  Se  Se241  1  0.08188151  0.25067646  0.19837008  1
  Se  Se242  1  0.07773243  0.25874308  0.69505923  1
  Se  Se243  1  0.08216299  0.58436050  0.19914286  1
  Se  Se244  1  0.09006894  0.57654828  0.69218942  1
  Se  Se245  1  0.08313343  0.92025959  0.19712062  1
  Se  Se246  1  0.09391619  0.92524440  0.68440064  1
  Se  Se247  1  0.39763810  0.28348821  0.20413693  1
  Se  Se248  1  0.42583737  0.24163720  0.68701139  1
  Se  Se249  1  0.43012517  0.57054135  0.19834540  1
  Se  Se250  1  0.42535193  0.56988340  0.69240774  1
  Se  Se251  1  0.41272274  0.91957444  0.19694968  1
  Se  Se252  1  0.43073422  0.91207420  0.68671367  1
  Se  Se253  1  0.74969193  0.24915885  0.19523854  1
  Se  Se254  1  0.74201739  0.24889731  0.69921805  1
  Se  Se255  1  0.75744468  0.57663291  0.18271496  1
  Se  Se256  1  0.74618291  0.58038406  0.69985360  1
  Se  Se257  1  0.74146996  0.92170739  0.19553012  1
  Se  Se258  1  0.74789210  0.92323617  0.70107065  1
