# generated using pymatgen
data_In86Cu29Se144
_symmetry_space_group_name_H-M   'P 1'
_cell_length_a   17.57205308
_cell_length_b   17.57350335
_cell_length_c   23.43109118
_cell_angle_alpha   90.00981099
_cell_angle_beta   89.98130421
_cell_angle_gamma   89.99541458
_symmetry_Int_Tables_number   1
_chemical_formula_structural   In86Cu29Se144
_chemical_formula_sum   'In86 Cu29 Se144'
_cell_volume   7235.57980679
_cell_formula_units_Z   1
loop_
 _symmetry_equiv_pos_site_id
 _symmetry_equiv_pos_as_xyz
  1  'x, y, z'
loop_
 _atom_site_type_symbol
 _atom_site_label
 _atom_site_symmetry_multiplicity
 _atom_site_fract_x
 _atom_site_fract_y
 _atom_site_fract_z
 _atom_site_occupancy
  In  In0  1  -0.01454070  0.15531477  0.10848719  1
  In  In1  1  0.01106255  0.15599791  0.63349738  1
  In  In2  1  -0.00296122  0.50209974  0.11819917  1
  In  In3  1  0.02408242  0.48866872  0.64997321  1
  In  In4  1  0.01568649  0.83641416  0.11905210  1
  In  In5  1  0.00611638  0.83546828  0.63231884  1
  In  In6  1  0.33241760  0.17268021  0.12616349  1
  In  In7  1  0.33940448  0.16871074  0.61288445  1
  In  In8  1  0.33203980  0.49324116  0.13293633  1
  In  In9  1  0.32668201  0.49901264  0.62885085  1
  In  In10  1  0.31797376  0.82745071  0.12713011  1
  In  In11  1  0.28927883  0.84214014  0.62718887  1
  In  In12  1  0.67898633  0.15742360  0.13549626  1
  In  In13  1  0.65478504  0.16437135  0.62019205  1
  In  In14  1  0.68361649  0.48514923  0.14836511  1
  In  In15  1  0.66150516  0.51124967  0.61712726  1
  In  In16  1  0.66539059  0.83782284  0.13630007  1
  In  In17  1  0.68362481  0.83470301  0.61610253  1
  In  In18  1  0.15870504  0.00521001  0.38501707  1
  In  In19  1  0.14968451  0.00769303  0.88362183  1
  In  In20  1  0.17809219  0.32869740  0.38074222  1
  In  In21  1  0.14655788  0.31891077  0.84872426  1
  In  In22  1  0.17166094  0.65705128  0.38590164  1
  In  In23  1  0.17010724  0.67173087  0.86550990  1
  In  In24  1  0.51985239  0.00497790  0.38298594  1
  In  In25  1  0.50362523  -0.01040902  0.86797704  1
  In  In26  1  0.49610993  0.33292561  0.37583436  1
  In  In27  1  0.49420243  0.34290084  0.87158757  1
  In  In28  1  0.48532621  0.66043413  0.37274659  1
  In  In29  1  0.49321279  0.66691551  0.87177801  1
  In  In30  1  0.82291396  -0.01234353  0.37041875  1
  In  In31  1  0.84999866  0.01490652  0.86763452  1
  In  In32  1  0.82541631  0.34731619  0.36866538  1
  In  In33  1  0.87640067  0.30430295  0.91225747  1
  In  In34  1  0.84014612  0.67900422  0.37351629  1
  In  In35  1  0.83903090  0.64829104  0.88436225  1
  In  In36  1  0.01780819  0.16571835  0.37765771  1
  In  In37  1  0.00337464  0.16272628  0.87637553  1
  In  In38  1  0.00025699  0.51246033  0.37742764  1
  In  In39  1  -0.00180549  0.48801283  0.86137445  1
  In  In40  1  -0.01120780  0.83516408  0.38408656  1
  In  In41  1  0.02119920  0.84736283  0.85216443  1
  In  In42  1  0.32103799  0.17240653  0.38674252  1
  In  In43  1  0.31284405  0.15896871  0.87167345  1
  In  In44  1  0.33338964  0.50176147  0.37988981  1
  In  In45  1  0.30210733  0.48383302  0.84134003  1
  In  In46  1  0.33058910  0.82044123  0.37869495  1
  In  In47  1  0.32350617  0.81649638  0.86218558  1
  In  In48  1  0.65938910  0.15980428  0.37113875  1
  In  In49  1  0.68367450  0.17166294  0.87638344  1
  In  In50  1  0.65487782  0.48708928  0.36180193  1
  In  In51  1  0.67600697  0.50337636  0.87837986  1
  In  In52  1  0.67789655  0.84797966  0.37218084  1
  In  In53  1  0.65383571  0.83619490  0.87081987  1
  In  In54  1  0.15610963  -0.00471599  0.12050234  1
  In  In55  1  0.15236176  -0.01298832  0.60767916  1
  In  In56  1  0.17036134  0.33106832  0.12481839  1
  In  In57  1  0.17166159  0.33524120  0.62880366  1
  In  In58  1  0.16298854  0.67041384  0.12575782  1
  In  In59  1  0.16809239  0.66839838  0.63347863  1
  In  In60  1  0.50682704  0.00946566  0.13146740  1
  In  In61  1  0.49576596  0.01481559  0.61876442  1
  In  In62  1  0.49481248  0.33851421  0.13390895  1
  In  In63  1  0.48674748  0.32624685  0.61541524  1
  In  In64  1  0.49824186  0.66598058  0.13483896  1
  In  In65  1  0.49459041  0.65367229  0.61423364  1
  In  In66  1  0.83335804  0.00288859  0.12828071  1
  In  In67  1  0.84354208  -0.00540919  0.63324980  1
  In  In68  1  0.83459254  0.32616930  0.12308572  1
  In  In69  1  0.84451923  0.34374405  0.62809328  1
  In  In70  1  0.82982561  0.65687686  0.12793711  1
  In  In71  1  0.83536865  0.67417126  0.62197704  1
  In  In72  1  0.49931597  0.50947964  -0.00285713  1
  In  In73  1  0.49624351  0.83289027  0.49946507  1
  In  In74  1  0.00152984  0.32726667  0.24300431  1
  In  In75  1  0.83743411  0.51088234  0.49952423  1
  In  In76  1  0.49161792  0.83349324  -0.00286267  1
  In  In77  1  0.32911272  0.00049057  0.74269959  1
  In  In78  1  0.66753780  0.66730775  0.74923444  1
  In  In79  1  0.83459337  0.16419167  0.49999873  1
  In  In80  1  0.83931641  0.83890428  -0.00474649  1
  In  In81  1  0.34224364  -0.00351340  0.26023098  1
  In  In82  1  0.16312763  0.49232194  -0.00814619  1
  In  In83  1  0.50007700  0.16667761  0.00826302  1
  In  In84  1  -0.00208083  0.66851273  0.24704612  1
  In  In85  1  0.67237755  0.33146061  0.75054023  1
  Cu  Cu86  1  0.82812526  0.83448565  0.74957238  1
  Cu  Cu87  1  0.17450422  0.49261056  0.25663241  1
  Cu  Cu88  1  0.16234995  0.82892863  0.24969276  1
  Cu  Cu89  1  0.32385066  0.66818521  0.50459901  1
  Cu  Cu90  1  0.49527862  0.49307613  0.74170585  1
  Cu  Cu91  1  0.31861984  -0.00708940  -0.00203779  1
  Cu  Cu92  1  0.49760056  0.16943097  0.74057867  1
  Cu  Cu93  1  0.66913860  0.66154156  0.00925453  1
  Cu  Cu94  1  0.65991949  0.33757523  0.49474397  1
  Cu  Cu95  1  0.49116894  0.50284247  0.25541764  1
  Cu  Cu96  1  0.01051915  0.33562396  0.50483239  1
  Cu  Cu97  1  0.67539579  0.33586993  0.00906306  1
  Cu  Cu98  1  0.00976842  0.66494005  0.51029324  1
  Cu  Cu99  1  0.50647163  0.83851918  0.73750634  1
  Cu  Cu100  1  0.67166994  0.00501652  0.00100019  1
  Cu  Cu101  1  0.16645663  0.16444941  0.74547492  1
  Cu  Cu102  1  0.83782442  0.16735348  0.24780323  1
  Cu  Cu103  1  0.66458920  0.66666976  0.49154279  1
  Cu  Cu104  1  0.83571815  0.49056259  0.75663886  1
  Cu  Cu105  1  0.50090060  0.83279639  0.25930757  1
  Cu  Cu106  1  0.32798178  0.32746873  -0.00350403  1
  Cu  Cu107  1  0.83493615  0.84023264  0.25177376  1
  Cu  Cu108  1  -0.00356326  -0.00485285  0.50430712  1
  Cu  Cu109  1  0.17064349  0.15921481  0.25625061  1
  Cu  Cu110  1  0.83538406  0.16752333  0.75597097  1
  Cu  Cu111  1  0.00105977  0.67052552  -0.00263585  1
  Cu  Cu112  1  0.50331856  0.17417824  0.25376107  1
  Cu  Cu113  1  0.32974256  0.34329092  0.50181392  1
  Cu  Cu114  1  0.32638930  0.66032374  -0.00893143  1
  Se  Se115  1  0.09851954  0.09675183  0.05431680  1
  Se  Se116  1  0.07835985  0.08938544  0.54868588  1
  Se  Se117  1  0.07469537  0.40504952  0.05525354  1
  Se  Se118  1  0.08495410  0.42200801  0.56224787  1
  Se  Se119  1  0.08977968  0.74773300  0.04975009  1
  Se  Se120  1  0.08914223  0.75392710  0.56150861  1
  Se  Se121  1  0.40514236  0.06755404  0.05828686  1
  Se  Se122  1  0.42206094  0.08895771  0.54315204  1
  Se  Se123  1  0.40962626  0.41025581  0.05378796  1
  Se  Se124  1  0.41431437  0.42629640  0.55514365  1
  Se  Se125  1  0.40713555  0.73663450  0.05578062  1
  Se  Se126  1  0.40263725  0.75239988  0.56395633  1
  Se  Se127  1  0.75320120  0.08568657  0.05641084  1
  Se  Se128  1  0.75000014  0.07548911  0.56255668  1
  Se  Se129  1  0.75272742  0.42309484  0.06258491  1
  Se  Se130  1  0.74549761  0.41148293  0.55609353  1
  Se  Se131  1  0.74501321  0.75485299  0.05971188  1
  Se  Se132  1  0.75221284  0.74295955  0.54586721  1
  Se  Se133  1  0.24871351  0.24667547  0.05360890  1
  Se  Se134  1  0.24807403  0.25592531  0.55388592  1
  Se  Se135  1  0.25280742  0.58041064  0.05733717  1
  Se  Se136  1  0.24380781  0.58418114  0.56063626  1
  Se  Se137  1  0.24258641  0.90868365  0.05555774  1
  Se  Se138  1  0.26593019  0.93780244  0.54687161  1
  Se  Se139  1  0.59028073  0.25728897  0.06710822  1
  Se  Se140  1  0.58191072  0.25221223  0.55055601  1
  Se  Se141  1  0.58849802  0.58144714  0.06822115  1
  Se  Se142  1  0.58071177  0.58153163  0.54165405  1
  Se  Se143  1  0.58747064  0.92298990  0.05685750  1
  Se  Se144  1  0.58852326  0.92180387  0.55748317  1
  Se  Se145  1  0.92121963  0.26075286  0.04910993  1
  Se  Se146  1  0.92565006  0.25473844  0.56063051  1
  Se  Se147  1  0.91756143  0.59114098  0.05302120  1
  Se  Se148  1  0.93110852  0.57907925  0.56941245  1
  Se  Se149  1  0.92702185  0.92737243  0.05658493  1
  Se  Se150  1  0.91740374  0.91146038  0.56020609  1
  Se  Se151  1  0.09001342  0.25043124  0.44971514  1
  Se  Se152  1  0.08041785  0.26455811  0.93536976  1
  Se  Se153  1  0.08391980  0.57720654  0.45344399  1
  Se  Se154  1  0.07841377  0.58903095  0.93514360  1
  Se  Se155  1  0.08073035  0.91210717  0.44968220  1
  Se  Se156  1  0.08139379  0.90363430  0.94227463  1
  Se  Se157  1  0.41158666  0.25691691  0.44813982  1
  Se  Se158  1  0.41292023  0.24873157  0.93825102  1
  Se  Se159  1  0.41132023  0.58803641  0.45144292  1
  Se  Se160  1  0.40072018  0.57721714  0.93031752  1
  Se  Se161  1  0.41228899  0.92301380  0.43546117  1
  Se  Se162  1  0.40152019  0.92076772  0.93481292  1
  Se  Se163  1  0.74830805  0.25988055  0.44029994  1
  Se  Se164  1  0.75184240  0.24642383  0.95559508  1
  Se  Se165  1  0.74448500  0.58487374  0.43165609  1
  Se  Se166  1  0.75060384  0.57751134  0.95589742  1
  Se  Se167  1  0.75797929  0.91220374  0.45056438  1
  Se  Se168  1  0.74266936  0.92354059  0.93549535  1
  Se  Se169  1  0.25238542  0.07517064  0.45092730  1
  Se  Se170  1  0.24127623  0.08648322  0.95014580  1
  Se  Se171  1  0.24409287  0.42485586  0.44880403  1
  Se  Se172  1  0.25460431  0.40585907  0.93152151  1
  Se  Se173  1  0.24219198  0.75386198  0.45222749  1
  Se  Se174  1  0.24640060  0.74999000  0.94234900  1
  Se  Se175  1  0.59315383  0.08974716  0.45341469  1
  Se  Se176  1  0.58481760  0.07870733  0.94025847  1
  Se  Se177  1  0.57801452  0.42261188  0.44299179  1
  Se  Se178  1  0.59145619  0.40727383  0.94556631  1
  Se  Se179  1  0.58525111  0.74913420  0.43329861  1
  Se  Se180  1  0.58963849  0.73726645  0.94537373  1
  Se  Se181  1  0.92332915  0.07574163  0.43807213  1
  Se  Se182  1  0.91725258  0.08585581  0.94721991  1
  Se  Se183  1  0.92480436  0.40935235  0.44359052  1
  Se  Se184  1  0.91246067  0.43886635  0.94297038  1
  Se  Se185  1  0.92071979  0.74050188  0.45371896  1
  Se  Se186  1  0.92702581  0.75145385  0.93291061  1
  Se  Se187  1  0.25181762  0.24739664  0.30568332  1
  Se  Se188  1  0.25519771  0.24709415  0.79505593  1
  Se  Se189  1  0.24930466  0.58427190  0.30884518  1
  Se  Se190  1  0.27510351  0.61478814  0.79879224  1
  Se  Se191  1  0.24114628  0.90911919  0.31159469  1
  Se  Se192  1  0.24196579  0.92148490  0.81115333  1
  Se  Se193  1  0.58761585  0.25689733  0.30688598  1
  Se  Se194  1  0.57648713  0.24213469  0.80930594  1
  Se  Se195  1  0.57740746  0.58799061  0.30419738  1
  Se  Se196  1  0.57624499  0.56927573  0.80585692  1
  Se  Se197  1  0.58453811  0.92208825  0.30489265  1
  Se  Se198  1  0.58765743  0.91951190  0.79371929  1
  Se  Se199  1  0.91434842  0.24437961  0.31396371  1
  Se  Se200  1  0.91481599  0.25180952  0.81219529  1
  Se  Se201  1  0.90638869  0.57631943  0.30385358  1
  Se  Se202  1  0.91415899  0.58462841  0.80269968  1
  Se  Se203  1  0.92281173  0.91736625  0.30579269  1
  Se  Se204  1  0.91532235  0.92015524  0.79770243  1
  Se  Se205  1  0.08360383  0.07592054  0.30447495  1
  Se  Se206  1  0.08388256  0.08389736  0.80233350  1
  Se  Se207  1  0.08366485  0.41793970  0.31197408  1
  Se  Se208  1  0.11578760  0.44760577  0.80111637  1
  Se  Se209  1  0.08514032  0.74998631  0.31435036  1
  Se  Se210  1  0.07008393  0.73036777  0.79562390  1
  Se  Se211  1  0.42597713  0.09409008  0.31727934  1
  Se  Se212  1  0.42152239  0.08942181  0.80690605  1
  Se  Se213  1  0.40995275  0.41629208  0.30849259  1
  Se  Se214  1  0.41347200  0.40766097  0.79401454  1
  Se  Se215  1  0.40984650  0.74910139  0.30232968  1
  Se  Se216  1  0.43069555  0.75784689  0.79901606  1
  Se  Se217  1  0.75483768  0.08694906  0.30559607  1
  Se  Se218  1  0.74737494  0.08227070  0.80321664  1
  Se  Se219  1  0.75246116  0.42321384  0.29416659  1
  Se  Se220  1  0.75991365  0.41025076  0.81809985  1
  Se  Se221  1  0.75328728  0.75554713  0.30470947  1
  Se  Se222  1  0.75652337  0.75172445  0.81482609  1
  Se  Se223  1  0.25198881  0.07930669  0.19429670  1
  Se  Se224  1  0.24271945  0.08804134  0.67969291  1
  Se  Se225  1  0.25042916  0.40676582  0.19932062  1
  Se  Se226  1  0.23944584  0.42722755  0.70069101  1
  Se  Se227  1  0.24669569  0.74236645  0.20034619  1
  Se  Se228  1  0.25690805  0.74549963  0.70395386  1
  Se  Se229  1  0.58612640  0.08486545  0.20407123  1
  Se  Se230  1  0.58219911  0.08192941  0.69486279  1
  Se  Se231  1  0.57620298  0.41731703  0.20452176  1
  Se  Se232  1  0.58319236  0.41758989  0.68515042  1
  Se  Se233  1  0.58164210  0.75158434  0.20023962  1
  Se  Se234  1  0.58269646  0.75053435  0.68024328  1
  Se  Se235  1  0.92185708  0.08597695  0.19395043  1
  Se  Se236  1  0.91888931  0.08424998  0.70129340  1
  Se  Se237  1  0.91265937  0.42591069  0.19176760  1
  Se  Se238  1  0.92414134  0.40760181  0.70679613  1
  Se  Se239  1  0.91137037  0.76259857  0.18577631  1
  Se  Se240  1  0.91094929  0.75317852  0.69476725  1
  Se  Se241  1  0.09117982  0.23258085  0.18943372  1
  Se  Se242  1  0.08232872  0.25409022  0.69723266  1
  Se  Se243  1  0.09181189  0.56912178  0.19424470  1
  Se  Se244  1  0.06520736  0.61098703  0.70318442  1
  Se  Se245  1  0.08273342  0.91604812  0.19758657  1
  Se  Se246  1  0.09439073  0.92107287  0.69446431  1
  Se  Se247  1  0.41439249  0.24849785  0.19832533  1
  Se  Se248  1  0.41042291  0.25004408  0.69115056  1
  Se  Se249  1  0.40875283  0.58381768  0.19838757  1
  Se  Se250  1  0.41835514  0.58474219  0.69265400  1
  Se  Se251  1  0.42368488  0.90633703  0.18920601  1
  Se  Se252  1  0.41681219  0.91037783  0.67980017  1
  Se  Se253  1  0.75331907  0.25378633  0.19895965  1
  Se  Se254  1  0.75971267  0.24095738  0.68650239  1
  Se  Se255  1  0.73496328  0.60359057  0.20035020  1
  Se  Se256  1  0.75870694  0.57130567  0.69248118  1
  Se  Se257  1  0.74968443  0.92456969  0.19933450  1
  Se  Se258  1  0.74580878  0.91645463  0.69550351  1
