# generated using pymatgen
data_In86Cu29Se144
_symmetry_space_group_name_H-M   'P 1'
_cell_length_a   17.58483477
_cell_length_b   17.58143102
_cell_length_c   23.43863941
_cell_angle_alpha   90.02241618
_cell_angle_beta   89.99831579
_cell_angle_gamma   89.99426418
_symmetry_Int_Tables_number   1
_chemical_formula_structural   In86Cu29Se144
_chemical_formula_sum   'In86 Cu29 Se144'
_cell_volume   7246.44291529
_cell_formula_units_Z   1
loop_
 _symmetry_equiv_pos_site_id
 _symmetry_equiv_pos_as_xyz
  1  'x, y, z'
loop_
 _atom_site_type_symbol
 _atom_site_label
 _atom_site_symmetry_multiplicity
 _atom_site_fract_x
 _atom_site_fract_y
 _atom_site_fract_z
 _atom_site_occupancy
  In  In0  1  0.00191940  0.17711481  0.12943624  1
  In  In1  1  -0.00218740  0.16847182  0.62032734  1
  In  In2  1  0.00664305  0.50919380  0.11373343  1
  In  In3  1  -0.01370961  0.48748601  0.61893268  1
  In  In4  1  -0.01549269  0.82619796  0.12699157  1
  In  In5  1  0.00871551  0.84247110  0.62062168  1
  In  In6  1  0.34273904  0.15922526  0.12945760  1
  In  In7  1  0.34093201  0.18194796  0.60218079  1
  In  In8  1  0.33863653  0.50568758  0.12105455  1
  In  In9  1  0.34597842  0.50237666  0.61209702  1
  In  In10  1  0.33413911  0.81607983  0.12850960  1
  In  In11  1  0.32946756  0.83350324  0.62674740  1
  In  In12  1  0.64310333  0.18582443  0.14983797  1
  In  In13  1  0.67937040  0.17447739  0.61213142  1
  In  In14  1  0.66336223  0.49653538  0.12036667  1
  In  In15  1  0.66485779  0.49994036  0.62603761  1
  In  In16  1  0.66967547  0.84533611  0.12879553  1
  In  In17  1  0.65814562  0.81530833  0.62445397  1
  In  In18  1  0.16129200  0.00429517  0.38311110  1
  In  In19  1  0.16481204  0.01230154  0.86746265  1
  In  In20  1  0.17689666  0.33191949  0.39278497  1
  In  In21  1  0.16907158  0.34602927  0.87071876  1
  In  In22  1  0.16471575  0.66637767  0.37785212  1
  In  In23  1  0.16990444  0.64792563  0.87209390  1
  In  In24  1  0.52020137  0.01197361  0.37347029  1
  In  In25  1  0.50615998  0.00401846  0.88292485  1
  In  In26  1  0.51713391  0.32498309  0.38361698  1
  In  In27  1  0.51091244  0.32614971  0.87793553  1
  In  In28  1  0.48288692  0.66575317  0.37044718  1
  In  In29  1  0.49933406  0.66348103  0.87295639  1
  In  In30  1  0.80630139  0.01761419  0.40047325  1
  In  In31  1  0.83866686  -0.01226231  0.86689840  1
  In  In32  1  0.81947198  0.34763373  0.37712772  1
  In  In33  1  0.84276957  0.34169947  0.86511500  1
  In  In34  1  0.84921137  0.65000885  0.38183287  1
  In  In35  1  0.82256447  0.66736229  0.87500249  1
  In  In36  1  -0.00032729  0.16068275  0.38199792  1
  In  In37  1  0.00072220  0.16713000  0.86077860  1
  In  In38  1  -0.00601649  0.51082298  0.38138940  1
  In  In39  1  0.01161034  0.49694017  0.87873457  1
  In  In40  1  0.00275428  0.82599743  0.38213376  1
  In  In41  1  -0.01230315  0.83396357  0.86804326  1
  In  In42  1  0.34181396  0.17356986  0.38753907  1
  In  In43  1  0.33577246  0.17936708  0.87595899  1
  In  In44  1  0.32471286  0.50480890  0.38400119  1
  In  In45  1  0.32697382  0.50948498  0.87712967  1
  In  In46  1  0.33246396  0.81961033  0.37415361  1
  In  In47  1  0.35418007  0.82785925  0.87333964  1
  In  In48  1  0.66228148  0.17400563  0.37664651  1
  In  In49  1  0.65635659  0.16972855  0.87357869  1
  In  In50  1  0.67982203  0.48880715  0.37785616  1
  In  In51  1  0.66697321  0.49724313  0.87584427  1
  In  In52  1  0.66906373  0.84483928  0.37897424  1
  In  In53  1  0.66301716  0.82088684  0.86875042  1
  In  In54  1  0.16925289  0.00650971  0.12961470  1
  In  In55  1  0.16620327  -0.00336658  0.61635697  1
  In  In56  1  0.15741792  0.34434882  0.12810122  1
  In  In57  1  0.15753058  0.32305484  0.61190195  1
  In  In58  1  0.16862232  0.65750159  0.13028625  1
  In  In59  1  0.17414022  0.67360142  0.62360099  1
  In  In60  1  0.51189134  0.01065847  0.11965902  1
  In  In61  1  0.49368382  0.00022141  0.62083737  1
  In  In62  1  0.50412102  0.33899156  0.12076903  1
  In  In63  1  0.50429261  0.34606597  0.61711179  1
  In  In64  1  0.49078868  0.65577781  0.11830656  1
  In  In65  1  0.51480042  0.65791045  0.63990818  1
  In  In66  1  0.82550414  -0.01090258  0.13207048  1
  In  In67  1  0.83812937  0.01172629  0.61056918  1
  In  In68  1  0.82120849  0.33470279  0.12831772  1
  In  In69  1  0.83074963  0.33525811  0.62522964  1
  In  In70  1  0.84690597  0.65984080  0.13096176  1
  In  In71  1  0.82325982  0.65266573  0.61732183  1
  In  In72  1  0.66471186  0.66623131  0.24681335  1
  In  In73  1  0.17415239  0.17676052  0.00806311  1
  In  In74  1  0.33739409  0.33335072  0.26244395  1
  In  In75  1  -0.00729037  -0.00810884  0.26450222  1
  In  In76  1  0.49911551  0.83141663  0.49836275  1
  In  In77  1  0.16757607  0.83035040  0.00744522  1
  In  In78  1  0.67184573  0.00073119  0.74581433  1
  In  In79  1  0.33669664  0.00052022  0.26066611  1
  In  In80  1  0.82786481  0.16606508  0.00519553  1
  In  In81  1  -0.00071251  0.33914084  0.25605945  1
  In  In82  1  0.33193227  0.33936022  0.74384614  1
  In  In83  1  0.00118474  0.66519174  0.74976625  1
  In  In84  1  0.82555453  0.82422781  -0.00541605  1
  In  In85  1  0.33110734  0.00014275  0.73902508  1
  Cu  Cu86  1  0.00482150  0.66642951  0.50500849  1
  Cu  Cu87  1  0.66133282  0.66456410  -0.00285944  1
  Cu  Cu88  1  0.34444219  0.00081265  0.00114686  1
  Cu  Cu89  1  0.17150799  0.83419099  0.74353276  1
  Cu  Cu90  1  0.34242486  0.34084845  -0.00230705  1
  Cu  Cu91  1  0.83224378  0.83031199  0.25861371  1
  Cu  Cu92  1  0.15891183  0.16572025  0.73752174  1
  Cu  Cu93  1  0.49992531  0.49802704  0.24604244  1
  Cu  Cu94  1  0.66228517  0.00274587  0.00457216  1
  Cu  Cu95  1  0.33640840  0.66644422  -0.00083589  1
  Cu  Cu96  1  -0.00160659  -0.00504948  0.50017129  1
  Cu  Cu97  1  0.16277726  0.49380804  0.74620968  1
  Cu  Cu98  1  0.33541561  -0.00246893  0.49821304  1
  Cu  Cu99  1  0.00042889  -0.00138809  -0.00684693  1
  Cu  Cu100  1  0.66186251  0.65813968  0.50175838  1
  Cu  Cu101  1  0.84004807  0.83659438  0.74122507  1
  Cu  Cu102  1  0.50128593  0.16698299  0.75024712  1
  Cu  Cu103  1  0.00385451  0.34317955  -0.00594207  1
  Cu  Cu104  1  0.16660380  0.50502854  0.25632772  1
  Cu  Cu105  1  0.50250793  0.49982880  0.75085535  1
  Cu  Cu106  1  0.82543420  0.49939829  0.74627926  1
  Cu  Cu107  1  0.83472841  0.16847460  0.73827117  1
  Cu  Cu108  1  0.66937852  0.33863455  0.50143228  1
  Cu  Cu109  1  0.15624972  0.82526889  0.25189164  1
  Cu  Cu110  1  0.49512994  0.83569294  0.25198960  1
  Cu  Cu111  1  0.82975169  0.15984389  0.25801961  1
  Cu  Cu112  1  0.33077821  0.66875193  0.50075401  1
  Cu  Cu113  1  0.66601863  0.33433143  0.00211253  1
  Cu  Cu114  1  -0.00696141  0.33221676  0.49913924  1
  Se  Se115  1  0.07405125  0.07890896  0.05701190  1
  Se  Se116  1  0.08098605  0.08219259  0.55255748  1
  Se  Se117  1  0.09143810  0.42051153  0.04864879  1
  Se  Se118  1  0.07847152  0.41772417  0.54959308  1
  Se  Se119  1  0.07295010  0.74224451  0.06167468  1
  Se  Se120  1  0.08839513  0.75264476  0.55510344  1
  Se  Se121  1  0.42230288  0.08997161  0.05297514  1
  Se  Se122  1  0.42211397  0.08215303  0.54676814  1
  Se  Se123  1  0.42299048  0.42397444  0.05331074  1
  Se  Se124  1  0.39865016  0.39368051  0.54782279  1
  Se  Se125  1  0.41822199  0.75208940  0.05173931  1
  Se  Se126  1  0.41666677  0.74133425  0.56298506  1
  Se  Se127  1  0.74095889  0.07906987  0.06795085  1
  Se  Se128  1  0.74096281  0.07705567  0.54445013  1
  Se  Se129  1  0.75254050  0.41655456  0.05245005  1
  Se  Se130  1  0.75166120  0.42217374  0.55631486  1
  Se  Se131  1  0.74080697  0.74073960  0.06297305  1
  Se  Se132  1  0.74468524  0.74455457  0.55219391  1
  Se  Se133  1  0.26551105  0.26662176  0.06678210  1
  Se  Se134  1  0.23348167  0.23750712  0.54253527  1
  Se  Se135  1  0.25088632  0.58646121  0.05436947  1
  Se  Se136  1  0.24889607  0.58440447  0.55444810  1
  Se  Se137  1  0.26095160  0.92674693  0.06244825  1
  Se  Se138  1  0.25497151  0.91278543  0.55224485  1
  Se  Se139  1  0.58833719  0.24749989  0.05822777  1
  Se  Se140  1  0.58372828  0.25465131  0.55248569  1
  Se  Se141  1  0.58073623  0.57942876  0.05192023  1
  Se  Se142  1  0.57602513  0.58029998  0.55736351  1
  Se  Se143  1  0.58300148  0.91223512  0.05443644  1
  Se  Se144  1  0.59009798  0.91939391  0.55819294  1
  Se  Se145  1  0.92618343  0.26186391  0.05584134  1
  Se  Se146  1  0.90958332  0.25030274  0.55449052  1
  Se  Se147  1  0.91048149  0.58414386  0.05116827  1
  Se  Se148  1  0.91559493  0.58016758  0.55025903  1
  Se  Se149  1  0.91693787  0.92292317  0.05334123  1
  Se  Se150  1  0.91481960  0.91068515  0.55183360  1
  Se  Se151  1  0.07896578  0.24881811  0.44860466  1
  Se  Se152  1  0.08003279  0.25154895  0.93876871  1
  Se  Se153  1  0.08656897  0.58252554  0.44942670  1
  Se  Se154  1  0.08508347  0.58642312  0.94672041  1
  Se  Se155  1  0.08514001  0.91339192  0.44848022  1
  Se  Se156  1  0.08261482  0.91908229  0.93670872  1
  Se  Se157  1  0.41319184  0.26915696  0.45154753  1
  Se  Se158  1  0.42059019  0.24996046  0.94761751  1
  Se  Se159  1  0.41696404  0.58629485  0.44888310  1
  Se  Se160  1  0.41854849  0.58154112  0.94537324  1
  Se  Se161  1  0.41471278  0.92241942  0.43315690  1
  Se  Se162  1  0.42220609  0.91594791  0.94611640  1
  Se  Se163  1  0.75033574  0.25429856  0.44557857  1
  Se  Se164  1  0.74753409  0.25658595  0.93927638  1
  Se  Se165  1  0.75061368  0.58089669  0.44730463  1
  Se  Se166  1  0.74831963  0.58302244  0.94596753  1
  Se  Se167  1  0.75293927  0.90346320  0.45676872  1
  Se  Se168  1  0.73897901  0.92515249  0.93896996  1
  Se  Se169  1  0.25301221  0.08336533  0.44646025  1
  Se  Se170  1  0.25731058  0.07924308  0.94413259  1
  Se  Se171  1  0.25347581  0.42086277  0.45760424  1
  Se  Se172  1  0.25171773  0.41612069  0.94462741  1
  Se  Se173  1  0.24722360  0.75216692  0.44792006  1
  Se  Se174  1  0.25463259  0.74734525  0.93954219  1
  Se  Se175  1  0.58794688  0.08883583  0.45018022  1
  Se  Se176  1  0.58484806  0.09116778  0.95044570  1
  Se  Se177  1  0.58587381  0.42396217  0.44899558  1
  Se  Se178  1  0.58304172  0.41662190  0.94695113  1
  Se  Se179  1  0.58644419  0.73832517  0.43693052  1
  Se  Se180  1  0.58146712  0.75005982  0.94326340  1
  Se  Se181  1  0.91570098  0.08624104  0.45397493  1
  Se  Se182  1  0.91891105  0.08079588  0.93723648  1
  Se  Se183  1  0.91368091  0.41850518  0.44480103  1
  Se  Se184  1  0.91476950  0.41999824  0.94171004  1
  Se  Se185  1  0.91730973  0.74511635  0.45035191  1
  Se  Se186  1  0.92668289  0.73929376  0.94151624  1
  Se  Se187  1  0.24323530  0.24178370  0.31555417  1
  Se  Se188  1  0.23972317  0.24231583  0.80167065  1
  Se  Se189  1  0.25279270  0.58673560  0.30852724  1
  Se  Se190  1  0.24994919  0.57671796  0.79629541  1
  Se  Se191  1  0.23618152  0.90852207  0.31043245  1
  Se  Se192  1  0.24903903  0.91261602  0.80963448  1
  Se  Se193  1  0.58724907  0.25628815  0.30309075  1
  Se  Se194  1  0.58596401  0.25284014  0.79895697  1
  Se  Se195  1  0.57755786  0.57781284  0.31015428  1
  Se  Se196  1  0.58627976  0.58121843  0.80581853  1
  Se  Se197  1  0.58215261  0.91325608  0.30489477  1
  Se  Se198  1  0.57787486  0.91708234  0.80732008  1
  Se  Se199  1  0.91125592  0.24349973  0.31350348  1
  Se  Se200  1  0.91629614  0.25070280  0.79667727  1
  Se  Se201  1  0.91616771  0.57583098  0.30175914  1
  Se  Se202  1  0.90936683  0.57637387  0.80869057  1
  Se  Se203  1  0.89939421  0.91293436  0.32598758  1
  Se  Se204  1  0.92416720  0.92075956  0.79222207  1
  Se  Se205  1  0.08971190  0.09041420  0.30587151  1
  Se  Se206  1  0.08057622  0.07999068  0.79330013  1
  Se  Se207  1  0.09483758  0.42012789  0.31837704  1
  Se  Se208  1  0.07816804  0.41406855  0.80035292  1
  Se  Se209  1  0.07575632  0.74346022  0.30743479  1
  Se  Se210  1  0.09395117  0.75635921  0.80932314  1
  Se  Se211  1  0.42694832  0.09862455  0.31015881  1
  Se  Se212  1  0.41863507  0.08809865  0.80785254  1
  Se  Se213  1  0.42649630  0.42676869  0.31738684  1
  Se  Se214  1  0.42122038  0.41911480  0.81150769  1
  Se  Se215  1  0.40921940  0.74811326  0.29619273  1
  Se  Se216  1  0.41431065  0.73894859  0.80083834  1
  Se  Se217  1  0.74529945  0.07989507  0.31174655  1
  Se  Se218  1  0.76057121  0.09308460  0.80827699  1
  Se  Se219  1  0.74892769  0.41786548  0.29697142  1
  Se  Se220  1  0.74515501  0.41458105  0.80246712  1
  Se  Se221  1  0.75189437  0.74638530  0.31630340  1
  Se  Se222  1  0.75972530  0.75672501  0.80017241  1
  Se  Se223  1  0.24433316  0.09382910  0.20033796  1
  Se  Se224  1  0.25094459  0.09777760  0.67945663  1
  Se  Se225  1  0.24804526  0.42330384  0.19715591  1
  Se  Se226  1  0.24148479  0.42031106  0.67966724  1
  Se  Se227  1  0.24463001  0.74745580  0.19862992  1
  Se  Se228  1  0.25627398  0.74663589  0.69860952  1
  Se  Se229  1  0.58918414  0.06911038  0.20135561  1
  Se  Se230  1  0.58009780  0.09019043  0.68674716  1
  Se  Se231  1  0.58469476  0.41669844  0.19407289  1
  Se  Se232  1  0.58211791  0.41505248  0.69540680  1
  Se  Se233  1  0.57239523  0.75596577  0.18767111  1
  Se  Se234  1  0.58559561  0.75158046  0.70580908  1
  Se  Se235  1  0.91269844  0.08711199  0.19382179  1
  Se  Se236  1  0.91648826  0.08081242  0.68916767  1
  Se  Se237  1  0.91947005  0.42060247  0.18501668  1
  Se  Se238  1  0.91323307  0.41545658  0.69803649  1
  Se  Se239  1  0.91518403  0.74889926  0.20441057  1
  Se  Se240  1  0.91485762  0.74891590  0.68290044  1
  Se  Se241  1  0.09550416  0.24514745  0.19990748  1
  Se  Se242  1  0.07703253  0.25567669  0.69066627  1
  Se  Se243  1  0.08044844  0.57750707  0.19669223  1
  Se  Se244  1  0.08432437  0.57570983  0.68514533  1
  Se  Se245  1  0.08310109  0.91143009  0.19138399  1
  Se  Se246  1  0.08976325  0.92024252  0.69360663  1
  Se  Se247  1  0.42437701  0.24930574  0.19477901  1
  Se  Se248  1  0.42128249  0.24486290  0.68769873  1
  Se  Se249  1  0.41470319  0.58361710  0.19703284  1
  Se  Se250  1  0.41469806  0.57480046  0.69413574  1
  Se  Se251  1  0.41742214  0.91643090  0.18889576  1
  Se  Se252  1  0.43032497  0.90547302  0.69458160  1
  Se  Se253  1  0.75475168  0.24970584  0.20327718  1
  Se  Se254  1  0.74476489  0.25104607  0.69309232  1
  Se  Se255  1  0.75531225  0.57317062  0.19247703  1
  Se  Se256  1  0.74399589  0.58698184  0.69671935  1
  Se  Se257  1  0.74806948  0.91484117  0.20743603  1
  Se  Se258  1  0.75644229  0.91266632  0.68120559  1
