# generated using pymatgen
data_In86Cu29Se144
_symmetry_space_group_name_H-M   'P 1'
_cell_length_a   17.59717834
_cell_length_b   17.59211502
_cell_length_c   23.46158920
_cell_angle_alpha   89.98750098
_cell_angle_beta   90.02047618
_cell_angle_gamma   89.99902455
_symmetry_Int_Tables_number   1
_chemical_formula_structural   In86Cu29Se144
_chemical_formula_sum   'In86 Cu29 Se144'
_cell_volume   7263.04072699
_cell_formula_units_Z   1
loop_
 _symmetry_equiv_pos_site_id
 _symmetry_equiv_pos_as_xyz
  1  'x, y, z'
loop_
 _atom_site_type_symbol
 _atom_site_label
 _atom_site_symmetry_multiplicity
 _atom_site_fract_x
 _atom_site_fract_y
 _atom_site_fract_z
 _atom_site_occupancy
  In  In0  1  -0.00815670  0.16570210  0.13286182  1
  In  In1  1  -0.00590606  0.15849529  0.61491179  1
  In  In2  1  0.01195921  0.51301276  0.12750965  1
  In  In3  1  0.01896775  0.52245984  0.60729294  1
  In  In4  1  0.00017516  0.83834653  0.12483613  1
  In  In5  1  0.00041052  0.82744049  0.62671466  1
  In  In6  1  0.32727334  0.15429358  0.12705762  1
  In  In7  1  0.31468268  0.15852495  0.61996623  1
  In  In8  1  0.33287214  0.51184393  0.12528264  1
  In  In9  1  0.31953266  0.51792863  0.63290579  1
  In  In10  1  0.32214444  0.83509686  0.12513430  1
  In  In11  1  0.32878859  0.83231540  0.62500400  1
  In  In12  1  0.67465423  0.16339526  0.13416785  1
  In  In13  1  0.67171594  0.15836749  0.61654274  1
  In  In14  1  0.65766046  0.51561376  0.14350982  1
  In  In15  1  0.66885256  0.49325327  0.62338427  1
  In  In16  1  0.65497292  0.82339721  0.11532851  1
  In  In17  1  0.66859477  0.83518489  0.61390019  1
  In  In18  1  0.16610759  -0.00466690  0.37446721  1
  In  In19  1  0.15477033  -0.01748395  0.86866314  1
  In  In20  1  0.15676313  0.34162489  0.38575868  1
  In  In21  1  0.17842348  0.34001254  0.87523359  1
  In  In22  1  0.16986193  0.66674806  0.36997623  1
  In  In23  1  0.17404244  0.66881552  0.87719411  1
  In  In24  1  0.48224358  -0.00685601  0.36954663  1
  In  In25  1  0.49056056  -0.00667303  0.87647367  1
  In  In26  1  0.51432704  0.33078202  0.37099444  1
  In  In27  1  0.50643361  0.33958314  0.88270193  1
  In  In28  1  0.50454639  0.66985528  0.37067319  1
  In  In29  1  0.48174098  0.68813199  0.88986740  1
  In  In30  1  0.84877631  -0.01743621  0.38264578  1
  In  In31  1  0.86384453  -0.03557273  0.89596514  1
  In  In32  1  0.82819506  0.34159860  0.37955183  1
  In  In33  1  0.82709610  0.33515235  0.87296511  1
  In  In34  1  0.84221880  0.66815092  0.37102935  1
  In  In35  1  0.85006341  0.68380794  0.86834428  1
  In  In36  1  0.01142059  0.15446534  0.38380285  1
  In  In37  1  0.01464818  0.15631592  0.87263909  1
  In  In38  1  -0.00400539  0.51034853  0.37249152  1
  In  In39  1  0.00736632  0.52215006  0.87112807  1
  In  In40  1  0.00394224  0.83229347  0.37230549  1
  In  In41  1  0.01460253  0.83815105  0.87864237  1
  In  In42  1  0.33273767  0.15239153  0.37342360  1
  In  In43  1  0.33263435  0.15572230  0.87136473  1
  In  In44  1  0.31715900  0.51083044  0.37590066  1
  In  In45  1  0.31245459  0.52563471  0.89511970  1
  In  In46  1  0.32905140  0.82894109  0.37470723  1
  In  In47  1  0.33307816  0.83620361  0.87600312  1
  In  In48  1  0.67128306  0.17852240  0.36985292  1
  In  In49  1  0.67613669  0.16725334  0.87219598  1
  In  In50  1  0.70218416  0.52408481  0.34663117  1
  In  In51  1  0.66187614  0.49428133  0.88276324  1
  In  In52  1  0.67475625  0.82144755  0.38016670  1
  In  In53  1  0.67112085  0.83040721  0.89024462  1
  In  In54  1  0.17341535  -0.01225066  0.13004303  1
  In  In55  1  0.16451739  -0.00793849  0.62550275  1
  In  In56  1  0.15679982  0.34560848  0.12410629  1
  In  In57  1  0.16536757  0.33325180  0.61656376  1
  In  In58  1  0.16174077  0.66984017  0.13051318  1
  In  In59  1  0.16010309  0.66875374  0.62470873  1
  In  In60  1  0.48810077  -0.02155889  0.11233017  1
  In  In61  1  0.49909862  -0.01972138  0.62300147  1
  In  In62  1  0.49648002  0.35080352  0.12506086  1
  In  In63  1  0.50675209  0.33744394  0.62649867  1
  In  In64  1  0.49638171  0.66823203  0.12720856  1
  In  In65  1  0.48318518  0.66856108  0.62762632  1
  In  In66  1  0.84218220  -0.00281007  0.12235409  1
  In  In67  1  0.83799861  -0.00129049  0.61652172  1
  In  In68  1  0.82572991  0.32538319  0.13143075  1
  In  In69  1  0.83515844  0.33546118  0.61284980  1
  In  In70  1  0.82381874  0.67483069  0.13867779  1
  In  In71  1  0.85645858  0.68717206  0.60667353  1
  In  In72  1  0.49837320  0.16280629  -0.00296156  1
  In  In73  1  0.50071607  0.49582679  0.50095878  1
  In  In74  1  0.83249437  0.16249831  0.00186356  1
  In  In75  1  0.33602060  0.33720710  0.74367596  1
  In  In76  1  0.33556520  0.33342052  0.25130373  1
  In  In77  1  0.83467775  0.50856008  0.00544433  1
  In  In78  1  0.50167090  0.16200988  0.49150107  1
  In  In79  1  -0.00160482  0.33647183  0.75020148  1
  In  In80  1  0.66706814  0.33396252  0.74972849  1
  In  In81  1  0.67390891  -0.00497383  0.74885209  1
  In  In82  1  0.16496947  0.16143657  0.00270664  1
  In  In83  1  -0.00619243  0.33847651  0.25892617  1
  In  In84  1  0.66541613  -0.00624170  0.24773667  1
  In  In85  1  0.66801064  0.66551098  0.75541128  1
  Cu  Cu86  1  0.66863112  0.66141533  0.49157868  1
  Cu  Cu87  1  0.65551862  0.34442424  0.00933549  1
  Cu  Cu88  1  0.67563382  0.34075713  0.49244036  1
  Cu  Cu89  1  -0.00396088  0.33039508  0.49634466  1
  Cu  Cu90  1  0.66909094  0.65881951  0.00726723  1
  Cu  Cu91  1  0.32928793  0.67293498  0.00823124  1
  Cu  Cu92  1  0.16590659  0.16311051  0.25499968  1
  Cu  Cu93  1  0.49614784  0.82820409  0.24337926  1
  Cu  Cu94  1  0.49282101  0.15567801  0.75045724  1
  Cu  Cu95  1  0.83422766  0.16125218  0.25499111  1
  Cu  Cu96  1  0.33030851  0.34158572  0.00347955  1
  Cu  Cu97  1  0.48720923  0.51093788  0.76320127  1
  Cu  Cu98  1  0.83823230  0.15444472  0.74546463  1
  Cu  Cu99  1  0.16854327  0.82623912  0.74918457  1
  Cu  Cu100  1  -0.00033228  0.34485525  -0.00115835  1
  Cu  Cu101  1  0.32682450  -0.00660959  0.49751817  1
  Cu  Cu102  1  0.49468176  0.82944852  0.75149601  1
  Cu  Cu103  1  0.00685468  0.67965920  -0.00181176  1
  Cu  Cu104  1  0.83809976  0.83318029  0.25215147  1
  Cu  Cu105  1  0.00602064  -0.00694320  0.50147589  1
  Cu  Cu106  1  0.33184164  0.33701813  0.49978310  1
  Cu  Cu107  1  0.49798106  0.15954300  0.25051550  1
  Cu  Cu108  1  0.84137948  0.51141643  0.74061128  1
  Cu  Cu109  1  0.00299591  0.67040904  0.49212715  1
  Cu  Cu110  1  0.16540996  0.83233214  0.25136997  1
  Cu  Cu111  1  0.32592524  0.67301365  0.50266416  1
  Cu  Cu112  1  0.16440602  0.15485934  0.74446871  1
  Cu  Cu113  1  0.67026635  -0.00049869  0.49585855  1
  Cu  Cu114  1  0.50159945  0.50106170  0.24985144  1
  Se  Se115  1  0.07593243  0.07960665  0.06723743  1
  Se  Se116  1  0.08834919  0.07928277  0.55375836  1
  Se  Se117  1  0.08161693  0.42762654  0.05210993  1
  Se  Se118  1  0.08199030  0.41400952  0.54825937  1
  Se  Se119  1  0.08850761  0.75670666  0.05790191  1
  Se  Se120  1  0.08209126  0.75066662  0.55220712  1
  Se  Se121  1  0.40132242  0.07464020  0.04967850  1
  Se  Se122  1  0.41331162  0.07531766  0.55581027  1
  Se  Se123  1  0.41314212  0.42522121  0.05501953  1
  Se  Se124  1  0.40500509  0.41374579  0.56640682  1
  Se  Se125  1  0.41493656  0.75416502  0.06034075  1
  Se  Se126  1  0.41553426  0.75279583  0.55341821  1
  Se  Se127  1  0.73877589  0.07507908  0.05834327  1
  Se  Se128  1  0.75462856  0.08285924  0.54722287  1
  Se  Se129  1  0.74319258  0.41893645  0.06633671  1
  Se  Se130  1  0.75316913  0.42486258  0.54900450  1
  Se  Se131  1  0.75437174  0.74435728  0.05612611  1
  Se  Se132  1  0.74813833  0.74875717  0.54673685  1
  Se  Se133  1  0.25367764  0.25789321  0.06272273  1
  Se  Se134  1  0.24857655  0.24887564  0.54926841  1
  Se  Se135  1  0.24395663  0.58780717  0.05784532  1
  Se  Se136  1  0.24412490  0.58479121  0.55349077  1
  Se  Se137  1  0.24580006  0.91742752  0.05199837  1
  Se  Se138  1  0.24616532  0.91152883  0.55345211  1
  Se  Se139  1  0.58486935  0.25094770  0.06460030  1
  Se  Se140  1  0.59088150  0.26001480  0.55127082  1
  Se  Se141  1  0.58361995  0.58026972  0.06173114  1
  Se  Se142  1  0.58747716  0.59202453  0.56069399  1
  Se  Se143  1  0.59056959  0.92135110  0.04875045  1
  Se  Se144  1  0.58289083  0.91661196  0.54651055  1
  Se  Se145  1  0.92410909  0.26151603  0.05713924  1
  Se  Se146  1  0.91287130  0.24561970  0.54822068  1
  Se  Se147  1  0.92487373  0.60111547  0.06015800  1
  Se  Se148  1  0.91616635  0.58301868  0.54231772  1
  Se  Se149  1  0.91430602  0.91299655  0.05230248  1
  Se  Se150  1  0.92038065  0.91002935  0.55324360  1
  Se  Se151  1  0.08643683  0.24602110  0.45070476  1
  Se  Se152  1  0.07859162  0.26006990  0.94137275  1
  Se  Se153  1  0.08577274  0.58475822  0.44059679  1
  Se  Se154  1  0.08633055  0.58887237  0.94860762  1
  Se  Se155  1  0.08623065  0.91179773  0.44441073  1
  Se  Se156  1  0.09089606  0.91753755  0.95340466  1
  Se  Se157  1  0.41022378  0.25940112  0.43730613  1
  Se  Se158  1  0.40253141  0.25737480  0.94106496  1
  Se  Se159  1  0.41034091  0.59032916  0.44541323  1
  Se  Se160  1  0.41724388  0.58840640  0.95669583  1
  Se  Se161  1  0.41404434  0.91253022  0.44542691  1
  Se  Se162  1  0.42747115  0.90305974  0.94657515  1
  Se  Se163  1  0.75341362  0.24581728  0.44604803  1
  Se  Se164  1  0.73771089  0.26495122  0.94870986  1
  Se  Se165  1  0.75550529  0.58195183  0.43921382  1
  Se  Se166  1  0.75016650  0.59408135  0.93595665  1
  Se  Se167  1  0.75226659  0.91090436  0.44703592  1
  Se  Se168  1  0.74302204  0.93036500  0.94976280  1
  Se  Se169  1  0.24773804  0.08174820  0.44536976  1
  Se  Se170  1  0.24963532  0.07348176  0.93919170  1
  Se  Se171  1  0.24914218  0.42272656  0.44815000  1
  Se  Se172  1  0.24073926  0.42129896  0.95380288  1
  Se  Se173  1  0.24377442  0.75113769  0.44497846  1
  Se  Se174  1  0.25220280  0.75330415  0.94751047  1
  Se  Se175  1  0.59058398  0.07310317  0.43019023  1
  Se  Se176  1  0.59198734  0.07988562  0.93671510  1
  Se  Se177  1  0.59542414  0.42241280  0.43475835  1
  Se  Se178  1  0.57382659  0.42666062  0.95627242  1
  Se  Se179  1  0.58085687  0.74683198  0.44624096  1
  Se  Se180  1  0.58659617  0.74642928  0.95508878  1
  Se  Se181  1  0.91968518  0.07721556  0.44943454  1
  Se  Se182  1  0.93510265  0.08084068  0.94986542  1
  Se  Se183  1  0.92092402  0.41880822  0.44182055  1
  Se  Se184  1  0.91896750  0.41908029  0.93607183  1
  Se  Se185  1  0.91619983  0.75453504  0.44257450  1
  Se  Se186  1  0.91931012  0.75951769  0.94635575  1
  Se  Se187  1  0.24237301  0.24888431  0.31359306  1
  Se  Se188  1  0.24312123  0.24073474  0.80249034  1
  Se  Se189  1  0.25913332  0.59397386  0.29876759  1
  Se  Se190  1  0.25052182  0.58125681  0.80717311  1
  Se  Se191  1  0.25053285  0.91563414  0.30481344  1
  Se  Se192  1  0.25023072  0.91285953  0.80228693  1
  Se  Se193  1  0.58266017  0.24541421  0.29696430  1
  Se  Se194  1  0.57208993  0.24108039  0.80701078  1
  Se  Se195  1  0.58457059  0.58771344  0.29982411  1
  Se  Se196  1  0.57432019  0.58526850  0.82116562  1
  Se  Se197  1  0.57642557  0.90451691  0.30877507  1
  Se  Se198  1  0.58190635  0.90628256  0.80926568  1
  Se  Se199  1  0.91441850  0.23883631  0.31723289  1
  Se  Se200  1  0.90869431  0.23966511  0.80972252  1
  Se  Se201  1  0.90345974  0.57102043  0.30027284  1
  Se  Se202  1  0.91982602  0.59186175  0.79908420  1
  Se  Se203  1  0.92272606  0.91740901  0.30120264  1
  Se  Se204  1  0.93060777  0.91867841  0.80699843  1
  Se  Se205  1  0.08130106  0.07860911  0.30491429  1
  Se  Se206  1  0.08048288  0.07351329  0.79758665  1
  Se  Se207  1  0.09453448  0.42696816  0.30654693  1
  Se  Se208  1  0.09076429  0.42395108  0.80870096  1
  Se  Se209  1  0.08169345  0.74701332  0.30234236  1
  Se  Se210  1  0.08709336  0.74796762  0.80787682  1
  Se  Se211  1  0.40975844  0.07809068  0.29719788  1
  Se  Se212  1  0.41196600  0.07230722  0.80230832  1
  Se  Se213  1  0.42232523  0.42456684  0.31375190  1
  Se  Se214  1  0.41396729  0.41892838  0.81696840  1
  Se  Se215  1  0.41606412  0.74987075  0.30494687  1
  Se  Se216  1  0.41102772  0.74740580  0.80446470  1
  Se  Se217  1  0.75593918  0.07619821  0.31359770  1
  Se  Se218  1  0.76439665  0.07958525  0.81199351  1
  Se  Se219  1  0.74165287  0.39689153  0.30158987  1
  Se  Se220  1  0.75873556  0.43478489  0.80263106  1
  Se  Se221  1  0.75246254  0.74985608  0.30311496  1
  Se  Se222  1  0.75375204  0.76750845  0.80672753  1
  Se  Se223  1  0.24750881  0.08104129  0.19985196  1
  Se  Se224  1  0.25250486  0.07302782  0.69576737  1
  Se  Se225  1  0.24540872  0.42283643  0.19381893  1
  Se  Se226  1  0.23354409  0.42233852  0.69395605  1
  Se  Se227  1  0.25037347  0.74996190  0.19867082  1
  Se  Se228  1  0.25060167  0.74544400  0.69341540  1
  Se  Se229  1  0.57118465  0.07840453  0.18577584  1
  Se  Se230  1  0.57962481  0.08588507  0.68777606  1
  Se  Se231  1  0.58292794  0.41150260  0.20101763  1
  Se  Se232  1  0.56981346  0.43394888  0.70148215  1
  Se  Se233  1  0.58637854  0.74793296  0.19515646  1
  Se  Se234  1  0.58028340  0.75557450  0.69002117  1
  Se  Se235  1  0.91359929  0.07876692  0.19927483  1
  Se  Se236  1  0.92052278  0.07628969  0.68933813  1
  Se  Se237  1  0.91467502  0.42013484  0.18659772  1
  Se  Se238  1  0.91401270  0.42198136  0.68401365  1
  Se  Se239  1  0.92248537  0.75233488  0.19675652  1
  Se  Se240  1  0.91742132  0.74351160  0.69496220  1
  Se  Se241  1  0.08932610  0.24748324  0.19621667  1
  Se  Se242  1  0.08554782  0.24299737  0.68854725  1
  Se  Se243  1  0.08581447  0.58614210  0.20328889  1
  Se  Se244  1  0.07842706  0.58477360  0.69367245  1
  Se  Se245  1  0.08168397  0.91727646  0.19897747  1
  Se  Se246  1  0.08481811  0.90963871  0.69581253  1
  Se  Se247  1  0.42255352  0.24253169  0.18738167  1
  Se  Se248  1  0.42360095  0.23903348  0.68557010  1
  Se  Se249  1  0.41663187  0.58430584  0.19871959  1
  Se  Se250  1  0.40901190  0.58961839  0.70304868  1
  Se  Se251  1  0.41358239  0.91518997  0.19389895  1
  Se  Se252  1  0.41378835  0.91376807  0.69686249  1
  Se  Se253  1  0.74882591  0.24668598  0.20567899  1
  Se  Se254  1  0.75659064  0.24141089  0.69010464  1
  Se  Se255  1  0.76358904  0.57356698  0.20480894  1
  Se  Se256  1  0.75309784  0.58650605  0.68475262  1
  Se  Se257  1  0.75403062  0.90527762  0.18767469  1
  Se  Se258  1  0.75952020  0.90533345  0.68705057  1
