# generated using pymatgen
data_In86Cu29Se144
_symmetry_space_group_name_H-M   'P 1'
_cell_length_a   17.63873932
_cell_length_b   17.63313121
_cell_length_c   23.50212641
_cell_angle_alpha   90.01409116
_cell_angle_beta   89.99360049
_cell_angle_gamma   89.99861388
_symmetry_Int_Tables_number   1
_chemical_formula_structural   In86Cu29Se144
_chemical_formula_sum   'In86 Cu29 Se144'
_cell_volume   7309.77691504
_cell_formula_units_Z   1
loop_
 _symmetry_equiv_pos_site_id
 _symmetry_equiv_pos_as_xyz
  1  'x, y, z'
loop_
 _atom_site_type_symbol
 _atom_site_label
 _atom_site_symmetry_multiplicity
 _atom_site_fract_x
 _atom_site_fract_y
 _atom_site_fract_z
 _atom_site_occupancy
  In  In0  1  0.00446088  0.15972515  0.13996167  1
  In  In1  1  0.01587079  0.17292306  0.61989315  1
  In  In2  1  -0.00192740  0.49607010  0.12882256  1
  In  In3  1  0.00241529  0.49552688  0.62191027  1
  In  In4  1  0.00416681  0.82766352  0.13530265  1
  In  In5  1  0.00899974  0.82356548  0.62809150  1
  In  In6  1  0.31791831  0.20699276  0.14576445  1
  In  In7  1  0.32965351  0.17857817  0.62349197  1
  In  In8  1  0.32933110  0.50557050  0.12661118  1
  In  In9  1  0.32797662  0.50122039  0.62336722  1
  In  In10  1  0.32380765  0.82231530  0.12952687  1
  In  In11  1  0.31233975  0.81576415  0.61474947  1
  In  In12  1  0.66720073  0.16933921  0.12410074  1
  In  In13  1  0.66434133  0.16761176  0.63491368  1
  In  In14  1  0.67645169  0.50278131  0.11442450  1
  In  In15  1  0.66713813  0.50124557  0.62849899  1
  In  In16  1  0.65589931  0.82605946  0.12109276  1
  In  In17  1  0.66838224  0.82928463  0.63554789  1
  In  In18  1  0.15377464  0.01631365  0.38032773  1
  In  In19  1  0.17609160  0.00419793  0.88016996  1
  In  In20  1  0.17221819  0.34084868  0.37490027  1
  In  In21  1  0.16754199  0.33823143  0.87283407  1
  In  In22  1  0.16880671  0.66358477  0.38252566  1
  In  In23  1  0.15058223  0.65212822  0.85467535  1
  In  In24  1  0.50040309  0.00050340  0.37813156  1
  In  In25  1  0.50406074  -0.00407481  0.87437044  1
  In  In26  1  0.50195559  0.35468972  0.36877904  1
  In  In27  1  0.50809474  0.34531326  0.87029244  1
  In  In28  1  0.46594856  0.61046618  0.32834008  1
  In  In29  1  0.48820158  0.65449547  0.86691727  1
  In  In30  1  0.84215999  -0.00565864  0.37284299  1
  In  In31  1  0.82975094  0.00449788  0.87251431  1
  In  In32  1  0.86124937  0.34032178  0.36280906  1
  In  In33  1  0.84529522  0.34574724  0.86863100  1
  In  In34  1  0.82449132  0.65796947  0.37128051  1
  In  In35  1  0.82642602  0.65631777  0.86875821  1
  In  In36  1  0.04163322  0.20468763  0.31938129  1
  In  In37  1  -0.00121524  0.18531687  0.87589569  1
  In  In38  1  0.00095534  0.50577913  0.37805237  1
  In  In39  1  0.00270725  0.49994189  0.87284213  1
  In  In40  1  0.00964685  0.83936336  0.37337837  1
  In  In41  1  0.01342343  0.81418763  0.87298264  1
  In  In42  1  0.31826401  0.16922783  0.36621667  1
  In  In43  1  0.31374460  0.17538584  0.88172738  1
  In  In44  1  0.32729662  0.49362110  0.37697160  1
  In  In45  1  0.33238085  0.49935107  0.87299971  1
  In  In46  1  0.33018333  0.80497913  0.37739505  1
  In  In47  1  0.33967835  0.83073837  0.87356237  1
  In  In48  1  0.67396803  0.17205337  0.37702463  1
  In  In49  1  0.66518192  0.16740987  0.86989999  1
  In  In50  1  0.65051760  0.51480895  0.38713225  1
  In  In51  1  0.66645701  0.50118073  0.87434968  1
  In  In52  1  0.68039529  0.82457010  0.38063534  1
  In  In53  1  0.66449316  0.83251305  0.86684517  1
  In  In54  1  0.15232848  0.00372877  0.13025060  1
  In  In55  1  0.16572423  0.00337880  0.61387585  1
  In  In56  1  0.16011872  0.33691277  0.12885719  1
  In  In57  1  0.16673843  0.33515979  0.62253174  1
  In  In58  1  0.17479834  0.65441442  0.13671375  1
  In  In59  1  0.16810023  0.65827672  0.62466381  1
  In  In60  1  0.50005216  0.00492099  0.12052820  1
  In  In61  1  0.49872130  0.00659067  0.63180677  1
  In  In62  1  0.48290271  0.34696965  0.13368557  1
  In  In63  1  0.48921674  0.34649267  0.63376899  1
  In  In64  1  0.51324947  0.64853384  0.13968749  1
  In  In65  1  0.50086522  0.66058602  0.62915754  1
  In  In66  1  0.84147860  0.01093927  0.12304476  1
  In  In67  1  0.82798951  -0.00608141  0.62871171  1
  In  In68  1  0.83085849  0.34439345  0.12772997  1
  In  In69  1  0.82540430  0.33916573  0.63040798  1
  In  In70  1  0.84666574  0.65811936  0.12908296  1
  In  In71  1  0.83957783  0.65638477  0.62839761  1
  In  In72  1  0.66972019  0.33171652  0.24756867  1
  In  In73  1  -0.00524691  0.00253540  0.74652273  1
  In  In74  1  0.33291709  -0.00682502  0.25303222  1
  In  In75  1  0.50217441  0.82146947  0.50376315  1
  In  In76  1  0.84255275  0.82874261  0.50903186  1
  In  In77  1  0.16756417  0.82835980  -0.00244055  1
  In  In78  1  0.83002008  0.83076656  -0.00952036  1
  In  In79  1  0.67054897  -0.00641809  0.23817085  1
  In  In80  1  0.83603243  0.17596507  0.00835776  1
  In  In81  1  0.33865244  -0.00300116  0.75296820  1
  In  In82  1  0.49246337  0.18113474  0.49942803  1
  In  In83  1  0.49301569  0.82877812  -0.00109346  1
  In  In84  1  0.49279546  0.17367640  0.00436354  1
  In  In85  1  0.84238897  0.17255835  0.48798594  1
  Cu  Cu86  1  0.83644375  0.82562077  0.25101895  1
  Cu  Cu87  1  0.16262050  0.49865145  0.25172590  1
  Cu  Cu88  1  0.50237734  0.16854446  0.75304436  1
  Cu  Cu89  1  0.00995532  0.33897115  -0.00109472  1
  Cu  Cu90  1  -0.00184214  0.00413859  0.00610934  1
  Cu  Cu91  1  0.00690959  0.65404037  0.00295325  1
  Cu  Cu92  1  0.66769732  0.33814391  -0.00357237  1
  Cu  Cu93  1  0.33332602  0.66079122  -0.00013811  1
  Cu  Cu94  1  0.66899468  0.00355271  0.50701483  1
  Cu  Cu95  1  0.50115060  0.49873331  0.74977379  1
  Cu  Cu96  1  0.32813122  0.33795654  0.50155141  1
  Cu  Cu97  1  0.49754527  0.82969298  0.74772015  1
  Cu  Cu98  1  0.83449913  0.50079015  0.74918853  1
  Cu  Cu99  1  0.66528389  0.66293471  -0.00302350  1
  Cu  Cu100  1  0.00678517  0.32935419  0.48891573  1
  Cu  Cu101  1  0.83241997  0.49877755  0.24967237  1
  Cu  Cu102  1  0.50888507  0.83197049  0.25205365  1
  Cu  Cu103  1  0.00839664  0.00493699  0.49611527  1
  Cu  Cu104  1  0.16559931  0.17131386  0.75027673  1
  Cu  Cu105  1  0.66555079  0.34222537  0.50466825  1
  Cu  Cu106  1  0.00272789  0.66499475  0.50306004  1
  Cu  Cu107  1  0.83018040  0.17246023  0.75333904  1
  Cu  Cu108  1  0.66259429  0.65707012  0.50004438  1
  Cu  Cu109  1  0.32675050  0.01433894  0.00732170  1
  Cu  Cu110  1  0.16849491  0.82906400  0.25764872  1
  Cu  Cu111  1  0.32343557  0.33990273  0.00633755  1
  Cu  Cu112  1  0.33132601  -0.00189847  0.49553008  1
  Cu  Cu113  1  0.16722266  0.49371028  0.74409263  1
  Cu  Cu114  1  0.82952351  0.83447176  0.75141776  1
  Se  Se115  1  0.07896241  0.08880648  0.05876073  1
  Se  Se116  1  0.08995462  0.09257896  0.54631053  1
  Se  Se117  1  0.08620095  0.42315525  0.05762684  1
  Se  Se118  1  0.08110153  0.41053878  0.55122706  1
  Se  Se119  1  0.08112633  0.74037607  0.06138836  1
  Se  Se120  1  0.08643139  0.74782504  0.55514183  1
  Se  Se121  1  0.40073009  0.09271170  0.06992822  1
  Se  Se122  1  0.41122905  0.07710233  0.55633759  1
  Se  Se123  1  0.41144585  0.42188374  0.05583631  1
  Se  Se124  1  0.41508480  0.41703547  0.55517717  1
  Se  Se125  1  0.41172871  0.73847890  0.06292087  1
  Se  Se126  1  0.40714846  0.73056423  0.55505086  1
  Se  Se127  1  0.74109621  0.07525810  0.05407347  1
  Se  Se128  1  0.75097606  0.08844982  0.55891983  1
  Se  Se129  1  0.75819283  0.41554561  0.04821115  1
  Se  Se130  1  0.75204742  0.42174218  0.55731127  1
  Se  Se131  1  0.74659388  0.74168609  0.05659249  1
  Se  Se132  1  0.74055615  0.74239475  0.55917127  1
  Se  Se133  1  0.24406244  0.25337369  0.05839702  1
  Se  Se134  1  0.24651860  0.24916204  0.55074414  1
  Se  Se135  1  0.24524807  0.58502244  0.05498580  1
  Se  Se136  1  0.23444861  0.56701873  0.55355517  1
  Se  Se137  1  0.25161778  0.92283042  0.06219688  1
  Se  Se138  1  0.24941858  0.91691865  0.55004823  1
  Se  Se139  1  0.58707971  0.26529060  0.06171243  1
  Se  Se140  1  0.58737375  0.25859965  0.56328025  1
  Se  Se141  1  0.58057418  0.58460273  0.05363345  1
  Se  Se142  1  0.58082111  0.57903762  0.55821273  1
  Se  Se143  1  0.58787601  0.92409005  0.05168195  1
  Se  Se144  1  0.58863401  0.92138456  0.56272833  1
  Se  Se145  1  0.93138213  0.26110337  0.06460954  1
  Se  Se146  1  0.92345504  0.25923038  0.55678664  1
  Se  Se147  1  0.91752123  0.57629151  0.05449042  1
  Se  Se148  1  0.91783822  0.58162843  0.55445234  1
  Se  Se149  1  0.92262529  0.91299232  0.05806463  1
  Se  Se150  1  0.93128515  0.92986864  0.56123556  1
  Se  Se151  1  0.07454991  0.24676533  0.42463686  1
  Se  Se152  1  0.08878927  0.25283188  0.94541759  1
  Se  Se153  1  0.08501754  0.57942009  0.45096576  1
  Se  Se154  1  0.09007378  0.58280813  0.94047606  1
  Se  Se155  1  0.08963782  0.91583512  0.44653840  1
  Se  Se156  1  0.07267850  0.92274015  0.94205528  1
  Se  Se157  1  0.40579666  0.26372039  0.43419638  1
  Se  Se158  1  0.40703801  0.26392990  0.94231443  1
  Se  Se159  1  0.42216584  0.58400106  0.43014196  1
  Se  Se160  1  0.41673147  0.57969213  0.94487700  1
  Se  Se161  1  0.41391721  0.91514935  0.44184875  1
  Se  Se162  1  0.40272385  0.93148728  0.94671025  1
  Se  Se163  1  0.74558606  0.26944872  0.44180986  1
  Se  Se164  1  0.74877026  0.25661870  0.93896349  1
  Se  Se165  1  0.75485361  0.57991314  0.44932070  1
  Se  Se166  1  0.75186240  0.58132749  0.94515464  1
  Se  Se167  1  0.75061975  0.92347984  0.45033505  1
  Se  Se168  1  0.73677330  0.92571421  0.94042145  1
  Se  Se169  1  0.25394433  0.08658024  0.44341720  1
  Se  Se170  1  0.23974656  0.09181708  0.95453816  1
  Se  Se171  1  0.24288580  0.42150441  0.45161197  1
  Se  Se172  1  0.24786877  0.42081318  0.94343402  1
  Se  Se173  1  0.24266081  0.75143363  0.45339761  1
  Se  Se174  1  0.25607078  0.74018009  0.93757928  1
  Se  Se175  1  0.58976075  0.08319968  0.44808539  1
  Se  Se176  1  0.58441378  0.08409140  0.94441104  1
  Se  Se177  1  0.57697307  0.41856168  0.45065474  1
  Se  Se178  1  0.58232487  0.42179494  0.94632074  1
  Se  Se179  1  0.58808091  0.73864852  0.43875795  1
  Se  Se180  1  0.58458665  0.74296501  0.93800488  1
  Se  Se181  1  0.93120572  0.08108193  0.43324389  1
  Se  Se182  1  0.92101007  0.08248354  0.94231473  1
  Se  Se183  1  0.91799755  0.41715950  0.44575672  1
  Se  Se184  1  0.92235946  0.41772389  0.94535497  1
  Se  Se185  1  0.92159238  0.74385305  0.44039293  1
  Se  Se186  1  0.92699776  0.73522674  0.94271716  1
  Se  Se187  1  0.24886562  0.26033308  0.30001976  1
  Se  Se188  1  0.25050333  0.25376855  0.80245220  1
  Se  Se189  1  0.24326776  0.57925309  0.30925211  1
  Se  Se190  1  0.25193543  0.57724791  0.79863673  1
  Se  Se191  1  0.24765814  0.90905004  0.31890134  1
  Se  Se192  1  0.24115537  0.91000260  0.80874630  1
  Se  Se193  1  0.57875854  0.24513439  0.31188968  1
  Se  Se194  1  0.58499679  0.25416434  0.80436470  1
  Se  Se195  1  0.60337063  0.58340565  0.29791122  1
  Se  Se196  1  0.58505526  0.58299733  0.80341216  1
  Se  Se197  1  0.58607408  0.91244563  0.31197912  1
  Se  Se198  1  0.57865600  0.91622539  0.80090322  1
  Se  Se199  1  0.89695742  0.22178513  0.30731288  1
  Se  Se200  1  0.91929884  0.25443289  0.80008400  1
  Se  Se201  1  0.91509232  0.58166269  0.30540631  1
  Se  Se202  1  0.91958048  0.58337685  0.80333371  1
  Se  Se203  1  0.91782706  0.91020487  0.30330471  1
  Se  Se204  1  0.91467757  0.90606508  0.81318533  1
  Se  Se205  1  0.08976960  0.07140744  0.29199572  1
  Se  Se206  1  0.08790773  0.08801225  0.81016356  1
  Se  Se207  1  0.08058605  0.42029298  0.30887672  1
  Se  Se208  1  0.08242109  0.41590896  0.80262299  1
  Se  Se209  1  0.08552680  0.74480266  0.31067088  1
  Se  Se210  1  0.09010466  0.75630098  0.79251886  1
  Se  Se211  1  0.42434943  0.08743473  0.30926887  1
  Se  Se212  1  0.41914746  0.09458068  0.81620134  1
  Se  Se213  1  0.41831420  0.42993363  0.30054328  1
  Se  Se214  1  0.41537110  0.41639371  0.80323224  1
  Se  Se215  1  0.42438283  0.75057785  0.30384315  1
  Se  Se216  1  0.41387316  0.74882182  0.80162694  1
  Se  Se217  1  0.74914991  0.07935577  0.30852267  1
  Se  Se218  1  0.74950066  0.08366720  0.80254479  1
  Se  Se219  1  0.75221096  0.42151343  0.31373166  1
  Se  Se220  1  0.75001859  0.41886762  0.80477519  1
  Se  Se221  1  0.74919437  0.74801514  0.30283080  1
  Se  Se222  1  0.74860951  0.74728539  0.80321536  1
  Se  Se223  1  0.24800307  0.08606295  0.19351561  1
  Se  Se224  1  0.24576936  0.08687593  0.69256467  1
  Se  Se225  1  0.24712910  0.42010908  0.19439919  1
  Se  Se226  1  0.25291880  0.41070307  0.69298877  1
  Se  Se227  1  0.25129689  0.74481425  0.20455734  1
  Se  Se228  1  0.24623025  0.74470379  0.69466886  1
  Se  Se229  1  0.57493881  0.09187950  0.19351329  1
  Se  Se230  1  0.58322583  0.08100150  0.70175828  1
  Se  Se231  1  0.58588088  0.42755786  0.18942488  1
  Se  Se232  1  0.58708507  0.41518182  0.69821004  1
  Se  Se233  1  0.59061941  0.74731351  0.19912484  1
  Se  Se234  1  0.58259759  0.74477927  0.69810428  1
  Se  Se235  1  0.91827325  0.07311609  0.20132959  1
  Se  Se236  1  0.90845411  0.09736808  0.68652387  1
  Se  Se237  1  0.91735108  0.41233492  0.20073584  1
  Se  Se238  1  0.91698184  0.41758448  0.69392521  1
  Se  Se239  1  0.92201593  0.74231715  0.20001723  1
  Se  Se240  1  0.90983901  0.75674861  0.69180048  1
  Se  Se241  1  0.08091697  0.25427853  0.20180797  1
  Se  Se242  1  0.08410660  0.25358180  0.69546938  1
  Se  Se243  1  0.07714976  0.58228813  0.19892319  1
  Se  Se244  1  0.08070487  0.57808471  0.69366591  1
  Se  Se245  1  0.08791458  0.91126496  0.20097223  1
  Se  Se246  1  0.09299908  0.91929295  0.69106656  1
  Se  Se247  1  0.43464505  0.24487885  0.20261114  1
  Se  Se248  1  0.41814940  0.24471450  0.69542340  1
  Se  Se249  1  0.40534230  0.59129751  0.19845675  1
  Se  Se250  1  0.41503465  0.57782803  0.69485678  1
  Se  Se251  1  0.42766182  0.90605259  0.18923818  1
  Se  Se252  1  0.41490303  0.90387894  0.68480581  1
  Se  Se253  1  0.76317509  0.23738013  0.19231405  1
  Se  Se254  1  0.74580269  0.25433324  0.69938525  1
  Se  Se255  1  0.75220305  0.57964680  0.19083633  1
  Se  Se256  1  0.74948742  0.58530740  0.69778144  1
  Se  Se257  1  0.76321186  0.90124891  0.18240076  1
  Se  Se258  1  0.74612877  0.92070144  0.70129289  1
