# generated using pymatgen
data_In86Cu29Se144
_symmetry_space_group_name_H-M   'P 1'
_cell_length_a   17.57351104
_cell_length_b   17.57828122
_cell_length_c   23.43870710
_cell_angle_alpha   90.02809436
_cell_angle_beta   89.99666447
_cell_angle_gamma   89.99784959
_symmetry_Int_Tables_number   1
_chemical_formula_structural   In86Cu29Se144
_chemical_formula_sum   'In86 Cu29 Se144'
_cell_volume   7240.49979523
_cell_formula_units_Z   1
loop_
 _symmetry_equiv_pos_site_id
 _symmetry_equiv_pos_as_xyz
  1  'x, y, z'
loop_
 _atom_site_type_symbol
 _atom_site_label
 _atom_site_symmetry_multiplicity
 _atom_site_fract_x
 _atom_site_fract_y
 _atom_site_fract_z
 _atom_site_occupancy
  In  In0  1  -0.00609744  0.17104489  0.13179047  1
  In  In1  1  0.01472582  0.16215748  0.62666769  1
  In  In2  1  -0.01609075  0.50088782  0.12446393  1
  In  In3  1  -0.01051706  0.49767134  0.63286919  1
  In  In4  1  0.02123720  0.83372618  0.12635891  1
  In  In5  1  0.00441291  0.82927673  0.60958323  1
  In  In6  1  0.34452233  0.15784858  0.12657606  1
  In  In7  1  0.32192659  0.17285402  0.62810315  1
  In  In8  1  0.34078412  0.49029095  0.12796656  1
  In  In9  1  0.34418215  0.49351698  0.62809197  1
  In  In10  1  0.33316340  0.84146082  0.13767087  1
  In  In11  1  0.32798936  0.83148053  0.63458473  1
  In  In12  1  0.67441800  0.17554738  0.11751231  1
  In  In13  1  0.66453768  0.17075433  0.62480181  1
  In  In14  1  0.66274213  0.50011459  0.12524640  1
  In  In15  1  0.66364001  0.53168565  0.63114741  1
  In  In16  1  0.64883888  0.82357952  0.13289396  1
  In  In17  1  0.65872268  0.81967088  0.62050543  1
  In  In18  1  0.17023353  -0.00055809  0.37687294  1
  In  In19  1  0.17337654  -0.01665714  0.87766586  1
  In  In20  1  0.15972708  0.32630110  0.36774141  1
  In  In21  1  0.16710219  0.32910395  0.86674581  1
  In  In22  1  0.18040102  0.66842836  0.37986533  1
  In  In23  1  0.18257374  0.67409931  0.86861769  1
  In  In24  1  0.48514854  -0.00509306  0.37092054  1
  In  In25  1  0.50116943  0.00881258  0.87443074  1
  In  In26  1  0.50315835  0.34130141  0.36573660  1
  In  In27  1  0.49887128  0.33752865  0.87981684  1
  In  In28  1  0.49457172  0.66611630  0.37682655  1
  In  In29  1  0.48970257  0.66131272  0.86729333  1
  In  In30  1  0.83318610  -0.01998372  0.37362548  1
  In  In31  1  0.83879492  0.00571824  0.87901945  1
  In  In32  1  0.83254858  0.33627062  0.36750082  1
  In  In33  1  0.83742380  0.33499132  0.88461155  1
  In  In34  1  0.83437794  0.68136035  0.37642271  1
  In  In35  1  0.81629581  0.66585951  0.86785977  1
  In  In36  1  0.00942446  0.17431853  0.37034655  1
  In  In37  1  -0.01013772  0.16706656  0.88184950  1
  In  In38  1  0.00872446  0.49520046  0.37268158  1
  In  In39  1  0.00437282  0.48976306  0.87660806  1
  In  In40  1  -0.00896930  0.83869864  0.38313569  1
  In  In41  1  0.00136953  0.84495042  0.87343334  1
  In  In42  1  0.32194964  0.15550687  0.36746305  1
  In  In43  1  0.33487990  0.16840838  0.87209078  1
  In  In44  1  0.34310813  0.51505553  0.36779367  1
  In  In45  1  0.34812965  0.50693553  0.86906966  1
  In  In46  1  0.33548038  0.83032608  0.37926824  1
  In  In47  1  0.32988376  0.83034902  0.86084764  1
  In  In48  1  0.65539415  0.17212368  0.36925101  1
  In  In49  1  0.66259418  0.17446194  0.88729491  1
  In  In50  1  0.65722522  0.49356295  0.36821906  1
  In  In51  1  0.65983835  0.50648770  0.88282707  1
  In  In52  1  0.67167788  0.81977825  0.37712398  1
  In  In53  1  0.66117990  0.81504379  0.86047559  1
  In  In54  1  0.18445555  -0.01415150  0.13383282  1
  In  In55  1  0.16833932  0.00351711  0.61943507  1
  In  In56  1  0.17034166  0.32628019  0.13408303  1
  In  In57  1  0.17114898  0.32874871  0.62803641  1
  In  In58  1  0.17029283  0.68448760  0.12273467  1
  In  In59  1  0.17777984  0.69581270  0.62594852  1
  In  In60  1  0.47147398  0.00390716  0.12460223  1
  In  In61  1  0.48993667  -0.02787088  0.62349527  1
  In  In62  1  0.50013008  0.33620316  0.12222283  1
  In  In63  1  0.48602992  0.33256537  0.62164222  1
  In  In64  1  0.50821918  0.66251477  0.13568484  1
  In  In65  1  0.49953482  0.67158938  0.62863465  1
  In  In66  1  0.83246579  0.01507658  0.12685362  1
  In  In67  1  0.84657935  -0.00372857  0.62465704  1
  In  In68  1  0.83035124  0.33421291  0.12754141  1
  In  In69  1  0.83572475  0.35600158  0.63179720  1
  In  In70  1  0.82770620  0.65388559  0.12267790  1
  In  In71  1  0.82770598  0.66686472  0.62738286  1
  In  In72  1  0.17038461  0.50217127  -0.00274406  1
  In  In73  1  0.00527061  0.66716314  0.74511189  1
  In  In74  1  0.66109083  -0.00380221  0.74764356  1
  In  In75  1  0.17000838  0.50547677  0.49649739  1
  In  In76  1  0.49384189  0.83720175  0.00324161  1
  In  In77  1  0.16696126  0.16014131  0.00158266  1
  In  In78  1  0.83209076  0.83817095  -0.00678073  1
  In  In79  1  0.00336617  0.00094988  0.75389759  1
  In  In80  1  -0.00004469  0.66445860  0.25000618  1
  In  In81  1  0.49066159  0.15905532  0.48817899  1
  In  In82  1  0.66325583  0.34070973  0.76113663  1
  In  In83  1  0.83794399  0.16538204  0.50475308  1
  In  In84  1  0.83001313  0.50658975  0.50881398  1
  In  In85  1  0.66416692  0.00183667  0.24782709  1
  Cu  Cu86  1  0.49924588  0.17385438  0.24545700  1
  Cu  Cu87  1  0.66989626  0.33783242  0.00377177  1
  Cu  Cu88  1  0.82484637  0.49730049  0.24628753  1
  Cu  Cu89  1  0.49771364  0.50136818  0.24792387  1
  Cu  Cu90  1  0.16868937  0.16879940  0.74993812  1
  Cu  Cu91  1  0.33085117  -0.00399827  0.50034822  1
  Cu  Cu92  1  0.17103265  0.83709655  0.25638360  1
  Cu  Cu93  1  0.66913636  -0.01565824  0.49891503  1
  Cu  Cu94  1  0.00114600  0.67028306  0.00317853  1
  Cu  Cu95  1  0.16606967  0.49721222  0.24970451  1
  Cu  Cu96  1  -0.00669686  0.33670768  0.00752845  1
  Cu  Cu97  1  0.50447036  0.49996269  0.75128664  1
  Cu  Cu98  1  0.00468330  0.33131860  0.49803974  1
  Cu  Cu99  1  0.17053561  0.49664854  0.74624903  1
  Cu  Cu100  1  0.34129276  0.33335294  -0.00227649  1
  Cu  Cu101  1  0.83726169  0.16786128  0.24872652  1
  Cu  Cu102  1  0.66317296  0.66297128  0.00155230  1
  Cu  Cu103  1  0.66020797  0.33849549  0.49336007  1
  Cu  Cu104  1  0.83231280  0.17751527  0.75985944  1
  Cu  Cu105  1  0.48779171  0.15963900  0.74683298  1
  Cu  Cu106  1  0.83745133  0.83303478  0.25234926  1
  Cu  Cu107  1  0.33863612  0.66959179  -0.00622759  1
  Cu  Cu108  1  0.66514102  0.00128060  -0.00026086  1
  Cu  Cu109  1  0.00435441  0.00025204  0.49764449  1
  Cu  Cu110  1  0.65935632  0.66507302  0.49941015  1
  Cu  Cu111  1  0.00049714  0.00263966  0.00294475  1
  Cu  Cu112  1  0.33856415  0.67195344  0.50275792  1
  Cu  Cu113  1  0.16605368  0.16299371  0.24881257  1
  Cu  Cu114  1  0.32779312  0.33543243  0.49926264  1
  Se  Se115  1  0.08117464  0.07546960  0.06813575  1
  Se  Se116  1  0.08566774  0.08709257  0.54926151  1
  Se  Se117  1  0.08307591  0.41352606  0.06252578  1
  Se  Se118  1  0.07929676  0.41648953  0.55917007  1
  Se  Se119  1  0.08886962  0.75587684  0.04711141  1
  Se  Se120  1  0.09289500  0.74863301  0.54660003  1
  Se  Se121  1  0.41446680  0.08682544  0.04578935  1
  Se  Se122  1  0.41093759  0.07833816  0.56099597  1
  Se  Se123  1  0.41993467  0.42100257  0.05052806  1
  Se  Se124  1  0.41598172  0.41706980  0.54798453  1
  Se  Se125  1  0.41257784  0.74229937  0.06445505  1
  Se  Se126  1  0.41524589  0.75532749  0.56185514  1
  Se  Se127  1  0.75211853  0.08376119  0.05039361  1
  Se  Se128  1  0.74061505  0.07214778  0.55913791  1
  Se  Se129  1  0.75249315  0.42111801  0.05809370  1
  Se  Se130  1  0.73303772  0.41396831  0.56178212  1
  Se  Se131  1  0.74143266  0.75100048  0.05758446  1
  Se  Se132  1  0.74959614  0.74333077  0.55234697  1
  Se  Se133  1  0.25635177  0.25670418  0.05687050  1
  Se  Se134  1  0.24676741  0.25061655  0.55174102  1
  Se  Se135  1  0.25816046  0.59165977  0.05826307  1
  Se  Se136  1  0.25806995  0.58825927  0.56262858  1
  Se  Se137  1  0.25550106  0.90837365  0.05847080  1
  Se  Se138  1  0.25164977  0.91289546  0.55804324  1
  Se  Se139  1  0.58273639  0.25261607  0.05255068  1
  Se  Se140  1  0.58266549  0.25086070  0.55062774  1
  Se  Se141  1  0.57838409  0.58452461  0.05712044  1
  Se  Se142  1  0.57520840  0.58427069  0.55368719  1
  Se  Se143  1  0.58744156  0.92605356  0.06368407  1
  Se  Se144  1  0.58056312  0.90732415  0.55155663  1
  Se  Se145  1  0.91381408  0.24851042  0.05878095  1
  Se  Se146  1  0.92189545  0.26138950  0.56428085  1
  Se  Se147  1  0.91511598  0.58503436  0.04956365  1
  Se  Se148  1  0.93013640  0.59435557  0.55906544  1
  Se  Se149  1  0.92055603  0.91857043  0.06242058  1
  Se  Se150  1  0.91683836  0.91848130  0.54824100  1
  Se  Se151  1  0.08825406  0.24854068  0.44661668  1
  Se  Se152  1  0.07823460  0.26035421  0.94684210  1
  Se  Se153  1  0.07345888  0.59382537  0.44074630  1
  Se  Se154  1  0.08248974  0.59539749  0.93761827  1
  Se  Se155  1  0.08718781  0.91535216  0.44548064  1
  Se  Se156  1  0.08046259  0.91749992  0.94926439  1
  Se  Se157  1  0.40611155  0.25752623  0.43328651  1
  Se  Se158  1  0.41891731  0.24576741  0.94360854  1
  Se  Se159  1  0.41546509  0.58212161  0.44992810  1
  Se  Se160  1  0.42297170  0.58171737  0.94684846  1
  Se  Se161  1  0.41850395  0.91547019  0.44898292  1
  Se  Se162  1  0.40974029  0.91884881  0.93543542  1
  Se  Se163  1  0.74462301  0.25383780  0.44188738  1
  Se  Se164  1  0.75340042  0.25167158  0.95177163  1
  Se  Se165  1  0.74290288  0.58609140  0.43880748  1
  Se  Se166  1  0.75211005  0.58653610  0.94796940  1
  Se  Se167  1  0.75479423  0.90380116  0.44665876  1
  Se  Se168  1  0.73326217  0.91996271  0.93296884  1
  Se  Se169  1  0.25097607  0.08418093  0.44817490  1
  Se  Se170  1  0.25813839  0.07381046  0.94266229  1
  Se  Se171  1  0.25360208  0.41453691  0.43302976  1
  Se  Se172  1  0.25788563  0.40998328  0.93705075  1
  Se  Se173  1  0.25045699  0.75367382  0.45286169  1
  Se  Se174  1  0.25684989  0.75480167  0.94222797  1
  Se  Se175  1  0.59353189  0.06894059  0.43832782  1
  Se  Se176  1  0.57906551  0.08502661  0.94948384  1
  Se  Se177  1  0.57494365  0.42058235  0.44321901  1
  Se  Se178  1  0.58299602  0.41704438  0.94913974  1
  Se  Se179  1  0.57843454  0.75024933  0.44571483  1
  Se  Se180  1  0.58376647  0.74492813  0.94198194  1
  Se  Se181  1  0.91980458  0.07824321  0.43739787  1
  Se  Se182  1  0.91286891  0.08511883  0.95414137  1
  Se  Se183  1  0.91896930  0.41294921  0.44454578  1
  Se  Se184  1  0.91778332  0.42396275  0.95188079  1
  Se  Se185  1  0.91803726  0.74700344  0.45001259  1
  Se  Se186  1  0.92120798  0.74407368  0.93606939  1
  Se  Se187  1  0.24993486  0.24949965  0.30063141  1
  Se  Se188  1  0.25592970  0.25154649  0.80078866  1
  Se  Se189  1  0.24454317  0.58485215  0.30249639  1
  Se  Se190  1  0.25121493  0.57728988  0.80369542  1
  Se  Se191  1  0.25711753  0.91890889  0.30898529  1
  Se  Se192  1  0.24335462  0.91641791  0.79708995  1
  Se  Se193  1  0.58519706  0.25598214  0.29680359  1
  Se  Se194  1  0.57347218  0.23661874  0.80662705  1
  Se  Se195  1  0.57823238  0.58472692  0.30492173  1
  Se  Se196  1  0.58740693  0.58343045  0.80503190  1
  Se  Se197  1  0.58289398  0.91122047  0.31143047  1
  Se  Se198  1  0.56809543  0.90664442  0.80441363  1
  Se  Se199  1  0.91869381  0.25188895  0.30407246  1
  Se  Se200  1  0.91954946  0.25615855  0.81131958  1
  Se  Se201  1  0.90669114  0.57434231  0.30992760  1
  Se  Se202  1  0.91996021  0.58184600  0.81135111  1
  Se  Se203  1  0.92422976  0.91530915  0.30122842  1
  Se  Se204  1  0.90067472  0.91149333  0.80438308  1
  Se  Se205  1  0.08600443  0.08094110  0.30640100  1
  Se  Se206  1  0.09113570  0.09236986  0.81634215  1
  Se  Se207  1  0.07944849  0.41359886  0.29876593  1
  Se  Se208  1  0.08615069  0.41766191  0.80200342  1
  Se  Se209  1  0.08718030  0.75372155  0.31213092  1
  Se  Se210  1  0.08967321  0.76215081  0.80579052  1
  Se  Se211  1  0.42036235  0.08792634  0.30059377  1
  Se  Se212  1  0.40992532  0.07692366  0.80332119  1
  Se  Se213  1  0.41170347  0.41848954  0.30041475  1
  Se  Se214  1  0.42231245  0.41262046  0.80285686  1
  Se  Se215  1  0.39690934  0.73242713  0.31041405  1
  Se  Se216  1  0.41295719  0.74257961  0.79730279  1
  Se  Se217  1  0.75796202  0.08834503  0.31165292  1
  Se  Se218  1  0.74859148  0.09188594  0.81106013  1
  Se  Se219  1  0.74356914  0.41243109  0.30085097  1
  Se  Se220  1  0.75773118  0.42727829  0.81594349  1
  Se  Se221  1  0.75178147  0.74770982  0.29962138  1
  Se  Se222  1  0.75483677  0.75130263  0.79229843  1
  Se  Se223  1  0.25563041  0.08433353  0.19693437  1
  Se  Se224  1  0.24548595  0.08218426  0.69468411  1
  Se  Se225  1  0.25192406  0.41533720  0.19738667  1
  Se  Se226  1  0.25538346  0.41254931  0.69425821  1
  Se  Se227  1  0.24957760  0.75032951  0.20107131  1
  Se  Se228  1  0.26367677  0.73749951  0.70796301  1
  Se  Se229  1  0.57807566  0.09073963  0.18443450  1
  Se  Se230  1  0.57058661  0.08628924  0.68448892  1
  Se  Se231  1  0.58116215  0.41684299  0.19455701  1
  Se  Se232  1  0.58055459  0.41962603  0.68689270  1
  Se  Se233  1  0.57901516  0.74861030  0.20883283  1
  Se  Se234  1  0.60085189  0.73195441  0.69671329  1
  Se  Se235  1  0.92016035  0.07895988  0.20135636  1
  Se  Se236  1  0.90931662  0.09655277  0.69674971  1
  Se  Se237  1  0.91531144  0.41600442  0.19807738  1
  Se  Se238  1  0.92701388  0.40959626  0.70641924  1
  Se  Se239  1  0.91320560  0.75433669  0.18511384  1
  Se  Se240  1  0.91659752  0.76119038  0.68750385  1
  Se  Se241  1  0.08064785  0.24971913  0.20014150  1
  Se  Se242  1  0.08287973  0.25110532  0.69803638  1
  Se  Se243  1  0.09026475  0.57829028  0.18514289  1
  Se  Se244  1  0.09858534  0.58030728  0.68322303  1
  Se  Se245  1  0.08639204  0.91861392  0.20194099  1
  Se  Se246  1  0.08297763  0.91291595  0.68683228  1
  Se  Se247  1  0.41380503  0.25539959  0.19187427  1
  Se  Se248  1  0.41275643  0.25118330  0.69477232  1
  Se  Se249  1  0.41103950  0.58349340  0.19637031  1
  Se  Se250  1  0.41993553  0.58147124  0.69669063  1
  Se  Se251  1  0.43434090  0.90750383  0.20068683  1
  Se  Se252  1  0.40434314  0.92325934  0.70257319  1
  Se  Se253  1  0.74945025  0.24767841  0.19646253  1
  Se  Se254  1  0.75262031  0.25044248  0.69453134  1
  Se  Se255  1  0.74368561  0.58574982  0.19669441  1
  Se  Se256  1  0.78145193  0.55623012  0.69158200  1
  Se  Se257  1  0.75629775  0.90946807  0.18813847  1
  Se  Se258  1  0.75276004  0.91306211  0.68553933  1
