# generated using pymatgen
data_In86Cu29Se144
_symmetry_space_group_name_H-M   'P 1'
_cell_length_a   17.58614682
_cell_length_b   17.59619007
_cell_length_c   23.45095328
_cell_angle_alpha   90.01019579
_cell_angle_beta   89.97770234
_cell_angle_gamma   89.99877069
_symmetry_Int_Tables_number   1
_chemical_formula_structural   In86Cu29Se144
_chemical_formula_sum   'In86 Cu29 Se144'
_cell_volume   7256.87764440
_cell_formula_units_Z   1
loop_
 _symmetry_equiv_pos_site_id
 _symmetry_equiv_pos_as_xyz
  1  'x, y, z'
loop_
 _atom_site_type_symbol
 _atom_site_label
 _atom_site_symmetry_multiplicity
 _atom_site_fract_x
 _atom_site_fract_y
 _atom_site_fract_z
 _atom_site_occupancy
  In  In0  1  -0.01036852  0.18018379  0.13129223  1
  In  In1  1  0.00356149  0.15785898  0.62483570  1
  In  In2  1  0.00335022  0.49648712  0.12818432  1
  In  In3  1  -0.00291279  0.50028266  0.62635665  1
  In  In4  1  -0.01600262  0.83396274  0.13911948  1
  In  In5  1  -0.00654925  0.83625573  0.62879901  1
  In  In6  1  0.33810231  0.15132172  0.12530448  1
  In  In7  1  0.33442676  0.17351822  0.61537285  1
  In  In8  1  0.32859271  0.51449845  0.12667488  1
  In  In9  1  0.33199181  0.50235321  0.61936481  1
  In  In10  1  0.33592827  0.83095805  0.13521118  1
  In  In11  1  0.32350474  0.83163028  0.62611508  1
  In  In12  1  0.66687966  0.16890200  0.12762762  1
  In  In13  1  0.66594875  0.17257329  0.61620368  1
  In  In14  1  0.67486203  0.49227372  0.13567823  1
  In  In15  1  0.66741773  0.50485429  0.61002295  1
  In  In16  1  0.68795180  0.82468719  0.14681579  1
  In  In17  1  0.67237951  0.82203775  0.61723316  1
  In  In18  1  0.17010544  0.00336982  0.36983935  1
  In  In19  1  0.16204766  0.01368041  0.87472646  1
  In  In20  1  0.15780740  0.34052745  0.38346275  1
  In  In21  1  0.16073599  0.35243118  0.87689419  1
  In  In22  1  0.15471211  0.65928126  0.37177814  1
  In  In23  1  0.15371765  0.65523979  0.86437457  1
  In  In24  1  0.51657441  0.01214203  0.36893081  1
  In  In25  1  0.51552355  -0.00029094  0.87842300  1
  In  In26  1  0.50668762  0.32594144  0.37913860  1
  In  In27  1  0.49904280  0.32846012  0.87928018  1
  In  In28  1  0.49736516  0.65977474  0.37121795  1
  In  In29  1  0.48498594  0.67337836  0.87039103  1
  In  In30  1  0.82348350  -0.01238140  0.36264671  1
  In  In31  1  0.83577917  -0.00729900  0.88794719  1
  In  In32  1  0.84375622  0.34297445  0.36801229  1
  In  In33  1  0.83963749  0.32470904  0.87399034  1
  In  In34  1  0.83367730  0.66347142  0.37187316  1
  In  In35  1  0.88282278  0.65950145  0.89099462  1
  In  In36  1  0.00770009  0.17341987  0.36885942  1
  In  In37  1  -0.01125153  0.15421889  0.86841677  1
  In  In38  1  0.00032595  0.49701172  0.37863515  1
  In  In39  1  0.01230206  0.51656118  0.84727320  1
  In  In40  1  -0.01747425  0.82088019  0.36007447  1
  In  In41  1  -0.00910626  0.82910573  0.87254563  1
  In  In42  1  0.34157745  0.15845873  0.37997010  1
  In  In43  1  0.33777345  0.17775445  0.87814320  1
  In  In44  1  0.32338556  0.50933017  0.38240837  1
  In  In45  1  0.32002999  0.49657266  0.87228109  1
  In  In46  1  0.33298800  0.83241521  0.36585919  1
  In  In47  1  0.33452230  0.80890263  0.86989023  1
  In  In48  1  0.65350800  0.15903454  0.36899614  1
  In  In49  1  0.67661490  0.16582141  0.89513354  1
  In  In50  1  0.66836258  0.49880976  0.37144667  1
  In  In51  1  0.67518951  0.50106101  0.87529826  1
  In  In52  1  0.69402275  0.83995365  0.35966711  1
  In  In53  1  0.66936786  0.83859064  0.87826872  1
  In  In54  1  0.16651841  -0.00308027  0.13474271  1
  In  In55  1  0.15415024  -0.00511869  0.62127287  1
  In  In56  1  0.15277269  0.33878986  0.12577325  1
  In  In57  1  0.16056348  0.33490160  0.62056559  1
  In  In58  1  0.16453709  0.66366271  0.13071822  1
  In  In59  1  0.16457242  0.65584236  0.63397554  1
  In  In60  1  0.50142564  0.00200618  0.13396154  1
  In  In61  1  0.49234632  0.00131476  0.61684618  1
  In  In62  1  0.51614008  0.32753785  0.12730022  1
  In  In63  1  0.49855970  0.33598266  0.61532483  1
  In  In64  1  0.50030181  0.67095506  0.13287196  1
  In  In65  1  0.50770152  0.65655450  0.62226176  1
  In  In66  1  0.83172508  0.00329752  0.13352321  1
  In  In67  1  0.84483382  0.00044450  0.61884417  1
  In  In68  1  0.83600410  0.32910923  0.12717735  1
  In  In69  1  0.83640287  0.34531626  0.62149003  1
  In  In70  1  0.83093423  0.66936648  0.13394394  1
  In  In71  1  0.83988279  0.66718502  0.61935447  1
  In  In72  1  0.16544805  0.17333097  0.00428879  1
  In  In73  1  0.16131221  0.83265437  0.50032446  1
  In  In74  1  0.50425478  0.83675832  0.00413519  1
  In  In75  1  0.67005974  -0.00390214  0.75669248  1
  In  In76  1  0.50690793  0.49270140  0.00052267  1
  In  In77  1  0.67324786  0.66644313  0.74838920  1
  In  In78  1  0.50874124  0.83264599  0.49148374  1
  In  In79  1  0.67051279  0.33226246  0.75461062  1
  In  In80  1  0.32478031  0.33636174  0.74151580  1
  In  In81  1  0.82872779  0.16108307  0.48791215  1
  In  In82  1  0.83788857  0.49539190  0.00368732  1
  In  In83  1  0.33232213  0.33548740  0.26255903  1
  In  In84  1  0.15543541  0.83346990  0.00986220  1
  In  In85  1  0.32513518  -0.00657928  0.74461924  1
  Cu  Cu86  1  0.67299649  0.66765776  0.00746970  1
  Cu  Cu87  1  0.83376446  0.83330434  0.75484451  1
  Cu  Cu88  1  0.84126815  0.16306110  0.74987063  1
  Cu  Cu89  1  0.33193970  0.66508271  0.50146822  1
  Cu  Cu90  1  0.32113144  0.66013074  0.00134586  1
  Cu  Cu91  1  0.49766704  0.50075937  0.74367777  1
  Cu  Cu92  1  0.16533718  0.83051543  0.25132028  1
  Cu  Cu93  1  0.33782648  0.01165166  0.49137619  1
  Cu  Cu94  1  0.50204043  0.83221673  0.25429866  1
  Cu  Cu95  1  0.50264724  0.50474223  0.24992029  1
  Cu  Cu96  1  -0.00248002  0.33331457  0.49913292  1
  Cu  Cu97  1  0.83716563  0.49955156  0.25157752  1
  Cu  Cu98  1  0.32856319  0.33870788  0.49806353  1
  Cu  Cu99  1  0.34540690  -0.00327171  0.00301061  1
  Cu  Cu100  1  0.49948292  0.16754417  0.25320588  1
  Cu  Cu101  1  0.16617307  0.16554555  0.24676363  1
  Cu  Cu102  1  0.67308934  0.66425898  0.49290892  1
  Cu  Cu103  1  0.33865601  0.33390747  -0.00081487  1
  Cu  Cu104  1  0.67001200  0.00113717  0.01090309  1
  Cu  Cu105  1  0.83462680  0.16963006  0.25180770  1
  Cu  Cu106  1  0.00009874  -0.00515333  0.49649324  1
  Cu  Cu107  1  0.16268987  0.50198277  0.25637632  1
  Cu  Cu108  1  0.16134397  0.83096856  0.74800837  1
  Cu  Cu109  1  -0.00050448  0.33936389  -0.00027693  1
  Cu  Cu110  1  0.15802421  0.17058164  0.74683840  1
  Cu  Cu111  1  -0.00427037  0.66003436  0.49681246  1
  Cu  Cu112  1  0.50106318  0.15812774  0.75215168  1
  Cu  Cu113  1  0.66340145  0.33452838  0.49478869  1
  Cu  Cu114  1  -0.00758669  0.00172297  0.00680050  1
  Se  Se115  1  0.07914870  0.08025639  0.06390090  1
  Se  Se116  1  0.08198080  0.08011908  0.54922084  1
  Se  Se117  1  0.08408773  0.42212000  0.05111984  1
  Se  Se118  1  0.07840459  0.41910014  0.55316712  1
  Se  Se119  1  0.06607373  0.74449801  0.06735570  1
  Se  Se120  1  0.07434361  0.74109510  0.55966342  1
  Se  Se121  1  0.42737349  0.08004107  0.05530836  1
  Se  Se122  1  0.42000231  0.09078228  0.54894179  1
  Se  Se123  1  0.41220338  0.41340777  0.06525028  1
  Se  Se124  1  0.41509610  0.42066116  0.55070576  1
  Se  Se125  1  0.40681559  0.74181150  0.05660685  1
  Se  Se126  1  0.41352364  0.74979459  0.55698160  1
  Se  Se127  1  0.75466608  0.08681537  0.06019429  1
  Se  Se128  1  0.74317757  0.07337587  0.55421636  1
  Se  Se129  1  0.74071133  0.40740184  0.05747366  1
  Se  Se130  1  0.74962659  0.41357072  0.54848866  1
  Se  Se131  1  0.75119118  0.75201070  0.06230617  1
  Se  Se132  1  0.75590804  0.74686469  0.54750937  1
  Se  Se133  1  0.25948248  0.25880946  0.06541952  1
  Se  Se134  1  0.24625545  0.25396157  0.55195825  1
  Se  Se135  1  0.23750903  0.57977434  0.05475382  1
  Se  Se136  1  0.24446661  0.58732485  0.55526174  1
  Se  Se137  1  0.25995436  0.92152151  0.06049902  1
  Se  Se138  1  0.25986210  0.92823525  0.55240491  1
  Se  Se139  1  0.58161757  0.24332347  0.05445565  1
  Se  Se140  1  0.58088567  0.25077295  0.54859372  1
  Se  Se141  1  0.59051631  0.58671945  0.06336817  1
  Se  Se142  1  0.58112778  0.58554184  0.54314457  1
  Se  Se143  1  0.59475511  0.91464368  0.06977457  1
  Se  Se144  1  0.59267414  0.92289126  0.55587053  1
  Se  Se145  1  0.91833465  0.25431587  0.05219652  1
  Se  Se146  1  0.91591526  0.24684199  0.55511311  1
  Se  Se147  1  0.92050487  0.59075565  0.06307620  1
  Se  Se148  1  0.91331598  0.57627145  0.55129711  1
  Se  Se149  1  0.91455575  0.91877210  0.06377270  1
  Se  Se150  1  0.91831033  0.91100392  0.55011637  1
  Se  Se151  1  0.08085737  0.24718961  0.44864655  1
  Se  Se152  1  0.07635117  0.25368675  0.93781461  1
  Se  Se153  1  0.08558213  0.57892790  0.44839131  1
  Se  Se154  1  0.06433981  0.58813403  0.93571525  1
  Se  Se155  1  0.07598478  0.91405619  0.43279327  1
  Se  Se156  1  0.07759495  0.92946329  0.94453791  1
  Se  Se157  1  0.41258523  0.25410075  0.44573114  1
  Se  Se158  1  0.42241697  0.24669457  0.95204505  1
  Se  Se159  1  0.41766963  0.58592114  0.44721054  1
  Se  Se160  1  0.41147658  0.58489915  0.94496808  1
  Se  Se161  1  0.41329093  0.92286719  0.43546888  1
  Se  Se162  1  0.41054245  0.91516898  0.93536646  1
  Se  Se163  1  0.74321333  0.25821029  0.43165682  1
  Se  Se164  1  0.76085675  0.25705874  0.95058131  1
  Se  Se165  1  0.75484508  0.57778669  0.44135393  1
  Se  Se166  1  0.75234749  0.59426453  0.94227781  1
  Se  Se167  1  0.74946941  0.91853594  0.44210450  1
  Se  Se168  1  0.74516998  0.91420206  0.95348560  1
  Se  Se169  1  0.24245131  0.08733885  0.44435374  1
  Se  Se170  1  0.26076180  0.07908509  0.94685977  1
  Se  Se171  1  0.24312198  0.42335837  0.44944986  1
  Se  Se172  1  0.25178081  0.41679685  0.94981574  1
  Se  Se173  1  0.25416432  0.74590710  0.44031427  1
  Se  Se174  1  0.24217499  0.74412303  0.94398266  1
  Se  Se175  1  0.57890043  0.09074849  0.44842545  1
  Se  Se176  1  0.58500740  0.07948121  0.95377280  1
  Se  Se177  1  0.58172180  0.42129666  0.44303186  1
  Se  Se178  1  0.60020862  0.40479098  0.94173333  1
  Se  Se179  1  0.59843155  0.74641333  0.42971438  1
  Se  Se180  1  0.58647092  0.73780040  0.94329658  1
  Se  Se181  1  0.92440854  0.07436397  0.43242114  1
  Se  Se182  1  0.91491474  0.08778932  0.95034601  1
  Se  Se183  1  0.91339348  0.41710422  0.44816337  1
  Se  Se184  1  0.92773437  0.41981332  0.93426444  1
  Se  Se185  1  0.91700783  0.74684940  0.44251806  1
  Se  Se186  1  0.90946056  0.77295492  0.95422277  1
  Se  Se187  1  0.24043759  0.24177353  0.31515741  1
  Se  Se188  1  0.24123528  0.24526292  0.80862135  1
  Se  Se189  1  0.25010003  0.58582267  0.30504311  1
  Se  Se190  1  0.26350757  0.59545645  0.80589583  1
  Se  Se191  1  0.24956493  0.91729664  0.30076613  1
  Se  Se192  1  0.23979275  0.90758323  0.81370183  1
  Se  Se193  1  0.58363409  0.25524847  0.30094479  1
  Se  Se194  1  0.58229542  0.23556558  0.81259559  1
  Se  Se195  1  0.58857517  0.58664208  0.30248654  1
  Se  Se196  1  0.57600069  0.57578258  0.80920843  1
  Se  Se197  1  0.58766642  0.91470139  0.30498103  1
  Se  Se198  1  0.57142181  0.90120550  0.80478330  1
  Se  Se199  1  0.92154128  0.25383275  0.30132877  1
  Se  Se200  1  0.92247055  0.25104869  0.80021486  1
  Se  Se201  1  0.92163736  0.57927937  0.30687757  1
  Se  Se202  1  0.90104468  0.58810589  0.79830973  1
  Se  Se203  1  0.92698430  0.92862607  0.29871160  1
  Se  Se204  1  0.91194788  0.92248806  0.80834324  1
  Se  Se205  1  0.08352002  0.08247407  0.30127065  1
  Se  Se206  1  0.08042906  0.08083598  0.79896082  1
  Se  Se207  1  0.08128535  0.41388369  0.30645703  1
  Se  Se208  1  0.08709364  0.41252897  0.79525092  1
  Se  Se209  1  0.08118488  0.74403046  0.30045323  1
  Se  Se210  1  0.07610701  0.75167882  0.80305812  1
  Se  Se211  1  0.41622072  0.08127329  0.30376699  1
  Se  Se212  1  0.41691648  0.08166085  0.81021425  1
  Se  Se213  1  0.42403373  0.42937905  0.31526797  1
  Se  Se214  1  0.42349184  0.41728157  0.80610530  1
  Se  Se215  1  0.41674146  0.74560379  0.30258536  1
  Se  Se216  1  0.41855814  0.75021370  0.79268515  1
  Se  Se217  1  0.74828121  0.08766357  0.30274579  1
  Se  Se218  1  0.75690101  0.09151887  0.81380176  1
  Se  Se219  1  0.74999891  0.41536103  0.30115079  1
  Se  Se220  1  0.76405623  0.42578493  0.80569151  1
  Se  Se221  1  0.77373753  0.75369097  0.29378746  1
  Se  Se222  1  0.75740323  0.75115906  0.81558010  1
  Se  Se223  1  0.25342063  0.08178037  0.19870645  1
  Se  Se224  1  0.24274830  0.09293475  0.68703896  1
  Se  Se225  1  0.24512438  0.42176333  0.19571979  1
  Se  Se226  1  0.23519414  0.43191984  0.69103806  1
  Se  Se227  1  0.24917469  0.74661763  0.19786569  1
  Se  Se228  1  0.24676974  0.74985838  0.69592956  1
  Se  Se229  1  0.58526853  0.08674884  0.19941209  1
  Se  Se230  1  0.58221607  0.08433635  0.68976948  1
  Se  Se231  1  0.58245268  0.41504008  0.20047076  1
  Se  Se232  1  0.58215643  0.42027389  0.68814613  1
  Se  Se233  1  0.58545534  0.74711255  0.20224190  1
  Se  Se234  1  0.57939632  0.75597597  0.69009864  1
  Se  Se235  1  0.92096909  0.08702650  0.19933520  1
  Se  Se236  1  0.91884033  0.07680949  0.69468944  1
  Se  Se237  1  0.91707265  0.41525965  0.19463694  1
  Se  Se238  1  0.92212699  0.40794898  0.69450466  1
  Se  Se239  1  0.89756843  0.75814250  0.20898137  1
  Se  Se240  1  0.91053434  0.75057743  0.69508530  1
  Se  Se241  1  0.08368340  0.25365889  0.19841682  1
  Se  Se242  1  0.07899405  0.25163007  0.68987532  1
  Se  Se243  1  0.07965404  0.58243992  0.19914897  1
  Se  Se244  1  0.06208699  0.59548599  0.69691660  1
  Se  Se245  1  0.08121035  0.91376384  0.19907213  1
  Se  Se246  1  0.08063356  0.91794059  0.69651925  1
  Se  Se247  1  0.41623821  0.24786712  0.19431393  1
  Se  Se248  1  0.42644068  0.24325540  0.69256572  1
  Se  Se249  1  0.41539060  0.58554562  0.19794391  1
  Se  Se250  1  0.41660821  0.58275720  0.68949066  1
  Se  Se251  1  0.41843541  0.91621383  0.20041899  1
  Se  Se252  1  0.42495882  0.90889709  0.68975546  1
  Se  Se253  1  0.75027831  0.25220886  0.19723900  1
  Se  Se254  1  0.75679243  0.24020523  0.69069532  1
  Se  Se255  1  0.74990070  0.58242368  0.20103120  1
  Se  Se256  1  0.75431839  0.57274222  0.68633864  1
  Se  Se257  1  0.74216989  0.93458828  0.20545494  1
  Se  Se258  1  0.75572552  0.90954677  0.69001055  1
