# generated using pymatgen
data_In86Cu29Se144
_symmetry_space_group_name_H-M   'P 1'
_cell_length_a   17.57343358
_cell_length_b   17.57669376
_cell_length_c   23.43017545
_cell_angle_alpha   89.99348655
_cell_angle_beta   90.03259589
_cell_angle_gamma   89.99598227
_symmetry_Int_Tables_number   1
_chemical_formula_structural   In86Cu29Se144
_chemical_formula_sum   'In86 Cu29 Se144'
_cell_volume   7237.17837815
_cell_formula_units_Z   1
loop_
 _symmetry_equiv_pos_site_id
 _symmetry_equiv_pos_as_xyz
  1  'x, y, z'
loop_
 _atom_site_type_symbol
 _atom_site_label
 _atom_site_symmetry_multiplicity
 _atom_site_fract_x
 _atom_site_fract_y
 _atom_site_fract_z
 _atom_site_occupancy
  In  In0  1  -0.00765952  0.16155320  0.12699441  1
  In  In1  1  -0.00119466  0.16308386  0.62712654  1
  In  In2  1  0.00972895  0.48705382  0.12642004  1
  In  In3  1  -0.00130886  0.50094411  0.62354912  1
  In  In4  1  0.00758912  0.83569333  0.11717291  1
  In  In5  1  0.00279102  0.83685167  0.62700337  1
  In  In6  1  0.32268635  0.16824905  0.14174950  1
  In  In7  1  0.31872068  0.16968520  0.61740047  1
  In  In8  1  0.32874029  0.51049148  0.13276270  1
  In  In9  1  0.33537445  0.48872841  0.60946583  1
  In  In10  1  0.33113019  0.83384703  0.12527813  1
  In  In11  1  0.33184551  0.84926505  0.62514643  1
  In  In12  1  0.65512371  0.16382830  0.12756973  1
  In  In13  1  0.69352919  0.14498274  0.64522541  1
  In  In14  1  0.66859473  0.50669992  0.12815629  1
  In  In15  1  0.65770337  0.48450242  0.61778818  1
  In  In16  1  0.67565191  0.84887514  0.11835155  1
  In  In17  1  0.68105479  0.83940648  0.62366470  1
  In  In18  1  0.15820488  0.00026845  0.37467733  1
  In  In19  1  0.15852113  -0.00679806  0.86970391  1
  In  In20  1  0.18653508  0.31884846  0.39513667  1
  In  In21  1  0.16276765  0.34689225  0.87449931  1
  In  In22  1  0.17628690  0.65895486  0.38248229  1
  In  In23  1  0.16290714  0.67079108  0.87953150  1
  In  In24  1  0.49822684  0.00302880  0.36974014  1
  In  In25  1  0.49455871  -0.00090524  0.86871589  1
  In  In26  1  0.48939323  0.34385223  0.38305147  1
  In  In27  1  0.49659824  0.32677706  0.87046016  1
  In  In28  1  0.48525561  0.66650465  0.37224414  1
  In  In29  1  0.50887261  0.67414095  0.87797128  1
  In  In30  1  0.83556744  -0.00079146  0.37810157  1
  In  In31  1  0.82804923  -0.00506805  0.86456426  1
  In  In32  1  0.83372629  0.32947574  0.38722821  1
  In  In33  1  0.83269098  0.33049284  0.85167060  1
  In  In34  1  0.83869349  0.66267267  0.38599397  1
  In  In35  1  0.84575679  0.66621655  0.87274996  1
  In  In36  1  0.01596938  0.15203193  0.38293264  1
  In  In37  1  -0.01143100  0.16010540  0.85195227  1
  In  In38  1  0.00275934  0.49713531  0.38599281  1
  In  In39  1  0.00182432  0.50917451  0.86125832  1
  In  In40  1  -0.01091437  0.84448930  0.38383245  1
  In  In41  1  0.00122458  0.83045973  0.87585846  1
  In  In42  1  0.31321476  0.15515407  0.36149369  1
  In  In43  1  0.34129703  0.16644478  0.87443395  1
  In  In44  1  0.32924594  0.49886773  0.37502736  1
  In  In45  1  0.31624189  0.48735425  0.87804965  1
  In  In46  1  0.32642437  0.82532694  0.36899980  1
  In  In47  1  0.32754556  0.84278002  0.88352799  1
  In  In48  1  0.67862141  0.15810870  0.38313268  1
  In  In49  1  0.66860831  0.16392265  0.85683748  1
  In  In50  1  0.67293323  0.48931645  0.38657637  1
  In  In51  1  0.67477717  0.50666506  0.86495458  1
  In  In52  1  0.66993550  0.84777772  0.37972443  1
  In  In53  1  0.66293152  0.84533982  0.88041595  1
  In  In54  1  0.17854035  -0.01161617  0.13885560  1
  In  In55  1  0.16489193  -0.00061856  0.62338157  1
  In  In56  1  0.16887301  0.34673933  0.11989894  1
  In  In57  1  0.16080959  0.32066499  0.60922656  1
  In  In58  1  0.17418441  0.67480470  0.12156633  1
  In  In59  1  0.15619654  0.65612126  0.61852993  1
  In  In60  1  0.50405934  -0.00324622  0.13200281  1
  In  In61  1  0.50380352  -0.00398206  0.63139146  1
  In  In62  1  0.49499851  0.32290328  0.12660979  1
  In  In63  1  0.50671290  0.34720333  0.61968376  1
  In  In64  1  0.48347314  0.67065571  0.12679479  1
  In  In65  1  0.50735234  0.65320318  0.62369465  1
  In  In66  1  0.84509426  -0.01097776  0.13518446  1
  In  In67  1  0.83790244  0.00406306  0.62703473  1
  In  In68  1  0.84864548  0.33104258  0.12709936  1
  In  In69  1  0.83159755  0.32702253  0.62608345  1
  In  In70  1  0.82375544  0.67403197  0.12728974  1
  In  In71  1  0.84341570  0.68155964  0.61768943  1
  In  In72  1  0.66300157  0.66802678  0.24871602  1
  In  In73  1  0.33223475  0.33175909  0.74889198  1
  In  In74  1  0.66963388  0.66833178  0.74523106  1
  In  In75  1  0.50151789  0.82717496  0.50367186  1
  In  In76  1  0.84269852  0.50528885  -0.00102663  1
  In  In77  1  0.49490780  0.16346635  -0.00568599  1
  In  In78  1  0.82817728  0.15734567  -0.01531449  1
  In  In79  1  0.50218608  0.17183490  0.50051460  1
  In  In80  1  0.33221868  0.66810482  0.74056528  1
  In  In81  1  0.16263016  0.16678941  0.00297448  1
  In  In82  1  0.49304874  0.50649699  0.00148808  1
  In  In83  1  0.66326068  0.32456422  0.26318747  1
  In  In84  1  0.00301417  0.66830620  0.26164574  1
  In  In85  1  0.00911319  0.32882191  0.25649384  1
  Cu  Cu86  1  0.49488130  0.16146638  0.25315378  1
  Cu  Cu87  1  -0.00280805  0.33439237  0.50660459  1
  Cu  Cu88  1  0.00183120  0.67456533  0.50268874  1
  Cu  Cu89  1  0.67129258  -0.00015702  0.00123458  1
  Cu  Cu90  1  0.83172499  0.49954961  0.73913155  1
  Cu  Cu91  1  0.49940139  0.83873991  0.75306206  1
  Cu  Cu92  1  0.67000766  0.32340552  0.50705138  1
  Cu  Cu93  1  0.66725067  0.68393671  0.00033547  1
  Cu  Cu94  1  0.49801804  0.49672244  0.25374161  1
  Cu  Cu95  1  0.33206369  0.66394409  0.49539027  1
  Cu  Cu96  1  0.83993634  0.83499452  0.74652559  1
  Cu  Cu97  1  0.33256714  -0.00198551  0.00518678  1
  Cu  Cu98  1  0.83443748  0.83719868  0.25521742  1
  Cu  Cu99  1  -0.00117395  0.00119741  0.50484668  1
  Cu  Cu100  1  0.16195528  0.49796456  0.74326798  1
  Cu  Cu101  1  0.66710217  0.65929665  0.50281339  1
  Cu  Cu102  1  0.83193879  0.16115543  0.25581821  1
  Cu  Cu103  1  0.49622112  0.83890898  0.24976910  1
  Cu  Cu104  1  0.00510456  0.66505936  -0.00451770  1
  Cu  Cu105  1  0.00123034  0.33354297  -0.01020505  1
  Cu  Cu106  1  0.16545231  0.16398119  0.74063984  1
  Cu  Cu107  1  0.49924311  0.16656442  0.74661998  1
  Cu  Cu108  1  0.00527447  -0.01179826  -0.00031822  1
  Cu  Cu109  1  0.67039918  0.34313439  -0.00696390  1
  Cu  Cu110  1  0.16510177  0.83655082  0.24916610  1
  Cu  Cu111  1  0.16194166  0.83508603  0.75470279  1
  Cu  Cu112  1  0.32762871  0.66895230  0.00438155  1
  Cu  Cu113  1  0.17394946  0.50222180  0.25418729  1
  Cu  Cu114  1  0.32808844  0.00011980  0.49636188  1
  Se  Se115  1  0.07829539  0.07103940  0.06250211  1
  Se  Se116  1  0.08490889  0.08595399  0.55512856  1
  Se  Se117  1  0.08102345  0.41631729  0.04608456  1
  Se  Se118  1  0.08349436  0.42246941  0.55249777  1
  Se  Se119  1  0.08703185  0.74878588  0.05075544  1
  Se  Se120  1  0.08686281  0.75639756  0.55554123  1
  Se  Se121  1  0.40875216  0.08312277  0.06452578  1
  Se  Se122  1  0.41300135  0.07319630  0.55816457  1
  Se  Se123  1  0.41088476  0.41425070  0.06324042  1
  Se  Se124  1  0.41707529  0.40336643  0.54406357  1
  Se  Se125  1  0.41457195  0.75372533  0.05237944  1
  Se  Se126  1  0.40757925  0.73949356  0.56384994  1
  Se  Se127  1  0.74896023  0.08095321  0.06293964  1
  Se  Se128  1  0.75408145  0.08490045  0.55712595  1
  Se  Se129  1  0.74944185  0.41209932  0.05970282  1
  Se  Se130  1  0.75435646  0.41371192  0.55335198  1
  Se  Se131  1  0.75704459  0.75928551  0.05306372  1
  Se  Se132  1  0.74673186  0.75083836  0.55055257  1
  Se  Se133  1  0.25905839  0.25270037  0.05966453  1
  Se  Se134  1  0.25966982  0.25755927  0.54285596  1
  Se  Se135  1  0.24782817  0.58002358  0.05535059  1
  Se  Se136  1  0.24976371  0.58250992  0.55226600  1
  Se  Se137  1  0.24567074  0.91638753  0.05631524  1
  Se  Se138  1  0.24642832  0.91617726  0.55098641  1
  Se  Se139  1  0.59194811  0.25897973  0.05099137  1
  Se  Se140  1  0.59493806  0.24273755  0.57005024  1
  Se  Se141  1  0.59092050  0.59697886  0.05879915  1
  Se  Se142  1  0.57930614  0.57437046  0.54864813  1
  Se  Se143  1  0.58042018  0.92354911  0.05364785  1
  Se  Se144  1  0.59108534  0.92386803  0.55604581  1
  Se  Se145  1  0.92087301  0.25076524  0.04753038  1
  Se  Se146  1  0.91618918  0.24627809  0.55695536  1
  Se  Se147  1  0.92856264  0.59256969  0.06551607  1
  Se  Se148  1  0.91843451  0.58700389  0.55349320  1
  Se  Se149  1  0.91308600  0.91496037  0.05385573  1
  Se  Se150  1  0.91661493  0.91578831  0.55779591  1
  Se  Se151  1  0.07895105  0.25122052  0.45109474  1
  Se  Se152  1  0.07372155  0.24414721  0.93187805  1
  Se  Se153  1  0.08249303  0.58825629  0.44963587  1
  Se  Se154  1  0.08079712  0.57621772  0.94097239  1
  Se  Se155  1  0.08271133  0.91855258  0.44959309  1
  Se  Se156  1  0.09030966  0.90914474  0.94526089  1
  Se  Se157  1  0.40545090  0.24147451  0.43443933  1
  Se  Se158  1  0.40358726  0.26548024  0.94680094  1
  Se  Se159  1  0.41745975  0.58031863  0.44500255  1
  Se  Se160  1  0.40340260  0.59288685  0.93658782  1
  Se  Se161  1  0.41288160  0.91742678  0.44128943  1
  Se  Se162  1  0.42010220  0.92388716  0.94678446  1
  Se  Se163  1  0.75436796  0.24167777  0.45397463  1
  Se  Se164  1  0.74380278  0.26068865  0.93195417  1
  Se  Se165  1  0.75410203  0.57746056  0.45128901  1
  Se  Se166  1  0.74249592  0.59455311  0.94307034  1
  Se  Se167  1  0.76134862  0.91119036  0.44898001  1
  Se  Se168  1  0.75686473  0.92129111  0.94541961  1
  Se  Se169  1  0.24469944  0.08322848  0.44384656  1
  Se  Se170  1  0.25537288  0.07835361  0.94205011  1
  Se  Se171  1  0.23315189  0.43892159  0.44620415  1
  Se  Se172  1  0.24470239  0.40943617  0.95219588  1
  Se  Se173  1  0.25075436  0.75454333  0.44824232  1
  Se  Se174  1  0.24719981  0.75221030  0.94718728  1
  Se  Se175  1  0.58731053  0.07042778  0.44604436  1
  Se  Se176  1  0.59539793  0.08124896  0.93770541  1
  Se  Se177  1  0.58704898  0.40610889  0.45164719  1
  Se  Se178  1  0.58669984  0.42157086  0.93654621  1
  Se  Se179  1  0.58923989  0.73897346  0.43816424  1
  Se  Se180  1  0.57895459  0.76192861  0.94856140  1
  Se  Se181  1  0.91751845  0.08380367  0.44762334  1
  Se  Se182  1  0.93148376  0.07174527  0.93651550  1
  Se  Se183  1  0.91408711  0.41806944  0.45250620  1
  Se  Se184  1  0.91557833  0.41076134  0.93149320  1
  Se  Se185  1  0.91307165  0.75464057  0.45151670  1
  Se  Se186  1  0.91707233  0.74829521  0.94680206  1
  Se  Se187  1  0.24624666  0.26255675  0.30480951  1
  Se  Se188  1  0.23970377  0.24187796  0.80930184  1
  Se  Se189  1  0.25571045  0.59076849  0.30411346  1
  Se  Se190  1  0.24346267  0.57758815  0.80390616  1
  Se  Se191  1  0.24668390  0.91764987  0.30660106  1
  Se  Se192  1  0.25242296  0.91563494  0.80493687  1
  Se  Se193  1  0.57130389  0.23623749  0.32067789  1
  Se  Se194  1  0.57994324  0.25375866  0.79865769  1
  Se  Se195  1  0.58301464  0.57235740  0.31347494  1
  Se  Se196  1  0.57168922  0.58172865  0.80304296  1
  Se  Se197  1  0.58265959  0.91477270  0.30581328  1
  Se  Se198  1  0.58726276  0.92076932  0.80376807  1
  Se  Se199  1  0.91291405  0.24220105  0.31449264  1
  Se  Se200  1  0.92514944  0.25868595  0.78743513  1
  Se  Se201  1  0.91115665  0.57235007  0.31212641  1
  Se  Se202  1  0.91060361  0.58548629  0.79466625  1
  Se  Se203  1  0.92006333  0.92154512  0.30476974  1
  Se  Se204  1  0.92283512  0.91436755  0.80455864  1
  Se  Se205  1  0.08794789  0.08798433  0.30124079  1
  Se  Se206  1  0.08659411  0.07844119  0.79677186  1
  Se  Se207  1  0.09431511  0.42310894  0.31476378  1
  Se  Se208  1  0.08028369  0.41434538  0.79836426  1
  Se  Se209  1  0.09153777  0.76075515  0.31823140  1
  Se  Se210  1  0.08261601  0.74578382  0.80540935  1
  Se  Se211  1  0.40867315  0.07507932  0.30051474  1
  Se  Se212  1  0.41332282  0.08518514  0.80076930  1
  Se  Se213  1  0.41279306  0.41486161  0.30521417  1
  Se  Se214  1  0.41862406  0.42756683  0.80870383  1
  Se  Se215  1  0.41493968  0.75001953  0.29884953  1
  Se  Se216  1  0.41847695  0.75505753  0.80864487  1
  Se  Se217  1  0.74696718  0.07738027  0.30639209  1
  Se  Se218  1  0.77316695  0.09953466  0.79891405  1
  Se  Se219  1  0.76043370  0.41778121  0.31002755  1
  Se  Se220  1  0.74451415  0.42106389  0.79325966  1
  Se  Se221  1  0.75632729  0.75100308  0.31192832  1
  Se  Se222  1  0.75520069  0.75794621  0.80914960  1
  Se  Se223  1  0.23981834  0.08578131  0.20620821  1
  Se  Se224  1  0.25315843  0.08200312  0.69152975  1
  Se  Se225  1  0.25025471  0.41649209  0.19650367  1
  Se  Se226  1  0.24329767  0.41765882  0.68505399  1
  Se  Se227  1  0.24907771  0.75166160  0.19700298  1
  Se  Se228  1  0.23824112  0.75954779  0.68722620  1
  Se  Se229  1  0.58465329  0.08221311  0.20162340  1
  Se  Se230  1  0.58477060  0.07705784  0.70170689  1
  Se  Se231  1  0.58063052  0.41876810  0.19349594  1
  Se  Se232  1  0.57562468  0.42474060  0.69732698  1
  Se  Se233  1  0.57828998  0.76059525  0.18735092  1
  Se  Se234  1  0.57485558  0.76004503  0.68799416  1
  Se  Se235  1  0.91892830  0.08219110  0.20160891  1
  Se  Se236  1  0.92073662  0.08162298  0.69865551  1
  Se  Se237  1  0.91366800  0.42369427  0.19965947  1
  Se  Se238  1  0.91821362  0.41451444  0.69139756  1
  Se  Se239  1  0.91391629  0.75494173  0.19540143  1
  Se  Se240  1  0.92227955  0.74874812  0.69649324  1
  Se  Se241  1  0.08966252  0.24709308  0.18437600  1
  Se  Se242  1  0.08676105  0.25334988  0.69023042  1
  Se  Se243  1  0.08960566  0.58001471  0.19441419  1
  Se  Se244  1  0.07784868  0.58608461  0.69608637  1
  Se  Se245  1  0.07512828  0.91337883  0.19647149  1
  Se  Se246  1  0.08414047  0.92022354  0.69696730  1
  Se  Se247  1  0.41663102  0.25155624  0.20196504  1
  Se  Se248  1  0.42022304  0.24479884  0.68483384  1
  Se  Se249  1  0.41864141  0.58533985  0.20187777  1
  Se  Se250  1  0.41795922  0.56809164  0.68836676  1
  Se  Se251  1  0.41076764  0.91938434  0.19538141  1
  Se  Se252  1  0.41383306  0.92052913  0.69997286  1
  Se  Se253  1  0.75697380  0.24441550  0.19248204  1
  Se  Se254  1  0.73351349  0.26757003  0.69628293  1
  Se  Se255  1  0.76281126  0.57349750  0.19935154  1
  Se  Se256  1  0.75300961  0.58198573  0.67917250  1
  Se  Se257  1  0.74782748  0.91728718  0.20036298  1
  Se  Se258  1  0.75299636  0.91915023  0.69813296  1
