# generated using pymatgen
data_In86Cu29Se144
_symmetry_space_group_name_H-M   'P 1'
_cell_length_a   17.58723149
_cell_length_b   17.58830474
_cell_length_c   23.45674410
_cell_angle_alpha   89.99495091
_cell_angle_beta   89.99901937
_cell_angle_gamma   89.98930508
_symmetry_Int_Tables_number   1
_chemical_formula_structural   In86Cu29Se144
_chemical_formula_sum   'In86 Cu29 Se144'
_cell_volume   7255.86480440
_cell_formula_units_Z   1
loop_
 _symmetry_equiv_pos_site_id
 _symmetry_equiv_pos_as_xyz
  1  'x, y, z'
loop_
 _atom_site_type_symbol
 _atom_site_label
 _atom_site_symmetry_multiplicity
 _atom_site_fract_x
 _atom_site_fract_y
 _atom_site_fract_z
 _atom_site_occupancy
  In  In0  1  -0.00560246  0.16142280  0.11217452  1
  In  In1  1  -0.01178036  0.15198759  0.62571820  1
  In  In2  1  -0.00683220  0.51526288  0.12004102  1
  In  In3  1  -0.00309867  0.51849205  0.63111766  1
  In  In4  1  0.00069292  0.83350055  0.11681793  1
  In  In5  1  -0.00017802  0.83924991  0.62853628  1
  In  In6  1  0.33237484  0.16139628  0.11505703  1
  In  In7  1  0.32544120  0.18119726  0.62178176  1
  In  In8  1  0.34784008  0.49342401  0.12246838  1
  In  In9  1  0.34106345  0.50691363  0.62659689  1
  In  In10  1  0.33144897  0.83391446  0.11810825  1
  In  In11  1  0.32073928  0.82189142  0.62001636  1
  In  In12  1  0.66934491  0.16764624  0.12423364  1
  In  In13  1  0.68892210  0.17084042  0.62752135  1
  In  In14  1  0.66404593  0.49954193  0.12695655  1
  In  In15  1  0.66233364  0.49582732  0.62052869  1
  In  In16  1  0.66734731  0.83463170  0.12393837  1
  In  In17  1  0.66527786  0.83113783  0.61482304  1
  In  In18  1  0.16741226  -0.00210465  0.38275628  1
  In  In19  1  0.15999324  0.00014917  0.87221827  1
  In  In20  1  0.15463901  0.32789158  0.38082240  1
  In  In21  1  0.15755622  0.32658001  0.87369368  1
  In  In22  1  0.17090797  0.67385896  0.38039859  1
  In  In23  1  0.17956954  0.67661482  0.85471954  1
  In  In24  1  0.50448797  -0.01102641  0.37432569  1
  In  In25  1  0.50192349  -0.00222343  0.88420964  1
  In  In26  1  0.51516141  0.33332169  0.37342019  1
  In  In27  1  0.51078690  0.32697560  0.88388151  1
  In  In28  1  0.51324655  0.65499366  0.38261717  1
  In  In29  1  0.49580348  0.67354375  0.88386453  1
  In  In30  1  0.82655873  0.00521484  0.37815044  1
  In  In31  1  0.84377029  -0.00704237  0.87903750  1
  In  In32  1  0.81894181  0.34156862  0.38806133  1
  In  In33  1  0.82402592  0.34468631  0.87624275  1
  In  In34  1  0.82157121  0.67477915  0.38284031  1
  In  In35  1  0.84263301  0.66223470  0.87525328  1
  In  In36  1  -0.00411727  0.16218433  0.38558346  1
  In  In37  1  0.00566532  0.16178149  0.87890577  1
  In  In38  1  -0.00949290  0.48592818  0.38161337  1
  In  In39  1  -0.01445138  0.50628030  0.86489702  1
  In  In40  1  0.00030337  0.83207181  0.38222788  1
  In  In41  1  0.00350554  0.82935897  0.86967894  1
  In  In42  1  0.33170809  0.15910257  0.37872072  1
  In  In43  1  0.33418250  0.16461591  0.88022069  1
  In  In44  1  0.34450072  0.50241743  0.38141999  1
  In  In45  1  0.33428195  0.51561351  0.87406757  1
  In  In46  1  0.33316895  0.83607757  0.38296936  1
  In  In47  1  0.33363045  0.82566834  0.87715451  1
  In  In48  1  0.67309389  0.17613202  0.36715185  1
  In  In49  1  0.66849857  0.17218550  0.88133127  1
  In  In50  1  0.66429554  0.50135136  0.37558365  1
  In  In51  1  0.68202541  0.48827026  0.88095537  1
  In  In52  1  0.66660574  0.82837058  0.37274630  1
  In  In53  1  0.66888529  0.83305245  0.88595938  1
  In  In54  1  0.16292484  -0.00400304  0.11701104  1
  In  In55  1  0.15009595  -0.01354434  0.62352075  1
  In  In56  1  0.17750790  0.32924546  0.12115629  1
  In  In57  1  0.17959647  0.33007405  0.61846194  1
  In  In58  1  0.16265252  0.67425924  0.12050826  1
  In  In59  1  0.14467052  0.69518256  0.65174728  1
  In  In60  1  0.50661142  0.00727245  0.11900832  1
  In  In61  1  0.51239275  -0.00524393  0.62437548  1
  In  In62  1  0.52021258  0.34621336  0.11488046  1
  In  In63  1  0.49680854  0.35351228  0.62117248  1
  In  In64  1  0.50707945  0.67344925  0.12070249  1
  In  In65  1  0.49369622  0.66207383  0.62074371  1
  In  In66  1  0.82621200  -0.00610107  0.11942966  1
  In  In67  1  0.84762678  0.00900095  0.62285599  1
  In  In68  1  0.82255144  0.32532108  0.11765295  1
  In  In69  1  0.82324950  0.32381341  0.62562093  1
  In  In70  1  0.82098372  0.65568197  0.11397188  1
  In  In71  1  0.83496921  0.67477450  0.61945283  1
  In  In72  1  0.33158212  -0.00383987  0.75418936  1
  In  In73  1  -0.00784002  0.33114751  0.25084026  1
  In  In74  1  0.67120929  0.66082845  0.75453826  1
  In  In75  1  -0.00730694  -0.00497587  0.24162291  1
  In  In76  1  0.34520190  0.32836014  0.25645097  1
  In  In77  1  0.49639094  0.17051525  0.49608895  1
  In  In78  1  0.34532132  0.67161511  0.24161368  1
  In  In79  1  0.67322173  -0.00080917  0.75850624  1
  In  In80  1  -0.00926840  0.66976016  0.25839977  1
  In  In81  1  0.33497164  0.34199782  0.74448824  1
  In  In82  1  0.33949066  -0.00302316  0.25723533  1
  In  In83  1  -0.00080018  0.33613121  0.74983611  1
  In  In84  1  0.16850178  0.50757311  0.50997431  1
  In  In85  1  0.16089177  0.49806136  -0.01068527  1
  Cu  Cu86  1  0.50602512  0.50007811  0.75006764  1
  Cu  Cu87  1  0.82267244  0.49607681  0.24891146  1
  Cu  Cu88  1  0.32771593  -0.00639841  -0.00454457  1
  Cu  Cu89  1  0.66683609  0.33083633  0.50005740  1
  Cu  Cu90  1  0.00325581  -0.00202672  -0.00496736  1
  Cu  Cu91  1  0.66346527  0.66346905  0.49918557  1
  Cu  Cu92  1  0.51189397  0.17517693  0.75523039  1
  Cu  Cu93  1  0.16223432  0.16190808  0.74776949  1
  Cu  Cu94  1  -0.00344182  0.67251641  -0.00656653  1
  Cu  Cu95  1  0.49406870  0.82339021  0.75156810  1
  Cu  Cu96  1  0.32985796  0.66530923  -0.00181157  1
  Cu  Cu97  1  0.33322756  0.67329802  0.50414976  1
  Cu  Cu98  1  0.66842152  0.00501129  0.00252500  1
  Cu  Cu99  1  0.50786796  0.83002375  0.25008725  1
  Cu  Cu100  1  0.17457936  0.50667409  0.25130783  1
  Cu  Cu101  1  -0.00044322  -0.00414307  0.50321408  1
  Cu  Cu102  1  0.32855805  0.00362629  0.50210466  1
  Cu  Cu103  1  0.67021601  -0.00620903  0.49891511  1
  Cu  Cu104  1  0.66899240  0.33512588  0.00271895  1
  Cu  Cu105  1  0.50975232  0.17078666  0.23975525  1
  Cu  Cu106  1  -0.00144889  0.33418766  -0.00753810  1
  Cu  Cu107  1  -0.00611329  0.32652368  0.50663101  1
  Cu  Cu108  1  0.83974277  0.83856005  0.74718681  1
  Cu  Cu109  1  0.00220738  0.67226643  0.50811437  1
  Cu  Cu110  1  0.82206836  0.17136822  0.25275248  1
  Cu  Cu111  1  0.33856150  0.32663052  0.00013683  1
  Cu  Cu112  1  0.16068017  0.15973767  0.24745129  1
  Cu  Cu113  1  0.66664936  0.66971704  0.00116820  1
  Cu  Cu114  1  0.82592963  0.82868501  0.24695954  1
  Se  Se115  1  0.08632568  0.08345171  0.04912723  1
  Se  Se116  1  0.08138666  0.08254270  0.55616805  1
  Se  Se117  1  0.07569891  0.41142948  0.06016290  1
  Se  Se118  1  0.07329342  0.41308586  0.56359447  1
  Se  Se119  1  0.08362136  0.75070472  0.04807828  1
  Se  Se120  1  0.08634163  0.75410807  0.56063052  1
  Se  Se121  1  0.41341488  0.07582288  0.04925040  1
  Se  Se122  1  0.41245519  0.07944012  0.56272758  1
  Se  Se123  1  0.42138853  0.41476484  0.04847093  1
  Se  Se124  1  0.39929040  0.41290709  0.55401632  1
  Se  Se125  1  0.41327240  0.74672370  0.05385558  1
  Se  Se126  1  0.42149773  0.75705358  0.55439456  1
  Se  Se127  1  0.75444225  0.08881179  0.05368574  1
  Se  Se128  1  0.74938590  0.07739030  0.55542116  1
  Se  Se129  1  0.75082409  0.42321385  0.05467493  1
  Se  Se130  1  0.74970355  0.41302990  0.55495647  1
  Se  Se131  1  0.75150882  0.75616207  0.05203279  1
  Se  Se132  1  0.74940146  0.74960170  0.54788737  1
  Se  Se133  1  0.24806364  0.24575125  0.04841814  1
  Se  Se134  1  0.24967754  0.24942243  0.54427585  1
  Se  Se135  1  0.25216216  0.58062986  0.05911883  1
  Se  Se136  1  0.25037094  0.60261768  0.56896313  1
  Se  Se137  1  0.24449773  0.91135816  0.04989282  1
  Se  Se138  1  0.24775874  0.91877473  0.55644172  1
  Se  Se139  1  0.58548481  0.24497338  0.05139843  1
  Se  Se140  1  0.58635135  0.25210462  0.56285553  1
  Se  Se141  1  0.58543202  0.58370617  0.05459564  1
  Se  Se142  1  0.57968304  0.58089597  0.55374321  1
  Se  Se143  1  0.58492552  0.91757141  0.05345204  1
  Se  Se144  1  0.57977967  0.91393130  0.54782893  1
  Se  Se145  1  0.91562681  0.25366274  0.04991384  1
  Se  Se146  1  0.91038848  0.24196226  0.55860756  1
  Se  Se147  1  0.91429687  0.58487284  0.04427982  1
  Se  Se148  1  0.91629310  0.58486763  0.55289836  1
  Se  Se149  1  0.91839882  0.91954982  0.05244807  1
  Se  Se150  1  0.91405732  0.91246118  0.55489787  1
  Se  Se151  1  0.07942062  0.24633624  0.45226279  1
  Se  Se152  1  0.08675513  0.24753562  0.94905700  1
  Se  Se153  1  0.07374190  0.58865773  0.44164694  1
  Se  Se154  1  0.07695922  0.59276240  0.93216072  1
  Se  Se155  1  0.08450255  0.91418783  0.44928442  1
  Se  Se156  1  0.08390055  0.91251159  0.94164412  1
  Se  Se157  1  0.40794692  0.26286511  0.43698963  1
  Se  Se158  1  0.42175278  0.24291730  0.94700981  1
  Se  Se159  1  0.41611983  0.58833796  0.45193027  1
  Se  Se160  1  0.41753642  0.58143414  0.95046564  1
  Se  Se161  1  0.41471216  0.92461546  0.44748311  1
  Se  Se162  1  0.41471046  0.91096849  0.94513496  1
  Se  Se163  1  0.74788560  0.24057225  0.44995671  1
  Se  Se164  1  0.75427519  0.25469736  0.94826310  1
  Se  Se165  1  0.74885196  0.57906068  0.44749339  1
  Se  Se166  1  0.74944705  0.59055223  0.94351049  1
  Se  Se167  1  0.75097348  0.91103266  0.44235709  1
  Se  Se168  1  0.75151435  0.92144532  0.94858088  1
  Se  Se169  1  0.24536525  0.08714883  0.44942009  1
  Se  Se170  1  0.24692198  0.07920816  0.94142745  1
  Se  Se171  1  0.24707365  0.41691633  0.44000983  1
  Se  Se172  1  0.25968683  0.40628396  0.93682419  1
  Se  Se173  1  0.24784561  0.75511636  0.45117851  1
  Se  Se174  1  0.24413021  0.74212645  0.94196588  1
  Se  Se175  1  0.59071838  0.07959613  0.44036944  1
  Se  Se176  1  0.58442292  0.08596897  0.94721195  1
  Se  Se177  1  0.58408796  0.41633757  0.44813082  1
  Se  Se178  1  0.58651480  0.41996298  0.94916205  1
  Se  Se179  1  0.58297128  0.75285203  0.44669279  1
  Se  Se180  1  0.58020550  0.75482561  0.95179881  1
  Se  Se181  1  0.91272486  0.07781648  0.45046321  1
  Se  Se182  1  0.91754508  0.08466996  0.94782256  1
  Se  Se183  1  0.91148826  0.41411289  0.45630905  1
  Se  Se184  1  0.91918373  0.42210219  0.94148386  1
  Se  Se185  1  0.91756883  0.74762849  0.44774404  1
  Se  Se186  1  0.91259149  0.75759853  0.94209937  1
  Se  Se187  1  0.23934432  0.24131291  0.30756582  1
  Se  Se188  1  0.24764259  0.24285584  0.80359490  1
  Se  Se189  1  0.25405673  0.58459361  0.31037619  1
  Se  Se190  1  0.25345408  0.57601422  0.79650671  1
  Se  Se191  1  0.24142184  0.90864405  0.30855103  1
  Se  Se192  1  0.24031175  0.90349410  0.80693155  1
  Se  Se193  1  0.58715563  0.25417462  0.29785276  1
  Se  Se194  1  0.59333624  0.25713392  0.80794749  1
  Se  Se195  1  0.58870302  0.58775339  0.30509168  1
  Se  Se196  1  0.57912034  0.57785125  0.81706981  1
  Se  Se197  1  0.58880807  0.91719348  0.30208219  1
  Se  Se198  1  0.57485443  0.90529167  0.80973142  1
  Se  Se199  1  0.90630757  0.24402491  0.31504136  1
  Se  Se200  1  0.91564585  0.25032883  0.81549566  1
  Se  Se201  1  0.90470456  0.57069178  0.31278798  1
  Se  Se202  1  0.90755473  0.58753737  0.79475608  1
  Se  Se203  1  0.90900466  0.90637851  0.30738952  1
  Se  Se204  1  0.92177536  0.91944039  0.80278474  1
  Se  Se205  1  0.08112094  0.08315195  0.30878664  1
  Se  Se206  1  0.07911829  0.08251776  0.80220114  1
  Se  Se207  1  0.08979970  0.42501020  0.30627164  1
  Se  Se208  1  0.09298529  0.42663422  0.80764335  1
  Se  Se209  1  0.09093138  0.75842110  0.30749406  1
  Se  Se210  1  0.06662611  0.73290377  0.79991431  1
  Se  Se211  1  0.43218432  0.09660178  0.30713962  1
  Se  Se212  1  0.42872406  0.08977282  0.80796289  1
  Se  Se213  1  0.43084595  0.42876933  0.30705234  1
  Se  Se214  1  0.42597024  0.41948390  0.81229885  1
  Se  Se215  1  0.42456611  0.75684762  0.31266158  1
  Se  Se216  1  0.41362083  0.74176017  0.80651446  1
  Se  Se217  1  0.74598708  0.07839833  0.30305518  1
  Se  Se218  1  0.76158255  0.09050602  0.81429674  1
  Se  Se219  1  0.74712404  0.41232114  0.30789406  1
  Se  Se220  1  0.75230251  0.42168702  0.79913457  1
  Se  Se221  1  0.74756403  0.74323504  0.30221043  1
  Se  Se222  1  0.75512948  0.76325380  0.80824451  1
  Se  Se223  1  0.24668416  0.08262019  0.19163347  1
  Se  Se224  1  0.24774547  0.08646440  0.68822788  1
  Se  Se225  1  0.25014314  0.42102146  0.19456187  1
  Se  Se226  1  0.23841286  0.42915241  0.69063388  1
  Se  Se227  1  0.24265843  0.75833323  0.19282662  1
  Se  Se228  1  0.26214945  0.74929904  0.70367444  1
  Se  Se229  1  0.58936391  0.07903540  0.19301793  1
  Se  Se230  1  0.58401822  0.08942694  0.69407410  1
  Se  Se231  1  0.58778049  0.41204030  0.19651325  1
  Se  Se232  1  0.58517456  0.41586762  0.69600115  1
  Se  Se233  1  0.58878209  0.74794775  0.19448148  1
  Se  Se234  1  0.58279637  0.75222031  0.69185165  1
  Se  Se235  1  0.90543211  0.09610636  0.19087645  1
  Se  Se236  1  0.91312039  0.08206841  0.70376114  1
  Se  Se237  1  0.91015096  0.42504609  0.18839617  1
  Se  Se238  1  0.90938229  0.42090046  0.68785275  1
  Se  Se239  1  0.90925802  0.75145074  0.18660625  1
  Se  Se240  1  0.91546471  0.74939184  0.69345222  1
  Se  Se241  1  0.08548729  0.24397081  0.18834599  1
  Se  Se242  1  0.08916586  0.24705805  0.68671880  1
  Se  Se243  1  0.08820435  0.58197920  0.19468277  1
  Se  Se244  1  0.08557380  0.58106703  0.70360411  1
  Se  Se245  1  0.09151861  0.90593991  0.19178104  1
  Se  Se246  1  0.08232282  0.91414147  0.70212524  1
  Se  Se247  1  0.42173006  0.24516163  0.18297982  1
  Se  Se248  1  0.42791515  0.24533673  0.69089291  1
  Se  Se249  1  0.43353750  0.57295884  0.19176356  1
  Se  Se250  1  0.42231350  0.58468893  0.69916477  1
  Se  Se251  1  0.42399054  0.90945034  0.19106119  1
  Se  Se252  1  0.42307967  0.91064150  0.69058689  1
  Se  Se253  1  0.74508248  0.25589579  0.19587897  1
  Se  Se254  1  0.75278985  0.24946233  0.70528938  1
  Se  Se255  1  0.74884895  0.58600668  0.19459121  1
  Se  Se256  1  0.75466323  0.57945675  0.68619296  1
  Se  Se257  1  0.74891101  0.91872649  0.19491327  1
  Se  Se258  1  0.75164036  0.91159991  0.68809275  1
