# generated using pymatgen
data_In86Cu29Se144
_symmetry_space_group_name_H-M   'P 1'
_cell_length_a   17.58093875
_cell_length_b   17.58529710
_cell_length_c   23.44122084
_cell_angle_alpha   89.98863623
_cell_angle_beta   89.99263909
_cell_angle_gamma   90.03089895
_symmetry_Int_Tables_number   1
_chemical_formula_structural   In86Cu29Se144
_chemical_formula_sum   'In86 Cu29 Se144'
_cell_volume   7247.22795667
_cell_formula_units_Z   1
loop_
 _symmetry_equiv_pos_site_id
 _symmetry_equiv_pos_as_xyz
  1  'x, y, z'
loop_
 _atom_site_type_symbol
 _atom_site_label
 _atom_site_symmetry_multiplicity
 _atom_site_fract_x
 _atom_site_fract_y
 _atom_site_fract_z
 _atom_site_occupancy
  In  In0  1  -0.00189195  0.15726157  0.12090816  1
  In  In1  1  -0.00556203  0.18059633  0.62340666  1
  In  In2  1  0.00167258  0.50338345  0.11754897  1
  In  In3  1  -0.00193965  0.49544601  0.61722057  1
  In  In4  1  0.01294520  0.85046790  0.11923003  1
  In  In5  1  -0.00034333  0.82797195  0.62664527  1
  In  In6  1  0.32532517  0.16158009  0.10897148  1
  In  In7  1  0.34446948  0.15734237  0.63688869  1
  In  In8  1  0.35063060  0.51263582  0.10933372  1
  In  In9  1  0.32246007  0.51170506  0.63739987  1
  In  In10  1  0.33032680  0.82899020  0.12808116  1
  In  In11  1  0.34989532  0.82773490  0.64255161  1
  In  In12  1  0.67286903  0.17108347  0.11964063  1
  In  In13  1  0.66799372  0.17014458  0.61448261  1
  In  In14  1  0.66322134  0.49699167  0.12364797  1
  In  In15  1  0.66781172  0.49693004  0.62849850  1
  In  In16  1  0.65284077  0.82108176  0.11672981  1
  In  In17  1  0.65222490  0.83288952  0.63061739  1
  In  In18  1  0.16339007  -0.00503718  0.35687919  1
  In  In19  1  0.17796465  -0.01388922  0.88507162  1
  In  In20  1  0.17799712  0.34276844  0.37422485  1
  In  In21  1  0.19874170  0.31510359  0.90209073  1
  In  In22  1  0.16620694  0.66365364  0.37220501  1
  In  In23  1  0.18394232  0.65471763  0.88673351  1
  In  In24  1  0.49468639  0.01355477  0.37286951  1
  In  In25  1  0.49532862  0.00416859  0.88242180  1
  In  In26  1  0.49670617  0.31809793  0.37555526  1
  In  In27  1  0.46703275  0.35573979  0.90205757  1
  In  In28  1  0.49979175  0.66233765  0.36880772  1
  In  In29  1  0.49711869  0.66582037  0.86849076  1
  In  In30  1  0.83745155  -0.00167346  0.37256633  1
  In  In31  1  0.82769872  0.00366480  0.88332370  1
  In  In32  1  0.82200658  0.34455401  0.37648599  1
  In  In33  1  0.83816319  0.33087195  0.88105076  1
  In  In34  1  0.82393763  0.66714284  0.37070712  1
  In  In35  1  0.82433195  0.66913635  0.88420066  1
  In  In36  1  -0.00326418  0.15502820  0.36942855  1
  In  In37  1  0.00079434  0.17263752  0.88028243  1
  In  In38  1  0.00307701  0.49646869  0.37722968  1
  In  In39  1  0.00459444  0.49640605  0.88409940  1
  In  In40  1  -0.00812739  0.83872454  0.36494040  1
  In  In41  1  -0.00157420  0.83314987  0.88556263  1
  In  In42  1  0.34148191  0.16247881  0.37230680  1
  In  In43  1  0.34005206  0.16191943  0.87866115  1
  In  In44  1  0.32387291  0.50242600  0.37971631  1
  In  In45  1  0.33453781  0.50249489  0.87151070  1
  In  In46  1  0.32816024  0.83050484  0.36328576  1
  In  In47  1  0.34025027  0.82972148  0.87638156  1
  In  In48  1  0.65030183  0.17503382  0.37941677  1
  In  In49  1  0.66788582  0.16694556  0.88132680  1
  In  In50  1  0.67245989  0.50917327  0.36897126  1
  In  In51  1  0.64938229  0.51262403  0.88339031  1
  In  In52  1  0.67621031  0.82789223  0.36805778  1
  In  In53  1  0.66749086  0.82616802  0.88348854  1
  In  In54  1  0.16750266  -0.00401198  0.12621126  1
  In  In55  1  0.17874514  0.00883862  0.62630888  1
  In  In56  1  0.18820727  0.34506413  0.10541749  1
  In  In57  1  0.16270037  0.34298634  0.62712487  1
  In  In58  1  0.18554404  0.68599317  0.11594131  1
  In  In59  1  0.18538376  0.65655922  0.62900266  1
  In  In60  1  0.48941189  -0.01552438  0.11611922  1
  In  In61  1  0.49357432  0.00385595  0.62484455  1
  In  In62  1  0.50420577  0.34277002  0.11145883  1
  In  In63  1  0.50370746  0.32403788  0.63083047  1
  In  In64  1  0.49864819  0.66498521  0.12554891  1
  In  In65  1  0.49480273  0.66969125  0.64413810  1
  In  In66  1  0.84274270  0.00759354  0.12070162  1
  In  In67  1  0.82223396  0.01217288  0.62497636  1
  In  In68  1  0.82365388  0.32424048  0.12012950  1
  In  In69  1  0.82390428  0.33502793  0.61771898  1
  In  In70  1  0.82189090  0.65637491  0.11922692  1
  In  In71  1  0.83354151  0.65447849  0.62570682  1
  In  In72  1  0.00455536  0.67600834  0.24468558  1
  In  In73  1  0.00727208  0.00131762  0.74522334  1
  In  In74  1  0.66407706  -0.00288958  0.24703816  1
  In  In75  1  0.16884430  0.83339587  0.49469512  1
  In  In76  1  0.00024880  0.32601426  0.23667292  1
  In  In77  1  0.65953181  -0.00076463  0.75878064  1
  In  In78  1  0.00403464  0.33502480  0.75582071  1
  In  In79  1  0.83112362  0.83538374  0.49057319  1
  In  In80  1  0.66027410  0.33524227  0.75303737  1
  In  In81  1  0.34093112  0.33253568  0.24573999  1
  In  In82  1  0.16516810  0.17067170  0.49531845  1
  In  In83  1  0.49906959  0.83487621  0.51027645  1
  In  In84  1  0.49849984  0.49868775  0.50692925  1
  In  In85  1  0.00569246  0.66459738  0.76064004  1
  Cu  Cu86  1  -0.00847841  0.00574002  0.49655998  1
  Cu  Cu87  1  0.00220598  0.00299728  0.00039966  1
  Cu  Cu88  1  0.00752701  0.65705679  0.49858081  1
  Cu  Cu89  1  0.17937127  0.83331477  0.75848948  1
  Cu  Cu90  1  0.82501966  0.50243377  0.24816875  1
  Cu  Cu91  1  0.67031837  -0.00411891  0.00393240  1
  Cu  Cu92  1  0.50057150  0.16591241  0.24621091  1
  Cu  Cu93  1  0.33932411  0.67103246  -0.00312032  1
  Cu  Cu94  1  0.00008354  0.33271804  0.00448163  1
  Cu  Cu95  1  0.49975136  0.17101507  0.75869428  1
  Cu  Cu96  1  0.65974287  0.65824497  0.00064785  1
  Cu  Cu97  1  0.67029276  0.33354556  -0.00216861  1
  Cu  Cu98  1  0.33309495  0.33103754  0.50238757  1
  Cu  Cu99  1  0.49724120  0.82718164  0.24308156  1
  Cu  Cu100  1  0.17167703  0.49506409  0.75491423  1
  Cu  Cu101  1  0.33498442  -0.00007847  0.50213349  1
  Cu  Cu102  1  0.50143282  0.49920605  0.24298175  1
  Cu  Cu103  1  0.66944900  0.66567822  0.49880778  1
  Cu  Cu104  1  -0.00684387  0.67240659  0.00457246  1
  Cu  Cu105  1  0.17872850  0.16365617  0.76011316  1
  Cu  Cu106  1  0.17267252  0.50638692  0.24691408  1
  Cu  Cu107  1  0.82905930  0.83251041  0.76045722  1
  Cu  Cu108  1  0.66676357  0.33836799  0.49934727  1
  Cu  Cu109  1  0.83347868  0.83351100  0.24344807  1
  Cu  Cu110  1  0.82740410  0.16969823  0.24443241  1
  Cu  Cu111  1  0.82469580  0.49953356  0.75070662  1
  Cu  Cu112  1  -0.00836174  0.33491825  0.49737979  1
  Cu  Cu113  1  0.33263645  -0.00463230  0.00097274  1
  Cu  Cu114  1  0.16814789  0.16303389  0.23822910  1
  Se  Se115  1  0.08905692  0.08235340  0.05435961  1
  Se  Se116  1  0.07559188  0.07838170  0.55897775  1
  Se  Se117  1  0.08528497  0.42150567  0.05009130  1
  Se  Se118  1  0.08146842  0.41196377  0.55041482  1
  Se  Se119  1  0.08274895  0.75320991  0.05379736  1
  Se  Se120  1  0.08178856  0.74067426  0.55945085  1
  Se  Se121  1  0.42061969  0.08011821  0.04894472  1
  Se  Se122  1  0.41471829  0.08735407  0.55408069  1
  Se  Se123  1  0.40151077  0.40347249  0.04723129  1
  Se  Se124  1  0.40890252  0.40945673  0.56652537  1
  Se  Se125  1  0.41796354  0.75157957  0.05759491  1
  Se  Se126  1  0.40964897  0.73773395  0.56270109  1
  Se  Se127  1  0.75348595  0.08399882  0.05295462  1
  Se  Se128  1  0.75569944  0.08997044  0.54902082  1
  Se  Se129  1  0.75072455  0.41797719  0.05422730  1
  Se  Se130  1  0.74729540  0.42573324  0.55136595  1
  Se  Se131  1  0.74482691  0.74486313  0.05079283  1
  Se  Se132  1  0.74645991  0.74957035  0.56010203  1
  Se  Se133  1  0.25732362  0.25295814  0.03865139  1
  Se  Se134  1  0.25304529  0.24946445  0.56384559  1
  Se  Se135  1  0.25139371  0.58797354  0.04914030  1
  Se  Se136  1  0.24746721  0.57210136  0.55391077  1
  Se  Se137  1  0.25008494  0.91282505  0.05684763  1
  Se  Se138  1  0.26059679  0.91484456  0.56239838  1
  Se  Se139  1  0.58679251  0.24919513  0.05067937  1
  Se  Se140  1  0.58063925  0.25598881  0.55162272  1
  Se  Se141  1  0.57563455  0.57699557  0.05565764  1
  Se  Se142  1  0.58631253  0.59579009  0.56326961  1
  Se  Se143  1  0.58018831  0.91065810  0.04775122  1
  Se  Se144  1  0.59519044  0.93138708  0.55781720  1
  Se  Se145  1  0.91714279  0.24726493  0.05635569  1
  Se  Se146  1  0.91030003  0.25159491  0.55123093  1
  Se  Se147  1  0.91235925  0.58121659  0.05157987  1
  Se  Se148  1  0.91598321  0.58280673  0.55179230  1
  Se  Se149  1  0.91629272  0.91804058  0.05132728  1
  Se  Se150  1  0.92084599  0.91981206  0.55918075  1
  Se  Se151  1  0.07371109  0.26011612  0.43356459  1
  Se  Se152  1  0.08404900  0.24830380  0.95211694  1
  Se  Se153  1  0.09063078  0.57788873  0.44276170  1
  Se  Se154  1  0.07688120  0.59268352  0.94769860  1
  Se  Se155  1  0.07371477  0.92616679  0.43841441  1
  Se  Se156  1  0.08457909  0.91373157  0.95165999  1
  Se  Se157  1  0.41119464  0.24543039  0.44792575  1
  Se  Se158  1  0.42992824  0.23097078  0.95056507  1
  Se  Se159  1  0.41317156  0.59029553  0.44501988  1
  Se  Se160  1  0.41774946  0.58414133  0.94247330  1
  Se  Se161  1  0.41080335  0.91685265  0.44056586  1
  Se  Se162  1  0.41845578  0.91274495  0.94879671  1
  Se  Se163  1  0.74501816  0.25354465  0.44250995  1
  Se  Se164  1  0.75519451  0.24741885  0.94856130  1
  Se  Se165  1  0.75253699  0.58383696  0.44500949  1
  Se  Se166  1  0.74981906  0.57659837  0.95036830  1
  Se  Se167  1  0.73509387  0.92772010  0.43966161  1
  Se  Se168  1  0.75253935  0.91236010  0.94876803  1
  Se  Se169  1  0.24993332  0.07180313  0.43867691  1
  Se  Se170  1  0.25138066  0.08231010  0.94799975  1
  Se  Se171  1  0.24985026  0.41668928  0.45204129  1
  Se  Se172  1  0.23158359  0.44602672  0.94142775  1
  Se  Se173  1  0.26120305  0.74167335  0.44176153  1
  Se  Se174  1  0.25096506  0.75661706  0.94898052  1
  Se  Se175  1  0.57702535  0.08286497  0.44550967  1
  Se  Se176  1  0.58909152  0.07899958  0.94801653  1
  Se  Se177  1  0.58400945  0.41540221  0.43780164  1
  Se  Se178  1  0.58136821  0.41957354  0.95331684  1
  Se  Se179  1  0.58849930  0.74757097  0.44142745  1
  Se  Se180  1  0.57819811  0.74188360  0.94567824  1
  Se  Se181  1  0.90953061  0.08811153  0.44358239  1
  Se  Se182  1  0.91830879  0.08558601  0.94603828  1
  Se  Se183  1  0.91219995  0.42163787  0.44359748  1
  Se  Se184  1  0.91688959  0.41574102  0.95003768  1
  Se  Se185  1  0.92868174  0.74024776  0.43842465  1
  Se  Se186  1  0.90913471  0.75356799  0.95010264  1
  Se  Se187  1  0.24276789  0.24258492  0.30417325  1
  Se  Se188  1  0.25666899  0.25160992  0.81249751  1
  Se  Se189  1  0.25405372  0.58522996  0.30422109  1
  Se  Se190  1  0.25046405  0.58816863  0.80205438  1
  Se  Se191  1  0.26419180  0.92780258  0.29771990  1
  Se  Se192  1  0.25984281  0.92065126  0.80791464  1
  Se  Se193  1  0.58070757  0.25159547  0.29935139  1
  Se  Se194  1  0.57499216  0.25202675  0.81992092  1
  Se  Se195  1  0.58344963  0.58317693  0.29978338  1
  Se  Se196  1  0.58790344  0.58595301  0.80233896  1
  Se  Se197  1  0.57256556  0.90794708  0.30898167  1
  Se  Se198  1  0.57374403  0.90611468  0.81529095  1
  Se  Se199  1  0.90945576  0.24933601  0.30630793  1
  Se  Se200  1  0.90851953  0.24109753  0.80479450  1
  Se  Se201  1  0.91541532  0.57861600  0.30427119  1
  Se  Se202  1  0.90896683  0.57360640  0.81250403  1
  Se  Se203  1  0.91214692  0.92137571  0.29597860  1
  Se  Se204  1  0.91566085  0.91597661  0.81009016  1
  Se  Se205  1  0.08153551  0.08734148  0.29534207  1
  Se  Se206  1  0.09139947  0.08455800  0.81456314  1
  Se  Se207  1  0.08969303  0.41989099  0.29963668  1
  Se  Se208  1  0.09615589  0.41548838  0.81767503  1
  Se  Se209  1  0.09541965  0.76506206  0.30524743  1
  Se  Se210  1  0.09534897  0.75693385  0.81696187  1
  Se  Se211  1  0.41351019  0.08305825  0.29620276  1
  Se  Se212  1  0.41866968  0.07948984  0.80550343  1
  Se  Se213  1  0.42390748  0.42429225  0.31180070  1
  Se  Se214  1  0.41363397  0.40834310  0.80917106  1
  Se  Se215  1  0.41670476  0.74505655  0.30148440  1
  Se  Se216  1  0.40313627  0.73949588  0.80265092  1
  Se  Se217  1  0.74926855  0.09019162  0.30835079  1
  Se  Se218  1  0.75813492  0.09150504  0.80675041  1
  Se  Se219  1  0.74317795  0.41583271  0.29980333  1
  Se  Se220  1  0.75158487  0.42096396  0.81549850  1
  Se  Se221  1  0.75139758  0.74723206  0.29505516  1
  Se  Se222  1  0.74701673  0.74651076  0.80933139  1
  Se  Se223  1  0.25780673  0.08384238  0.18859799  1
  Se  Se224  1  0.25612088  0.07706363  0.70396265  1
  Se  Se225  1  0.25420517  0.42709474  0.18753408  1
  Se  Se226  1  0.25041305  0.40977083  0.69951334  1
  Se  Se227  1  0.25223920  0.74692606  0.20051359  1
  Se  Se228  1  0.25225329  0.74645963  0.69995021  1
  Se  Se229  1  0.57613398  0.08343084  0.18369659  1
  Se  Se230  1  0.58108796  0.09642306  0.69360268  1
  Se  Se231  1  0.58030069  0.41082019  0.19215659  1
  Se  Se232  1  0.56969892  0.42860282  0.69657253  1
  Se  Se233  1  0.58539237  0.74412647  0.19636262  1
  Se  Se234  1  0.58588965  0.75188212  0.70461301  1
  Se  Se235  1  0.91586985  0.08665808  0.19740855  1
  Se  Se236  1  0.91186396  0.09377753  0.69373598  1
  Se  Se237  1  0.90793338  0.42490323  0.18815463  1
  Se  Se238  1  0.90827482  0.42065924  0.69248764  1
  Se  Se239  1  0.91151253  0.75505317  0.18055967  1
  Se  Se240  1  0.91048167  0.75347950  0.69878221  1
  Se  Se241  1  0.10145557  0.25147914  0.17660999  1
  Se  Se242  1  0.09526679  0.23830595  0.69721701  1
  Se  Se243  1  0.09205953  0.58319669  0.18601236  1
  Se  Se244  1  0.08469419  0.57117429  0.69450811  1
  Se  Se245  1  0.08087182  0.92270449  0.19844361  1
  Se  Se246  1  0.09961596  0.90407043  0.69068421  1
  Se  Se247  1  0.42239022  0.24298695  0.18143697  1
  Se  Se248  1  0.41626585  0.25250424  0.70267232  1
  Se  Se249  1  0.41362888  0.58167410  0.19476746  1
  Se  Se250  1  0.41416961  0.57999058  0.70526922  1
  Se  Se251  1  0.41517647  0.91577093  0.19579793  1
  Se  Se252  1  0.42873498  0.92212386  0.70034940  1
  Se  Se253  1  0.74205093  0.25386679  0.19675909  1
  Se  Se254  1  0.75194647  0.24649450  0.69183339  1
  Se  Se255  1  0.74139704  0.58435889  0.19484455  1
  Se  Se256  1  0.74579479  0.58535100  0.69725618  1
  Se  Se257  1  0.75098274  0.91091841  0.18225681  1
  Se  Se258  1  0.75641434  0.91261902  0.69510256  1
