# generated using pymatgen
data_In86Cu29Se144
_symmetry_space_group_name_H-M   'P 1'
_cell_length_a   17.58001358
_cell_length_b   17.57943111
_cell_length_c   23.43301226
_cell_angle_alpha   89.97636923
_cell_angle_beta   90.00396677
_cell_angle_gamma   89.97710329
_symmetry_Int_Tables_number   1
_chemical_formula_structural   In86Cu29Se144
_chemical_formula_sum   'In86 Cu29 Se144'
_cell_volume   7241.89243443
_cell_formula_units_Z   1
loop_
 _symmetry_equiv_pos_site_id
 _symmetry_equiv_pos_as_xyz
  1  'x, y, z'
loop_
 _atom_site_type_symbol
 _atom_site_label
 _atom_site_symmetry_multiplicity
 _atom_site_fract_x
 _atom_site_fract_y
 _atom_site_fract_z
 _atom_site_occupancy
  In  In0  1  -0.00439155  0.17394349  0.12791316  1
  In  In1  1  0.00242313  0.16214190  0.63296833  1
  In  In2  1  -0.00319289  0.50434744  0.13447286  1
  In  In3  1  -0.01509666  0.49768653  0.62035503  1
  In  In4  1  0.00541719  0.82903609  0.13616928  1
  In  In5  1  -0.00141147  0.84565680  0.61863979  1
  In  In6  1  0.34401585  0.15928536  0.13162262  1
  In  In7  1  0.34710010  0.16988396  0.62283617  1
  In  In8  1  0.32452776  0.50179196  0.13228628  1
  In  In9  1  0.34523905  0.48592263  0.62469191  1
  In  In10  1  0.35188957  0.84152443  0.11550506  1
  In  In11  1  0.32987947  0.83614212  0.61859743  1
  In  In12  1  0.65314963  0.15572721  0.11793946  1
  In  In13  1  0.66324446  0.16541067  0.62570039  1
  In  In14  1  0.67987547  0.50403459  0.12886875  1
  In  In15  1  0.65633602  0.48936233  0.61049732  1
  In  In16  1  0.65476781  0.85016422  0.14359790  1
  In  In17  1  0.66919316  0.83724848  0.61189222  1
  In  In18  1  0.15433385  -0.00836976  0.36587100  1
  In  In19  1  0.15912489  -0.00200086  0.87603103  1
  In  In20  1  0.16868077  0.33325584  0.37017129  1
  In  In21  1  0.16992931  0.33589909  0.86574430  1
  In  In22  1  0.16762605  0.68282797  0.37571740  1
  In  In23  1  0.16916478  0.67787377  0.87802284  1
  In  In24  1  0.49747588  0.00064985  0.37938559  1
  In  In25  1  0.51458373  -0.01148659  0.87624355  1
  In  In26  1  0.49209786  0.33100648  0.38527324  1
  In  In27  1  0.49233121  0.32461905  0.86582693  1
  In  In28  1  0.52209365  0.67407959  0.39328515  1
  In  In29  1  0.49826486  0.67598613  0.88020464  1
  In  In30  1  0.81426331  -0.03194837  0.34170920  1
  In  In31  1  0.84095570  0.00790802  0.86958485  1
  In  In32  1  0.84430591  0.33398808  0.37914779  1
  In  In33  1  0.81919037  0.31697787  0.86335451  1
  In  In34  1  0.82770096  0.66959518  0.37580967  1
  In  In35  1  0.83141013  0.66767694  0.87459338  1
  In  In36  1  -0.00219339  0.16796581  0.36542814  1
  In  In37  1  -0.00873343  0.15621773  0.87075679  1
  In  In38  1  -0.01010179  0.49397654  0.37324651  1
  In  In39  1  0.01193247  0.49590545  0.87426330  1
  In  In40  1  -0.00263543  0.83303095  0.37083363  1
  In  In41  1  0.00062870  0.84621564  0.87363950  1
  In  In42  1  0.34271659  0.17235220  0.36969081  1
  In  In43  1  0.33762572  0.17996674  0.87340010  1
  In  In44  1  0.35245370  0.49794027  0.37969486  1
  In  In45  1  0.34330550  0.49514950  0.86971830  1
  In  In46  1  0.32087922  0.83910065  0.38165032  1
  In  In47  1  0.33237714  0.83548146  0.88258624  1
  In  In48  1  0.66259976  0.13940561  0.37748154  1
  In  In49  1  0.66640997  0.15946325  0.87347308  1
  In  In50  1  0.66105177  0.51536892  0.39130766  1
  In  In51  1  0.67677606  0.49809134  0.87054262  1
  In  In52  1  0.67163731  0.84054697  0.38038733  1
  In  In53  1  0.65064334  0.84247678  0.87299950  1
  In  In54  1  0.18193656  -0.00607655  0.12960862  1
  In  In55  1  0.15593572  -0.01359506  0.62629264  1
  In  In56  1  0.16563721  0.34048832  0.13254356  1
  In  In57  1  0.17396305  0.32624321  0.63179791  1
  In  In58  1  0.16010217  0.66991119  0.12907423  1
  In  In59  1  0.16135344  0.67766169  0.62206070  1
  In  In60  1  0.50024939  -0.00193525  0.12832790  1
  In  In61  1  0.50544700  -0.00190169  0.61278574  1
  In  In62  1  0.50528792  0.31973280  0.12639039  1
  In  In63  1  0.50064920  0.33523548  0.62243682  1
  In  In64  1  0.49341547  0.68695359  0.13138289  1
  In  In65  1  0.51176696  0.67103724  0.60865539  1
  In  In66  1  0.82375870  0.00456233  0.13662046  1
  In  In67  1  0.83329046  -0.00118889  0.62221749  1
  In  In68  1  0.84470983  0.33187106  0.12429232  1
  In  In69  1  0.82617340  0.32906938  0.62759835  1
  In  In70  1  0.82219933  0.68777206  0.15281489  1
  In  In71  1  0.81797856  0.66583270  0.60510103  1
  In  In72  1  0.82918663  0.83834829  0.01039920  1
  In  In73  1  0.49923552  0.50223169  -0.00588195  1
  In  In74  1  0.17195559  0.50277363  0.49251051  1
  In  In75  1  0.33437786  0.66838483  0.75073366  1
  In  In76  1  0.66692745  0.66548192  0.73562501  1
  In  In77  1  0.66738239  0.33351291  0.25322710  1
  In  In78  1  0.33255770  0.00381678  0.74568708  1
  In  In79  1  -0.00711904  0.66647077  0.74776755  1
  In  In80  1  0.84263124  0.50014633  0.00430710  1
  In  In81  1  0.33458597  0.66889772  0.25774178  1
  In  In82  1  0.16640730  0.50548594  0.01058531  1
  In  In83  1  0.17147141  0.16459548  0.00065489  1
  In  In84  1  0.82999871  0.15918414  0.49802682  1
  In  In85  1  0.17240011  0.15963123  0.50874010  1
  Cu  Cu86  1  0.83144919  0.50439828  0.25555900  1
  Cu  Cu87  1  0.83237709  0.48442896  0.74472003  1
  Cu  Cu88  1  0.00632006  0.33191265  0.50032940  1
  Cu  Cu89  1  0.50551317  0.16575473  0.74509721  1
  Cu  Cu90  1  -0.00744495  0.32461191  -0.00365509  1
  Cu  Cu91  1  0.00153257  -0.00090353  -0.00153670  1
  Cu  Cu92  1  0.16499219  0.49322279  0.74636361  1
  Cu  Cu93  1  -0.00353897  0.67801428  0.49819915  1
  Cu  Cu94  1  -0.00370748  0.67522841  0.01226272  1
  Cu  Cu95  1  0.82900593  0.83440353  0.74178122  1
  Cu  Cu96  1  0.83131513  0.16072787  0.74778186  1
  Cu  Cu97  1  0.66862683  0.32050657  -0.00620640  1
  Cu  Cu98  1  0.33785896  0.33244575  -0.00093838  1
  Cu  Cu99  1  0.34359235  0.00124747  0.00457841  1
  Cu  Cu100  1  0.16999822  0.17035499  0.24720934  1
  Cu  Cu101  1  0.83323096  0.17044470  0.25109453  1
  Cu  Cu102  1  0.50772995  0.49894990  0.74502889  1
  Cu  Cu103  1  0.65916885  0.67289058  0.00593737  1
  Cu  Cu104  1  0.33237776  0.66561465  0.49700276  1
  Cu  Cu105  1  0.16452184  0.49635736  0.25443772  1
  Cu  Cu106  1  0.50098312  0.16070504  0.25059570  1
  Cu  Cu107  1  -0.01127256  -0.01018948  0.48894741  1
  Cu  Cu108  1  0.50657449  0.50133851  0.26460072  1
  Cu  Cu109  1  0.16932832  0.83736896  0.25090412  1
  Cu  Cu110  1  0.16611998  0.16752097  0.75390242  1
  Cu  Cu111  1  0.49837547  0.83769722  0.25783818  1
  Cu  Cu112  1  0.66627425  0.33086588  0.50169556  1
  Cu  Cu113  1  0.32828513  0.00146318  0.49811847  1
  Cu  Cu114  1  0.66440244  0.00147704  0.00288385  1
  Se  Se115  1  0.08143098  0.07791328  0.06185466  1
  Se  Se116  1  0.06590374  0.07028092  0.55368950  1
  Se  Se117  1  0.06801594  0.40882483  0.05783346  1
  Se  Se118  1  0.08702915  0.41269794  0.55937041  1
  Se  Se119  1  0.08565380  0.75707259  0.05853853  1
  Se  Se120  1  0.08123179  0.75749308  0.55253566  1
  Se  Se121  1  0.42443029  0.08664162  0.05663250  1
  Se  Se122  1  0.41404488  0.08201155  0.55070982  1
  Se  Se123  1  0.41245218  0.41552667  0.06166914  1
  Se  Se124  1  0.42886768  0.42293482  0.54981489  1
  Se  Se125  1  0.42314589  0.74883871  0.04874936  1
  Se  Se126  1  0.41197178  0.75085921  0.55221185  1
  Se  Se127  1  0.75180445  0.07941010  0.05725405  1
  Se  Se128  1  0.73530875  0.07128935  0.55341861  1
  Se  Se129  1  0.74265072  0.40585780  0.05500964  1
  Se  Se130  1  0.75646607  0.41070692  0.55160651  1
  Se  Se131  1  0.73862698  0.74837128  0.06887912  1
  Se  Se132  1  0.72763906  0.73987138  0.53961334  1
  Se  Se133  1  0.25561896  0.25826820  0.06230793  1
  Se  Se134  1  0.26264158  0.26120220  0.55488653  1
  Se  Se135  1  0.26213350  0.59863141  0.06061995  1
  Se  Se136  1  0.25590300  0.58762298  0.56258430  1
  Se  Se137  1  0.25505595  0.91808664  0.05241890  1
  Se  Se138  1  0.24382502  0.92018568  0.55282069  1
  Se  Se139  1  0.57955627  0.24647037  0.04885035  1
  Se  Se140  1  0.58383944  0.24835348  0.55558328  1
  Se  Se141  1  0.58469776  0.58563364  0.06403857  1
  Se  Se142  1  0.58795580  0.58246939  0.54341587  1
  Se  Se143  1  0.58602676  0.91573512  0.05908449  1
  Se  Se144  1  0.56912702  0.90074117  0.54330832  1
  Se  Se145  1  0.91157766  0.24306286  0.05110426  1
  Se  Se146  1  0.92519186  0.24826592  0.55759553  1
  Se  Se147  1  0.91157067  0.59930564  0.07052680  1
  Se  Se148  1  0.91860545  0.58693413  0.54871740  1
  Se  Se149  1  0.92489246  0.92499241  0.06611059  1
  Se  Se150  1  0.90576742  0.91292000  0.54848981  1
  Se  Se151  1  0.08326515  0.24839352  0.44268353  1
  Se  Se152  1  0.08299684  0.25382625  0.93791189  1
  Se  Se153  1  0.07533768  0.59313787  0.43925562  1
  Se  Se154  1  0.07182340  0.59356014  0.94839068  1
  Se  Se155  1  0.08457413  0.91193604  0.44299641  1
  Se  Se156  1  0.08521248  0.91383034  0.94924017  1
  Se  Se157  1  0.42040123  0.23544737  0.45001221  1
  Se  Se158  1  0.42260122  0.25070575  0.94727691  1
  Se  Se159  1  0.42339051  0.58826718  0.44804885  1
  Se  Se160  1  0.40076371  0.59362362  0.94235483  1
  Se  Se161  1  0.41195934  0.91600324  0.44710443  1
  Se  Se162  1  0.42176125  0.91826598  0.94528810  1
  Se  Se163  1  0.74081520  0.25112021  0.43613643  1
  Se  Se164  1  0.75507920  0.23904988  0.94343843  1
  Se  Se165  1  0.77006504  0.57316241  0.44903103  1
  Se  Se166  1  0.74183272  0.59195161  0.94820475  1
  Se  Se167  1  0.75870952  0.93327452  0.43858819  1
  Se  Se168  1  0.74643550  0.92270945  0.94097166  1
  Se  Se169  1  0.24841415  0.07782154  0.43472744  1
  Se  Se170  1  0.26308440  0.07654574  0.93923081  1
  Se  Se171  1  0.26240365  0.40568766  0.44209369  1
  Se  Se172  1  0.25379639  0.41470121  0.94363442  1
  Se  Se173  1  0.24465333  0.75266808  0.45314565  1
  Se  Se174  1  0.24595669  0.75451318  0.94876211  1
  Se  Se175  1  0.56637792  0.09258571  0.45086542  1
  Se  Se176  1  0.58208482  0.08243299  0.94596967  1
  Se  Se177  1  0.58293471  0.41413175  0.44737440  1
  Se  Se178  1  0.59143210  0.40962579  0.93761968  1
  Se  Se179  1  0.58823182  0.77258179  0.46084091  1
  Se  Se180  1  0.58319863  0.75598602  0.94799174  1
  Se  Se181  1  0.91604542  0.07754283  0.43082634  1
  Se  Se182  1  0.91577710  0.08186193  0.94814040  1
  Se  Se183  1  0.91984459  0.41610155  0.45230129  1
  Se  Se184  1  0.91758776  0.40853375  0.93496054  1
  Se  Se185  1  0.91292218  0.75687085  0.44229372  1
  Se  Se186  1  0.91786594  0.74799334  0.94484498  1
  Se  Se187  1  0.25292706  0.25149126  0.30309077  1
  Se  Se188  1  0.25465997  0.25241231  0.79972578  1
  Se  Se189  1  0.24519536  0.57452387  0.31703370  1
  Se  Se190  1  0.23887997  0.57560733  0.80938022  1
  Se  Se191  1  0.25496687  0.91937397  0.30275351  1
  Se  Se192  1  0.24596240  0.91276435  0.80765713  1
  Se  Se193  1  0.58004558  0.24155134  0.31263486  1
  Se  Se194  1  0.58648514  0.24687506  0.80381394  1
  Se  Se195  1  0.58575298  0.59038089  0.31383991  1
  Se  Se196  1  0.57821201  0.58263326  0.80931052  1
  Se  Se197  1  0.58307937  0.92015584  0.31046627  1
  Se  Se198  1  0.58758405  0.92184591  0.79484928  1
  Se  Se199  1  0.91528577  0.25745010  0.30068111  1
  Se  Se200  1  0.91738890  0.24453539  0.80060405  1
  Se  Se201  1  0.91698287  0.58713997  0.30731181  1
  Se  Se202  1  0.90516318  0.56849532  0.80791011  1
  Se  Se203  1  0.94663313  0.93907476  0.30278177  1
  Se  Se204  1  0.91115271  0.91216240  0.80161927  1
  Se  Se205  1  0.08513451  0.08814434  0.29926680  1
  Se  Se206  1  0.08394420  0.08099762  0.80427093  1
  Se  Se207  1  0.07855761  0.41383300  0.30633500  1
  Se  Se208  1  0.07871099  0.41267671  0.79903618  1
  Se  Se209  1  0.08541317  0.75111509  0.30072269  1
  Se  Se210  1  0.08501274  0.75609013  0.80496872  1
  Se  Se211  1  0.41607738  0.07827325  0.30377198  1
  Se  Se212  1  0.42343775  0.08896218  0.80891077  1
  Se  Se213  1  0.42135919  0.41117618  0.30638034  1
  Se  Se214  1  0.41955633  0.41694534  0.79697893  1
  Se  Se215  1  0.42446976  0.75409846  0.32062521  1
  Se  Se216  1  0.42411339  0.76237757  0.80658586  1
  Se  Se217  1  0.74481668  0.08428791  0.29558967  1
  Se  Se218  1  0.74720208  0.07750596  0.80158032  1
  Se  Se219  1  0.75212624  0.42319041  0.31633623  1
  Se  Se220  1  0.74240456  0.40978531  0.79817467  1
  Se  Se221  1  0.74807576  0.75651897  0.30904627  1
  Se  Se222  1  0.75197336  0.75389494  0.80530229  1
  Se  Se223  1  0.25525169  0.08364510  0.19873035  1
  Se  Se224  1  0.24022653  0.09248701  0.68429368  1
  Se  Se225  1  0.25261128  0.41576302  0.20311499  1
  Se  Se226  1  0.25570898  0.41618701  0.69581141  1
  Se  Se227  1  0.25348800  0.75802905  0.19121647  1
  Se  Se228  1  0.24136448  0.76002280  0.69488050  1
  Se  Se229  1  0.58689557  0.07842437  0.19798094  1
  Se  Se230  1  0.57908698  0.07711146  0.68984308  1
  Se  Se231  1  0.57721035  0.42574114  0.19232613  1
  Se  Se232  1  0.58947690  0.41463504  0.69196387  1
  Se  Se233  1  0.58039168  0.75095998  0.20551755  1
  Se  Se234  1  0.57455415  0.76015701  0.68652196  1
  Se  Se235  1  0.91695929  0.08798222  0.19688853  1
  Se  Se236  1  0.91502717  0.07686096  0.69483371  1
  Se  Se237  1  0.91040540  0.41965786  0.19833868  1
  Se  Se238  1  0.92097569  0.40667699  0.69272206  1
  Se  Se239  1  0.93200800  0.74510648  0.20824948  1
  Se  Se240  1  0.90225234  0.74758925  0.68215384  1
  Se  Se241  1  0.08252590  0.25346676  0.19595844  1
  Se  Se242  1  0.08329067  0.25027287  0.69812042  1
  Se  Se243  1  0.08680708  0.58305981  0.19957298  1
  Se  Se244  1  0.08682613  0.57577064  0.68774337  1
  Se  Se245  1  0.08806736  0.92254036  0.19676374  1
  Se  Se246  1  0.07227670  0.91528342  0.69829374  1
  Se  Se247  1  0.42022130  0.25054872  0.19958753  1
  Se  Se248  1  0.42062813  0.25210861  0.69587535  1
  Se  Se249  1  0.42637713  0.57738265  0.19761638  1
  Se  Se250  1  0.42855393  0.58454060  0.68802861  1
  Se  Se251  1  0.41581197  0.91570116  0.19801549  1
  Se  Se252  1  0.42102674  0.91329329  0.68731113  1
  Se  Se253  1  0.75012327  0.24511857  0.18661617  1
  Se  Se254  1  0.74682771  0.24485419  0.69600013  1
  Se  Se255  1  0.74222336  0.58585498  0.20677989  1
  Se  Se256  1  0.75776606  0.56960520  0.68334154  1
  Se  Se257  1  0.76869100  0.89935598  0.20153616  1
  Se  Se258  1  0.74530557  0.91459230  0.68740386  1
