# generated using pymatgen
data_In86Cu29Se144
_symmetry_space_group_name_H-M   'P 1'
_cell_length_a   17.58001501
_cell_length_b   17.57786617
_cell_length_c   23.43962957
_cell_angle_alpha   89.99298780
_cell_angle_beta   89.98824095
_cell_angle_gamma   89.99783520
_symmetry_Int_Tables_number   1
_chemical_formula_structural   In86Cu29Se144
_chemical_formula_sum   'In86 Cu29 Se144'
_cell_volume   7243.29421900
_cell_formula_units_Z   1
loop_
 _symmetry_equiv_pos_site_id
 _symmetry_equiv_pos_as_xyz
  1  'x, y, z'
loop_
 _atom_site_type_symbol
 _atom_site_label
 _atom_site_symmetry_multiplicity
 _atom_site_fract_x
 _atom_site_fract_y
 _atom_site_fract_z
 _atom_site_occupancy
  In  In0  1  0.01092396  0.15699809  0.13549220  1
  In  In1  1  -0.00894701  0.16105766  0.61791201  1
  In  In2  1  -0.01454944  0.49486436  0.12333963  1
  In  In3  1  0.00398899  0.50763375  0.61936470  1
  In  In4  1  0.01108959  0.84218271  0.11651240  1
  In  In5  1  0.00076643  0.82624897  0.63421436  1
  In  In6  1  0.32402869  0.17372310  0.13513478  1
  In  In7  1  0.33941245  0.17075267  0.60482607  1
  In  In8  1  0.33432337  0.49817032  0.13592338  1
  In  In9  1  0.31807623  0.49135447  0.61757613  1
  In  In10  1  0.32933292  0.84297463  0.13745769  1
  In  In11  1  0.32003776  0.85126988  0.62002692  1
  In  In12  1  0.67790821  0.17689142  0.12700900  1
  In  In13  1  0.67488975  0.16518422  0.62651669  1
  In  In14  1  0.67763996  0.49195162  0.12999279  1
  In  In15  1  0.66126108  0.48086696  0.62391842  1
  In  In16  1  0.66346906  0.82106097  0.12275232  1
  In  In17  1  0.68220771  0.84976728  0.62781662  1
  In  In18  1  0.16739501  0.00403236  0.38005850  1
  In  In19  1  0.15957648  0.00371866  0.87805199  1
  In  In20  1  0.16866909  0.33173964  0.37586401  1
  In  In21  1  0.15853719  0.31550221  0.87805920  1
  In  In22  1  0.17175157  0.65617796  0.37629272  1
  In  In23  1  0.16753318  0.68516998  0.88064186  1
  In  In24  1  0.50030971  0.01624996  0.37898402  1
  In  In25  1  0.50455880  0.00066873  0.86745364  1
  In  In26  1  0.49061793  0.31986599  0.36827616  1
  In  In27  1  0.49980921  0.33066871  0.86619420  1
  In  In28  1  0.49732399  0.67061077  0.36127696  1
  In  In29  1  0.49389913  0.66777062  0.87484046  1
  In  In30  1  0.84556009  -0.00114043  0.37398184  1
  In  In31  1  0.83292056  -0.01050400  0.86634133  1
  In  In32  1  0.83522510  0.33217200  0.37764282  1
  In  In33  1  0.83063811  0.34509160  0.87693922  1
  In  In34  1  0.82295243  0.66332999  0.37241195  1
  In  In35  1  0.84206077  0.65960280  0.88015427  1
  In  In36  1  0.00090704  0.16849559  0.37818410  1
  In  In37  1  0.01633418  0.16325171  0.87577992  1
  In  In38  1  0.01146413  0.48759281  0.38218231  1
  In  In39  1  -0.01822976  0.49326747  0.87759778  1
  In  In40  1  0.00151884  0.85082596  0.36927110  1
  In  In41  1  0.00176658  0.83529506  0.87415834  1
  In  In42  1  0.32981566  0.16478618  0.37812796  1
  In  In43  1  0.32055023  0.16054611  0.87367847  1
  In  In44  1  0.32754727  0.49396438  0.36697720  1
  In  In45  1  0.34077104  0.49618183  0.87721065  1
  In  In46  1  0.32391136  0.82370186  0.36437698  1
  In  In47  1  0.31805805  0.83060785  0.88148440  1
  In  In48  1  0.65770584  0.17415774  0.38169008  1
  In  In49  1  0.67312030  0.17366990  0.86400009  1
  In  In50  1  0.67289631  0.50305984  0.37374549  1
  In  In51  1  0.67745400  0.49543460  0.87669947  1
  In  In52  1  0.67558712  0.82849404  0.36880622  1
  In  In53  1  0.66750707  0.84610758  0.87293871  1
  In  In54  1  0.16655848  0.00174321  0.12977259  1
  In  In55  1  0.16211937  -0.00747821  0.61130040  1
  In  In56  1  0.16997104  0.32481595  0.13245558  1
  In  In57  1  0.17262654  0.33819060  0.61931845  1
  In  In58  1  0.16934408  0.67718938  0.12308036  1
  In  In59  1  0.15653889  0.66108735  0.61791451  1
  In  In60  1  0.49071262  -0.01749361  0.13159565  1
  In  In61  1  0.49966035  0.03563399  0.62300223  1
  In  In62  1  0.50226848  0.33255843  0.13280511  1
  In  In63  1  0.50933027  0.30534710  0.63926606  1
  In  In64  1  0.50270726  0.67608511  0.13963528  1
  In  In65  1  0.49937034  0.66486957  0.62488551  1
  In  In66  1  0.85094033  0.01023014  0.12241033  1
  In  In67  1  0.82838870  0.00257862  0.63751380  1
  In  In68  1  0.82477556  0.34466716  0.13235378  1
  In  In69  1  0.82684047  0.32445120  0.61733349  1
  In  In70  1  0.82499929  0.65625811  0.11677051  1
  In  In71  1  0.84975224  0.67472804  0.62561487  1
  In  In72  1  -0.00340554  0.33156895  0.75267883  1
  In  In73  1  0.49677716  0.83806690  0.49401509  1
  In  In74  1  0.33053287  0.66605915  0.75681252  1
  In  In75  1  0.33814705  0.00935344  0.74237479  1
  In  In76  1  0.49614985  0.83373454  0.00079204  1
  In  In77  1  0.67050688  0.65938237  0.75797504  1
  In  In78  1  -0.00148004  0.66492534  0.24038444  1
  In  In79  1  0.84502253  0.17673543  -0.00569572  1
  In  In80  1  0.48889621  0.49032911  0.48798684  1
  In  In81  1  0.49769863  0.16863220  0.00871179  1
  In  In82  1  0.83837208  0.83384326  0.49939449  1
  In  In83  1  0.50148298  0.50492015  -0.00169443  1
  In  In84  1  0.16172512  0.50039388  0.01023820  1
  In  In85  1  0.66349458  0.00388537  0.24812900  1
  Cu  Cu86  1  0.00098102  0.33673116  0.49939360  1
  Cu  Cu87  1  0.83073549  0.49893434  0.74915602  1
  Cu  Cu88  1  0.00071244  0.00433810  0.49827988  1
  Cu  Cu89  1  0.50822228  0.50062701  0.25168542  1
  Cu  Cu90  1  0.67311760  0.00310971  -0.00827776  1
  Cu  Cu91  1  0.16830782  0.16356472  0.25869675  1
  Cu  Cu92  1  0.83411353  0.49789181  0.25181408  1
  Cu  Cu93  1  0.32071340  -0.00068695  0.00449177  1
  Cu  Cu94  1  0.32664886  0.32803172  0.00517913  1
  Cu  Cu95  1  0.16318069  0.83541528  0.74761811  1
  Cu  Cu96  1  0.67096759  0.32730821  0.50185014  1
  Cu  Cu97  1  0.00389092  0.66972489  0.49979793  1
  Cu  Cu98  1  0.50979597  0.83970762  0.74571049  1
  Cu  Cu99  1  0.16080623  0.50239811  0.74337131  1
  Cu  Cu100  1  0.33306679  0.33356184  0.49452260  1
  Cu  Cu101  1  0.83669080  0.17247438  0.25197107  1
  Cu  Cu102  1  0.67245564  0.66290265  0.00173328  1
  Cu  Cu103  1  -0.00039138  0.66816171  -0.00030896  1
  Cu  Cu104  1  0.66847789  0.00829434  0.50575006  1
  Cu  Cu105  1  0.83494149  0.16393179  0.74545187  1
  Cu  Cu106  1  0.16846167  0.49498513  0.25300299  1
  Cu  Cu107  1  0.32375125  0.67406176  0.49675163  1
  Cu  Cu108  1  0.00780785  -0.00812137  0.00145264  1
  Cu  Cu109  1  0.49663656  0.16896556  0.25325406  1
  Cu  Cu110  1  0.66757738  0.65744824  0.49847916  1
  Cu  Cu111  1  0.16921649  0.16778494  0.74750529  1
  Cu  Cu112  1  0.16203261  0.83683924  0.24781781  1
  Cu  Cu113  1  0.49091891  0.48648746  0.74728642  1
  Cu  Cu114  1  0.83066131  0.83341943  0.24469297  1
  Se  Se115  1  0.08342987  0.08046375  0.05712971  1
  Se  Se116  1  0.08407208  0.08954382  0.54992956  1
  Se  Se117  1  0.07525064  0.40284950  0.06278123  1
  Se  Se118  1  0.08467279  0.42032221  0.55351085  1
  Se  Se119  1  0.08619825  0.74972145  0.05017589  1
  Se  Se120  1  0.08015057  0.75708012  0.55531663  1
  Se  Se121  1  0.40749422  0.07327025  0.06380643  1
  Se  Se122  1  0.40220328  0.06291415  0.54618498  1
  Se  Se123  1  0.41143192  0.41034772  0.05886483  1
  Se  Se124  1  0.41631160  0.40408090  0.56151382  1
  Se  Se125  1  0.41219392  0.74902955  0.06644444  1
  Se  Se126  1  0.40837044  0.74615981  0.55869083  1
  Se  Se127  1  0.74858378  0.08354036  0.05447635  1
  Se  Se128  1  0.76052287  0.08176823  0.55851449  1
  Se  Se129  1  0.75639875  0.42231028  0.05379950  1
  Se  Se130  1  0.75094072  0.41806484  0.55062943  1
  Se  Se131  1  0.75253935  0.75329263  0.05095335  1
  Se  Se132  1  0.74212609  0.74397302  0.55806005  1
  Se  Se133  1  0.24519524  0.24326547  0.05697302  1
  Se  Se134  1  0.24438730  0.25258781  0.54605447  1
  Se  Se135  1  0.26179775  0.58729594  0.06161341  1
  Se  Se136  1  0.24769427  0.58489864  0.55110516  1
  Se  Se137  1  0.24661705  0.91261560  0.06125025  1
  Se  Se138  1  0.24813049  0.91729798  0.54068374  1
  Se  Se139  1  0.59374203  0.26313068  0.05709653  1
  Se  Se140  1  0.58750126  0.24571471  0.55691658  1
  Se  Se141  1  0.58699337  0.59200846  0.06402791  1
  Se  Se142  1  0.57987533  0.58020502  0.55368978  1
  Se  Se143  1  0.59130301  0.92767211  0.05584627  1
  Se  Se144  1  0.58623194  0.92277638  0.56078732  1
  Se  Se145  1  0.91848625  0.24918588  0.07381904  1
  Se  Se146  1  0.91638976  0.25033473  0.54939186  1
  Se  Se147  1  0.91688251  0.58113853  0.04984510  1
  Se  Se148  1  0.91644744  0.58869973  0.55148446  1
  Se  Se149  1  0.91452315  0.91629825  0.05180190  1
  Se  Se150  1  0.92227415  0.92379869  0.56170919  1
  Se  Se151  1  0.08400990  0.25277337  0.44614304  1
  Se  Se152  1  0.07413717  0.25063508  0.95208109  1
  Se  Se153  1  0.08520572  0.58252004  0.44744233  1
  Se  Se154  1  0.07819369  0.58455302  0.93953163  1
  Se  Se155  1  0.08111357  0.91628822  0.44686899  1
  Se  Se156  1  0.09115077  0.90947512  0.94635867  1
  Se  Se157  1  0.41891153  0.24653160  0.44704580  1
  Se  Se158  1  0.40870510  0.25288589  0.94213624  1
  Se  Se159  1  0.40711361  0.59590245  0.43672539  1
  Se  Se160  1  0.40317546  0.59851588  0.94745913  1
  Se  Se161  1  0.40624934  0.92006800  0.43243228  1
  Se  Se162  1  0.40792019  0.93032676  0.94048411  1
  Se  Se163  1  0.75426666  0.24531534  0.44683696  1
  Se  Se164  1  0.73966040  0.25840450  0.94332588  1
  Se  Se165  1  0.75572222  0.57843093  0.44796859  1
  Se  Se166  1  0.75294618  0.57917840  0.94689900  1
  Se  Se167  1  0.74187583  0.92481275  0.44252342  1
  Se  Se168  1  0.75579973  0.91540231  0.94483106  1
  Se  Se169  1  0.23789510  0.09690859  0.44805955  1
  Se  Se170  1  0.24337931  0.08512216  0.94832854  1
  Se  Se171  1  0.25070871  0.42077151  0.44397617  1
  Se  Se172  1  0.25077662  0.41167600  0.94401289  1
  Se  Se173  1  0.24156397  0.75456213  0.44169047  1
  Se  Se174  1  0.25512675  0.74582545  0.95560478  1
  Se  Se175  1  0.58187051  0.08856015  0.45331168  1
  Se  Se176  1  0.58684284  0.08457040  0.94009811  1
  Se  Se177  1  0.58975710  0.40297218  0.43757263  1
  Se  Se178  1  0.58559999  0.40905477  0.94104107  1
  Se  Se179  1  0.59073310  0.74120596  0.43992965  1
  Se  Se180  1  0.59110176  0.74245137  0.94098210  1
  Se  Se181  1  0.91364940  0.08508620  0.44665892  1
  Se  Se182  1  0.92613116  0.07275662  0.94054264  1
  Se  Se183  1  0.91415707  0.41908638  0.44794424  1
  Se  Se184  1  0.92113395  0.40405318  0.95057564  1
  Se  Se185  1  0.92515150  0.74517302  0.43404932  1
  Se  Se186  1  0.91887240  0.75230996  0.94451532  1
  Se  Se187  1  0.25361164  0.25132285  0.30662306  1
  Se  Se188  1  0.24761101  0.25085210  0.80411562  1
  Se  Se189  1  0.25124706  0.58521115  0.29939257  1
  Se  Se190  1  0.23806536  0.57504602  0.81349749  1
  Se  Se191  1  0.24160093  0.91909776  0.30546146  1
  Se  Se192  1  0.24912627  0.91552685  0.80414503  1
  Se  Se193  1  0.58779640  0.24934890  0.30180923  1
  Se  Se194  1  0.57996835  0.24704446  0.80016675  1
  Se  Se195  1  0.59057959  0.58516475  0.30441745  1
  Se  Se196  1  0.56847345  0.56873884  0.80957915  1
  Se  Se197  1  0.57911661  0.91648670  0.31335063  1
  Se  Se198  1  0.59076880  0.92419896  0.79845135  1
  Se  Se199  1  0.92049022  0.25319692  0.30746654  1
  Se  Se200  1  0.90935064  0.24013156  0.81394533  1
  Se  Se201  1  0.91874452  0.57758748  0.30999814  1
  Se  Se202  1  0.91486741  0.57952029  0.80288366  1
  Se  Se203  1  0.91325768  0.91790453  0.29636098  1
  Se  Se204  1  0.93920901  0.93195559  0.80482213  1
  Se  Se205  1  0.08015140  0.08129153  0.30902859  1
  Se  Se206  1  0.08817623  0.08210007  0.80026801  1
  Se  Se207  1  0.08375863  0.41246794  0.30436710  1
  Se  Se208  1  0.08816171  0.42249296  0.81149308  1
  Se  Se209  1  0.08393403  0.75102475  0.30712400  1
  Se  Se210  1  0.08570347  0.75026078  0.80397091  1
  Se  Se211  1  0.41455466  0.08532386  0.30557833  1
  Se  Se212  1  0.42587757  0.09823849  0.80543727  1
  Se  Se213  1  0.42156629  0.41801709  0.30350198  1
  Se  Se214  1  0.40532049  0.40947074  0.80314122  1
  Se  Se215  1  0.41674124  0.75459208  0.29610918  1
  Se  Se216  1  0.42327064  0.76824472  0.80728227  1
  Se  Se217  1  0.75415298  0.08950576  0.31110411  1
  Se  Se218  1  0.75291264  0.08127742  0.80246317  1
  Se  Se219  1  0.75189068  0.41478953  0.30710943  1
  Se  Se220  1  0.74735593  0.41405010  0.80031875  1
  Se  Se221  1  0.75217140  0.74645180  0.29702329  1
  Se  Se222  1  0.75717733  0.75305249  0.81371778  1
  Se  Se223  1  0.25004150  0.08088015  0.20123391  1
  Se  Se224  1  0.24201912  0.08835755  0.68166620  1
  Se  Se225  1  0.25254039  0.41039639  0.19997859  1
  Se  Se226  1  0.24684657  0.41678047  0.69671571  1
  Se  Se227  1  0.24656250  0.74911867  0.19978399  1
  Se  Se228  1  0.24704400  0.75439851  0.68990386  1
  Se  Se229  1  0.57340815  0.09357394  0.18550105  1
  Se  Se230  1  0.59747147  0.07682871  0.69550754  1
  Se  Se231  1  0.58847797  0.41539682  0.19768166  1
  Se  Se232  1  0.58223684  0.40806226  0.69858454  1
  Se  Se233  1  0.58681496  0.76134238  0.20337272  1
  Se  Se234  1  0.58564563  0.75122029  0.69035621  1
  Se  Se235  1  0.91811482  0.08255988  0.20375548  1
  Se  Se236  1  0.92497650  0.08344223  0.69771496  1
  Se  Se237  1  0.91989387  0.41441663  0.20175178  1
  Se  Se238  1  0.91218056  0.42015051  0.68728795  1
  Se  Se239  1  0.91018118  0.75619402  0.18107393  1
  Se  Se240  1  0.91057678  0.75479951  0.70328767  1
  Se  Se241  1  0.08578865  0.24744931  0.20388028  1
  Se  Se242  1  0.08600243  0.24764421  0.68793063  1
  Se  Se243  1  0.09250329  0.57141336  0.18558173  1
  Se  Se244  1  0.07800569  0.58870545  0.69519976  1
  Se  Se245  1  0.07687611  0.91967925  0.19645686  1
  Se  Se246  1  0.08709141  0.92126115  0.69102029  1
  Se  Se247  1  0.41446441  0.25396216  0.19925715  1
  Se  Se248  1  0.39677880  0.24324625  0.69042877  1
  Se  Se249  1  0.42105123  0.58205358  0.19996782  1
  Se  Se250  1  0.41605260  0.57494774  0.69078991  1
  Se  Se251  1  0.41649372  0.91447556  0.20923811  1
  Se  Se252  1  0.42801971  0.91441107  0.68356590  1
  Se  Se253  1  0.74908722  0.25505381  0.20284634  1
  Se  Se254  1  0.75329299  0.25316886  0.69678531  1
  Se  Se255  1  0.75364939  0.58397694  0.19729133  1
  Se  Se256  1  0.75110262  0.57624467  0.68529961  1
  Se  Se257  1  0.75480739  0.91899638  0.18407257  1
  Se  Se258  1  0.76662512  0.90387440  0.70541748  1
