# generated using pymatgen
data_In86Cu29Se144
_symmetry_space_group_name_H-M   'P 1'
_cell_length_a   17.58310633
_cell_length_b   17.58375083
_cell_length_c   23.44946028
_cell_angle_alpha   89.96853773
_cell_angle_beta   90.01225077
_cell_angle_gamma   89.99058784
_symmetry_Int_Tables_number   1
_chemical_formula_structural   In86Cu29Se144
_chemical_formula_sum   'In86 Cu29 Se144'
_cell_volume   7250.03149801
_cell_formula_units_Z   1
loop_
 _symmetry_equiv_pos_site_id
 _symmetry_equiv_pos_as_xyz
  1  'x, y, z'
loop_
 _atom_site_type_symbol
 _atom_site_label
 _atom_site_symmetry_multiplicity
 _atom_site_fract_x
 _atom_site_fract_y
 _atom_site_fract_z
 _atom_site_occupancy
  In  In0  1  0.00282507  0.16732137  0.13666949  1
  In  In1  1  -0.00651120  0.14907658  0.61955150  1
  In  In2  1  0.00803515  0.49228883  0.13535419  1
  In  In3  1  0.01517248  0.50093163  0.62837657  1
  In  In4  1  -0.00448447  0.83741040  0.13571766  1
  In  In5  1  -0.00692554  0.84038662  0.62630852  1
  In  In6  1  0.34118682  0.16028712  0.13152814  1
  In  In7  1  0.34149768  0.16695253  0.62203363  1
  In  In8  1  0.32002865  0.50177561  0.12026915  1
  In  In9  1  0.33864859  0.48981561  0.62309771  1
  In  In10  1  0.35048412  0.83227297  0.12814396  1
  In  In11  1  0.35766470  0.84448093  0.61046737  1
  In  In12  1  0.65191360  0.17558692  0.13391995  1
  In  In13  1  0.63880591  0.18342182  0.64228015  1
  In  In14  1  0.67210444  0.49615777  0.13564428  1
  In  In15  1  0.65160023  0.49515099  0.61631811  1
  In  In16  1  0.65218170  0.84895191  0.13618995  1
  In  In17  1  0.67887568  0.83382333  0.61291776  1
  In  In18  1  0.18385392  0.01285236  0.36833436  1
  In  In19  1  0.17173035  0.00370117  0.86305513  1
  In  In20  1  0.16364714  0.32463892  0.36896735  1
  In  In21  1  0.19284670  0.32707353  0.88186517  1
  In  In22  1  0.16288739  0.67368825  0.37067932  1
  In  In23  1  0.15661626  0.66872149  0.87645085  1
  In  In24  1  0.49653312  -0.00320285  0.38337151  1
  In  In25  1  0.49704271  -0.00324413  0.87181645  1
  In  In26  1  0.50229002  0.33122030  0.37266545  1
  In  In27  1  0.48316729  0.31913928  0.85585702  1
  In  In28  1  0.51475898  0.64953307  0.39679675  1
  In  In29  1  0.51169063  0.67274865  0.87767046  1
  In  In30  1  0.81788766  -0.01390783  0.37258268  1
  In  In31  1  0.83182780  -0.00076070  0.87007435  1
  In  In32  1  0.82870270  0.32810016  0.36790338  1
  In  In33  1  0.81937946  0.33719343  0.87328871  1
  In  In34  1  0.83862347  0.67554575  0.37437820  1
  In  In35  1  0.83885124  0.65619429  0.87312203  1
  In  In36  1  0.00863430  0.16894993  0.36903015  1
  In  In37  1  0.01165389  0.16117733  0.87189823  1
  In  In38  1  -0.00018945  0.50030510  0.36842598  1
  In  In39  1  0.00134137  0.51072421  0.87535901  1
  In  In40  1  -0.00870183  0.82710263  0.36941361  1
  In  In41  1  0.00540641  0.83421372  0.86741382  1
  In  In42  1  0.33458627  0.16171073  0.38026689  1
  In  In43  1  0.35055355  0.17537014  0.85434971  1
  In  In44  1  0.36274874  0.49598486  0.37786933  1
  In  In45  1  0.33703875  0.48289645  0.88185596  1
  In  In46  1  0.34141088  0.84261681  0.38112127  1
  In  In47  1  0.33425381  0.84926194  0.87070905  1
  In  In48  1  0.65573429  0.15899135  0.37340796  1
  In  In49  1  0.63295965  0.14121442  0.84857732  1
  In  In50  1  0.65428510  0.49005289  0.36680359  1
  In  In51  1  0.67268346  0.49833498  0.87293578  1
  In  In52  1  0.66005580  0.83248489  0.38398357  1
  In  In53  1  0.65160742  0.82830470  0.87750334  1
  In  In54  1  0.16937399  0.00010813  0.13494120  1
  In  In55  1  0.16117766  0.00625430  0.62372048  1
  In  In56  1  0.16658513  0.33715431  0.13037139  1
  In  In57  1  0.18945876  0.32597476  0.62672350  1
  In  In58  1  0.17245091  0.65411124  0.12819132  1
  In  In59  1  0.16403057  0.66005509  0.62921375  1
  In  In60  1  0.49546804  0.00288897  0.12960848  1
  In  In61  1  0.50188594  0.01181562  0.62989635  1
  In  In62  1  0.50276108  0.32740869  0.13157212  1
  In  In63  1  0.49557936  0.32447948  0.62180556  1
  In  In64  1  0.49264457  0.68474958  0.13047780  1
  In  In65  1  0.51271460  0.67320780  0.60213247  1
  In  In66  1  0.83069487  0.00369553  0.13451697  1
  In  In67  1  0.83194034  -0.00504133  0.62398979  1
  In  In68  1  0.83127937  0.33483416  0.13451739  1
  In  In69  1  0.82343603  0.31950224  0.61989864  1
  In  In70  1  0.83023848  0.66698458  0.13673424  1
  In  In71  1  0.82890115  0.68692892  0.62040654  1
  In  In72  1  0.82117555  0.15660363  0.49157908  1
  In  In73  1  0.49949527  0.50103529  0.00183809  1
  In  In74  1  0.33224192  0.66686051  0.74302209  1
  In  In75  1  -0.00231444  0.33069724  0.75251161  1
  In  In76  1  0.82820173  0.50242059  0.50270779  1
  In  In77  1  0.67328228  0.66798800  0.74600504  1
  In  In78  1  0.17620939  0.16499740  0.00182261  1
  In  In79  1  0.82907851  0.83313627  -0.00591735  1
  In  In80  1  0.83132809  0.49978648  -0.00008261  1
  In  In81  1  0.17660965  0.49545427  0.50525466  1
  In  In82  1  0.82533186  0.17073089  0.00490616  1
  In  In83  1  0.17798637  0.82873798  0.00256700  1
  In  In84  1  0.17060426  0.83573868  0.49088523  1
  In  In85  1  0.33574495  0.66863629  0.25332262  1
  Cu  Cu86  1  0.00695589  0.65968142  0.00473615  1
  Cu  Cu87  1  0.34502916  0.00507864  -0.00142927  1
  Cu  Cu88  1  0.82849557  0.16039259  0.74336541  1
  Cu  Cu89  1  0.50553691  0.83618379  0.25893959  1
  Cu  Cu90  1  0.17423783  0.16790468  0.25125041  1
  Cu  Cu91  1  0.66185244  0.00277953  0.50347420  1
  Cu  Cu92  1  0.16914121  0.49768207  0.25119372  1
  Cu  Cu93  1  0.49864493  0.16157499  0.25655319  1
  Cu  Cu94  1  0.16157927  0.83882713  0.25515918  1
  Cu  Cu95  1  0.83661528  0.16499015  0.25557787  1
  Cu  Cu96  1  -0.00109148  -0.00519833  0.49850171  1
  Cu  Cu97  1  0.49607011  0.49521077  0.74227366  1
  Cu  Cu98  1  0.83609977  0.50139236  0.74757337  1
  Cu  Cu99  1  0.83949003  0.83702799  0.74655385  1
  Cu  Cu100  1  0.00236604  -0.00321470  -0.00138898  1
  Cu  Cu101  1  0.65779211  0.67798426  0.00997115  1
  Cu  Cu102  1  0.00430787  0.32687740  0.49158191  1
  Cu  Cu103  1  0.50391779  0.83994400  0.74557881  1
  Cu  Cu104  1  0.50353552  0.49621029  0.25275572  1
  Cu  Cu105  1  0.00776121  0.34055648  0.00776516  1
  Cu  Cu106  1  0.83199840  0.50578973  0.25584020  1
  Cu  Cu107  1  0.16416876  0.16220898  0.74476014  1
  Cu  Cu108  1  -0.00124536  0.67033458  0.49662916  1
  Cu  Cu109  1  0.64808071  0.00589355  0.00209406  1
  Cu  Cu110  1  0.65484738  0.32462298  -0.00174258  1
  Cu  Cu111  1  0.34041784  0.32812313  0.49827124  1
  Cu  Cu112  1  0.16424654  0.50231496  0.75352835  1
  Cu  Cu113  1  0.82647998  0.83483346  0.25431870  1
  Cu  Cu114  1  0.16770685  0.83568720  0.74468520  1
  Se  Se115  1  0.07831001  0.07798873  0.06019421  1
  Se  Se116  1  0.08166853  0.08209324  0.54722949  1
  Se  Se117  1  0.08977305  0.42381882  0.05880090  1
  Se  Se118  1  0.08086683  0.40125213  0.55932759  1
  Se  Se119  1  0.07719945  0.74966003  0.06336013  1
  Se  Se120  1  0.08212029  0.74724048  0.55744121  1
  Se  Se121  1  0.42245013  0.08890688  0.05551065  1
  Se  Se122  1  0.42239668  0.08379581  0.55357804  1
  Se  Se123  1  0.41315257  0.41005249  0.06167204  1
  Se  Se124  1  0.42038832  0.41552223  0.55064006  1
  Se  Se125  1  0.40780661  0.74330812  0.05335945  1
  Se  Se126  1  0.42222891  0.75372362  0.54006244  1
  Se  Se127  1  0.73682735  0.07653511  0.06213761  1
  Se  Se128  1  0.73709235  0.08551997  0.56663619  1
  Se  Se129  1  0.73954195  0.40441079  0.05606048  1
  Se  Se130  1  0.73870754  0.40187126  0.55119222  1
  Se  Se131  1  0.74552433  0.75354203  0.06587639  1
  Se  Se132  1  0.73999036  0.73634288  0.54343424  1
  Se  Se133  1  0.25919335  0.25475449  0.06381639  1
  Se  Se134  1  0.25352483  0.24583177  0.54924041  1
  Se  Se135  1  0.25906334  0.59894268  0.05173242  1
  Se  Se136  1  0.26177918  0.59383895  0.56030349  1
  Se  Se137  1  0.26091127  0.92864519  0.06000076  1
  Se  Se138  1  0.25266388  0.92495773  0.55539941  1
  Se  Se139  1  0.57447447  0.24464032  0.05497010  1
  Se  Se140  1  0.57971577  0.24208504  0.55356699  1
  Se  Se141  1  0.58820536  0.58695460  0.06761609  1
  Se  Se142  1  0.59947832  0.58782662  0.54219551  1
  Se  Se143  1  0.57391979  0.91650716  0.05746773  1
  Se  Se144  1  0.58187596  0.92112448  0.56141066  1
  Se  Se145  1  0.92478449  0.25787450  0.06190483  1
  Se  Se146  1  0.91982416  0.24897727  0.54990377  1
  Se  Se147  1  0.91898936  0.58693714  0.06340589  1
  Se  Se148  1  0.92753600  0.58698646  0.56104268  1
  Se  Se149  1  0.91766010  0.92227087  0.05778847  1
  Se  Se150  1  0.91295175  0.91493356  0.55136621  1
  Se  Se151  1  0.09005777  0.24292425  0.44410899  1
  Se  Se152  1  0.07904739  0.25608952  0.94397204  1
  Se  Se153  1  0.08133840  0.58476747  0.44399247  1
  Se  Se154  1  0.08775180  0.57911098  0.94904102  1
  Se  Se155  1  0.07837174  0.92291073  0.43170496  1
  Se  Se156  1  0.08654743  0.92080857  0.94062009  1
  Se  Se157  1  0.42374770  0.24635167  0.44374450  1
  Se  Se158  1  0.40611473  0.25598116  0.93606066  1
  Se  Se159  1  0.41104290  0.58240555  0.45696404  1
  Se  Se160  1  0.41460784  0.59098283  0.93743375  1
  Se  Se161  1  0.41190415  0.92189725  0.45589318  1
  Se  Se162  1  0.42036528  0.91381414  0.94599124  1
  Se  Se163  1  0.73707761  0.25820951  0.43970979  1
  Se  Se164  1  0.73636505  0.24732443  0.93715853  1
  Se  Se165  1  0.74740808  0.58113296  0.43135849  1
  Se  Se166  1  0.73678203  0.59846619  0.94732431  1
  Se  Se167  1  0.74607770  0.91635825  0.45315658  1
  Se  Se168  1  0.73488349  0.92954614  0.94314063  1
  Se  Se169  1  0.24796791  0.08372880  0.44958242  1
  Se  Se170  1  0.25933997  0.07681986  0.93692353  1
  Se  Se171  1  0.25842744  0.40904825  0.43785230  1
  Se  Se172  1  0.24501136  0.42253437  0.95379490  1
  Se  Se173  1  0.26030316  0.73647279  0.44018787  1
  Se  Se174  1  0.26131830  0.74553512  0.93450258  1
  Se  Se175  1  0.57942150  0.08571427  0.45015763  1
  Se  Se176  1  0.57357118  0.08828279  0.94132207  1
  Se  Se177  1  0.56763929  0.42763280  0.44175524  1
  Se  Se178  1  0.58497599  0.41268252  0.93718031  1
  Se  Se179  1  0.55985879  0.76916856  0.45116709  1
  Se  Se180  1  0.57469452  0.75765706  0.95530573  1
  Se  Se181  1  0.92022575  0.07456305  0.43435670  1
  Se  Se182  1  0.92118010  0.08109942  0.94374339  1
  Se  Se183  1  0.92044423  0.41128832  0.44063871  1
  Se  Se184  1  0.92317023  0.40753208  0.94109980  1
  Se  Se185  1  0.91504680  0.75630351  0.44883626  1
  Se  Se186  1  0.92876729  0.74022499  0.94273020  1
  Se  Se187  1  0.25824083  0.24784172  0.30658983  1
  Se  Se188  1  0.24472451  0.24886610  0.79764201  1
  Se  Se189  1  0.25015399  0.57290180  0.31491565  1
  Se  Se190  1  0.24927547  0.58082982  0.81142955  1
  Se  Se191  1  0.25460753  0.91132197  0.30666926  1
  Se  Se192  1  0.25320541  0.91927549  0.79533986  1
  Se  Se193  1  0.58561684  0.24928296  0.30222460  1
  Se  Se194  1  0.60280503  0.27137857  0.80507673  1
  Se  Se195  1  0.57630737  0.58951131  0.30613487  1
  Se  Se196  1  0.57630665  0.57601351  0.80320583  1
  Se  Se197  1  0.58604153  0.92198135  0.31253052  1
  Se  Se198  1  0.58834745  0.91549825  0.80392145  1
  Se  Se199  1  0.92134626  0.25197002  0.30341210  1
  Se  Se200  1  0.90514898  0.23784715  0.81097250  1
  Se  Se201  1  0.91861641  0.58953118  0.30500802  1
  Se  Se202  1  0.92026526  0.58332832  0.79961378  1
  Se  Se203  1  0.91371876  0.91893994  0.30387289  1
  Se  Se204  1  0.91977065  0.91904406  0.80412694  1
  Se  Se205  1  0.08798141  0.08227828  0.30097315  1
  Se  Se206  1  0.07878031  0.07913938  0.79643786  1
  Se  Se207  1  0.08320073  0.41465418  0.30369426  1
  Se  Se208  1  0.09022414  0.41578412  0.81397350  1
  Se  Se209  1  0.07886104  0.74807969  0.30016617  1
  Se  Se210  1  0.08777164  0.75080559  0.79985688  1
  Se  Se211  1  0.41609262  0.07762581  0.30977473  1
  Se  Se212  1  0.41909898  0.07379724  0.79682617  1
  Se  Se213  1  0.41683656  0.40989969  0.29910071  1
  Se  Se214  1  0.40747436  0.42029004  0.79687420  1
  Se  Se215  1  0.42726244  0.74955138  0.31682367  1
  Se  Se216  1  0.42581228  0.75441400  0.80455531  1
  Se  Se217  1  0.74913121  0.08405493  0.30711841  1
  Se  Se218  1  0.74864015  0.07602048  0.79924923  1
  Se  Se219  1  0.74837241  0.41524795  0.30150553  1
  Se  Se220  1  0.74927949  0.42059832  0.79858938  1
  Se  Se221  1  0.74489600  0.75442840  0.31150142  1
  Se  Se222  1  0.76050764  0.75856878  0.81185225  1
  Se  Se223  1  0.25615518  0.08021699  0.20047935  1
  Se  Se224  1  0.25024029  0.08537341  0.68933328  1
  Se  Se225  1  0.25456678  0.41818980  0.19737511  1
  Se  Se226  1  0.24773643  0.42464663  0.69622860  1
  Se  Se227  1  0.24364350  0.76001367  0.19275528  1
  Se  Se228  1  0.25043187  0.76280573  0.68131148  1
  Se  Se229  1  0.58241480  0.07982089  0.20017427  1
  Se  Se230  1  0.58051368  0.08278565  0.70852162  1
  Se  Se231  1  0.58639023  0.41156319  0.19909882  1
  Se  Se232  1  0.58052895  0.41310423  0.69009782  1
  Se  Se233  1  0.58340165  0.75056844  0.20211707  1
  Se  Se234  1  0.58026803  0.75400147  0.68661943  1
  Se  Se235  1  0.91928306  0.08158313  0.20092642  1
  Se  Se236  1  0.91501375  0.07703657  0.69478445  1
  Se  Se237  1  0.91337324  0.41991429  0.20048149  1
  Se  Se238  1  0.91058218  0.41741703  0.68523633  1
  Se  Se239  1  0.91321941  0.75251113  0.20159807  1
  Se  Se240  1  0.91858093  0.74810197  0.69514216  1
  Se  Se241  1  0.08775702  0.25224478  0.20007636  1
  Se  Se242  1  0.08214718  0.24409476  0.68544210  1
  Se  Se243  1  0.08592100  0.58451188  0.20073754  1
  Se  Se244  1  0.08094202  0.58730439  0.70314251  1
  Se  Se245  1  0.07931355  0.92241391  0.20063660  1
  Se  Se246  1  0.08163374  0.91911527  0.69224850  1
  Se  Se247  1  0.41842593  0.24698753  0.20094130  1
  Se  Se248  1  0.40163398  0.26276773  0.69347194  1
  Se  Se249  1  0.42170837  0.57532593  0.19077236  1
  Se  Se250  1  0.43058776  0.58708023  0.68144817  1
  Se  Se251  1  0.41959744  0.91548104  0.20233201  1
  Se  Se252  1  0.41647775  0.91932244  0.69407127  1
  Se  Se253  1  0.75221466  0.24465612  0.19782075  1
  Se  Se254  1  0.74786579  0.25275659  0.69884641  1
  Se  Se255  1  0.74454973  0.58706262  0.20372591  1
  Se  Se256  1  0.75705956  0.57651553  0.68239748  1
  Se  Se257  1  0.74634716  0.92209948  0.20133780  1
  Se  Se258  1  0.74916197  0.91030536  0.69245050  1
