# generated using pymatgen
data_In86Cu29Se144
_symmetry_space_group_name_H-M   'P 1'
_cell_length_a   17.59545165
_cell_length_b   17.58593886
_cell_length_c   23.45343862
_cell_angle_alpha   89.99739777
_cell_angle_beta   90.00344889
_cell_angle_gamma   89.98932806
_symmetry_Int_Tables_number   1
_chemical_formula_structural   In86Cu29Se144
_chemical_formula_sum   'In86 Cu29 Se144'
_cell_volume   7257.25686402
_cell_formula_units_Z   1
loop_
 _symmetry_equiv_pos_site_id
 _symmetry_equiv_pos_as_xyz
  1  'x, y, z'
loop_
 _atom_site_type_symbol
 _atom_site_label
 _atom_site_symmetry_multiplicity
 _atom_site_fract_x
 _atom_site_fract_y
 _atom_site_fract_z
 _atom_site_occupancy
  In  In0  1  0.01052347  0.16701105  0.12753923  1
  In  In1  1  0.00330340  0.17197034  0.61569823  1
  In  In2  1  0.00069646  0.49823391  0.12429198  1
  In  In3  1  -0.00044135  0.50682139  0.62047752  1
  In  In4  1  -0.00252665  0.81620782  0.12653549  1
  In  In5  1  -0.01708512  0.82419743  0.62087100  1
  In  In6  1  0.33041081  0.18037556  0.12467951  1
  In  In7  1  0.32437723  0.17135068  0.63630865  1
  In  In8  1  0.34142495  0.51637180  0.11905083  1
  In  In9  1  0.32176948  0.49675832  0.62771918  1
  In  In10  1  0.32444708  0.82057784  0.11753286  1
  In  In11  1  0.34783770  0.83199291  0.62599429  1
  In  In12  1  0.68089479  0.16846183  0.12600923  1
  In  In13  1  0.66262933  0.15838362  0.62286769  1
  In  In14  1  0.66774261  0.50431749  0.12333194  1
  In  In15  1  0.68287465  0.50242942  0.62478060  1
  In  In16  1  0.65351969  0.82022396  0.11540808  1
  In  In17  1  0.66544983  0.82990192  0.62657343  1
  In  In18  1  0.17765369  0.00391857  0.38349889  1
  In  In19  1  0.17791824  -0.00875143  0.87986718  1
  In  In20  1  0.15560868  0.34884072  0.38170237  1
  In  In21  1  0.16566058  0.32604700  0.88679777  1
  In  In22  1  0.14722605  0.64957738  0.36102852  1
  In  In23  1  0.15951301  0.67354170  0.87884010  1
  In  In24  1  0.49188084  -0.00534863  0.37623612  1
  In  In25  1  0.49661939  -0.00622816  0.87114588  1
  In  In26  1  0.51157946  0.33528508  0.36509005  1
  In  In27  1  0.49937307  0.35579945  0.87947713  1
  In  In28  1  0.51281464  0.67155583  0.36177151  1
  In  In29  1  0.50997769  0.66816443  0.88680745  1
  In  In30  1  0.83583231  -0.00447527  0.38414449  1
  In  In31  1  0.82693993  0.00876314  0.86645625  1
  In  In32  1  0.83967050  0.33770619  0.37183064  1
  In  In33  1  0.83051083  0.34979524  0.88393875  1
  In  In34  1  0.83519768  0.66846135  0.37633117  1
  In  In35  1  0.82588761  0.65763028  0.87233364  1
  In  In36  1  -0.00900870  0.17779608  0.38178113  1
  In  In37  1  0.00228486  0.18324814  0.87756540  1
  In  In38  1  0.00271075  0.50333498  0.37406794  1
  In  In39  1  -0.01237917  0.50747086  0.89005558  1
  In  In40  1  -0.01571494  0.81587687  0.36920148  1
  In  In41  1  0.01418660  0.83022967  0.87398326  1
  In  In42  1  0.33213272  0.16155046  0.37977329  1
  In  In43  1  0.32669958  0.16160473  0.87209502  1
  In  In44  1  0.31732409  0.49939744  0.37293198  1
  In  In45  1  0.33693228  0.49524007  0.87987022  1
  In  In46  1  0.34533879  0.83164288  0.38114731  1
  In  In47  1  0.33131089  0.83684575  0.87748830  1
  In  In48  1  0.67372337  0.18097748  0.36882871  1
  In  In49  1  0.67353759  0.16322543  0.86989732  1
  In  In50  1  0.68941759  0.52872312  0.35191660  1
  In  In51  1  0.64733041  0.52475706  0.90914146  1
  In  In52  1  0.68089756  0.81439443  0.38663055  1
  In  In53  1  0.65971185  0.82952540  0.87474575  1
  In  In54  1  0.17355915  0.00287332  0.11770019  1
  In  In55  1  0.16350285  0.01222243  0.62895158  1
  In  In56  1  0.15390542  0.33047209  0.11392966  1
  In  In57  1  0.16810003  0.33631524  0.62525767  1
  In  In58  1  0.16596099  0.66196651  0.12283680  1
  In  In59  1  0.16031710  0.64984166  0.62070661  1
  In  In60  1  0.50642317  -0.02355802  0.11541560  1
  In  In61  1  0.51175812  -0.00788616  0.63520804  1
  In  In62  1  0.52242078  0.36662754  0.11342745  1
  In  In63  1  0.49882393  0.32197075  0.62897414  1
  In  In64  1  0.49681418  0.65643602  0.12512249  1
  In  In65  1  0.50056159  0.68275367  0.62232700  1
  In  In66  1  0.82466810  -0.00303429  0.12280469  1
  In  In67  1  0.82137546  -0.01119462  0.61719461  1
  In  In68  1  0.82138242  0.35079768  0.13287361  1
  In  In69  1  0.84287131  0.34319370  0.61255463  1
  In  In70  1  0.84697030  0.66353121  0.13334130  1
  In  In71  1  0.82897635  0.66353053  0.62765344  1
  In  In72  1  -0.00123348  0.33773558  0.75945476  1
  In  In73  1  0.50195836  0.16333009  0.49811998  1
  In  In74  1  0.33448160  0.66604983  0.74656392  1
  In  In75  1  0.83140114  0.82846591  0.00208042  1
  In  In76  1  -0.00265908  -0.00254820  0.74684685  1
  In  In77  1  0.00233806  -0.00483501  0.26095537  1
  In  In78  1  0.49608529  0.16491320  0.00056877  1
  In  In79  1  0.83672845  0.17137992  -0.00202083  1
  In  In80  1  0.15966600  0.83064922  0.50049088  1
  In  In81  1  0.66481069  0.33567299  0.75326069  1
  In  In82  1  0.66696291  -0.01051160  0.24530799  1
  In  In83  1  0.33364250  -0.00238558  0.25539418  1
  In  In84  1  0.50013053  0.50107088  0.48934355  1
  In  In85  1  0.33390749  0.34068225  0.24291622  1
  Cu  Cu86  1  0.00147803  0.00145346  0.50070501  1
  Cu  Cu87  1  0.67942272  0.33766290  0.49154757  1
  Cu  Cu88  1  0.16623618  0.82679652  0.24368761  1
  Cu  Cu89  1  0.32632420  0.33545162  0.00261295  1
  Cu  Cu90  1  0.84024627  0.16938173  0.25126631  1
  Cu  Cu91  1  0.33544307  0.00298508  0.50573698  1
  Cu  Cu92  1  0.50550877  0.50737509  0.76001977  1
  Cu  Cu93  1  0.82954142  0.50903419  0.75541119  1
  Cu  Cu94  1  0.00428660  0.66648762  0.00578512  1
  Cu  Cu95  1  0.66559733  0.66932194  0.49760999  1
  Cu  Cu96  1  0.17004573  0.16472212  0.75688140  1
  Cu  Cu97  1  0.48893017  0.16630235  0.75274444  1
  Cu  Cu98  1  0.50436670  0.83417951  0.75105591  1
  Cu  Cu99  1  0.16644819  0.82951038  0.75350954  1
  Cu  Cu100  1  0.00995674  -0.00094743  -0.00106637  1
  Cu  Cu101  1  0.32921701  0.33209245  0.50358952  1
  Cu  Cu102  1  0.16482608  0.49770324  0.74826764  1
  Cu  Cu103  1  0.00382608  0.33455263  0.49648605  1
  Cu  Cu104  1  0.16285686  0.50202472  0.24463274  1
  Cu  Cu105  1  0.82734615  0.16599353  0.74257512  1
  Cu  Cu106  1  0.83915693  0.50107508  0.24979726  1
  Cu  Cu107  1  0.33572686  0.66919852  -0.00167584  1
  Cu  Cu108  1  0.50896811  0.17313182  0.24119538  1
  Cu  Cu109  1  0.50046445  0.82387810  0.24953269  1
  Cu  Cu110  1  0.32768486  0.66824472  0.50014807  1
  Cu  Cu111  1  0.82552191  0.82831249  0.74563249  1
  Cu  Cu112  1  0.16553396  0.17890398  0.25273602  1
  Cu  Cu113  1  0.33281114  -0.00156930  -0.00571997  1
  Cu  Cu114  1  0.66485272  -0.00315056  0.50462623  1
  Se  Se115  1  0.08592367  0.08636445  0.05392323  1
  Se  Se116  1  0.08702654  0.08394964  0.55181459  1
  Se  Se117  1  0.08837399  0.42957402  0.05084948  1
  Se  Se118  1  0.08163572  0.41499348  0.55822107  1
  Se  Se119  1  0.08821630  0.75377468  0.05397145  1
  Se  Se120  1  0.07027963  0.73591039  0.55500967  1
  Se  Se121  1  0.40698730  0.07352369  0.06369219  1
  Se  Se122  1  0.41667747  0.08174168  0.56697042  1
  Se  Se123  1  0.41182582  0.41921287  0.05249298  1
  Se  Se124  1  0.41629669  0.41136754  0.55912836  1
  Se  Se125  1  0.42066207  0.74779538  0.05450645  1
  Se  Se126  1  0.41498843  0.75174578  0.54813127  1
  Se  Se127  1  0.74155385  0.07415277  0.04980955  1
  Se  Se128  1  0.74871618  0.08586762  0.55197506  1
  Se  Se129  1  0.75021790  0.42003346  0.05363659  1
  Se  Se130  1  0.75408661  0.42432189  0.54790191  1
  Se  Se131  1  0.74887789  0.73113973  0.05815540  1
  Se  Se132  1  0.74776247  0.74823775  0.55705471  1
  Se  Se133  1  0.24532951  0.24614007  0.05075184  1
  Se  Se134  1  0.25056128  0.24797781  0.55932047  1
  Se  Se135  1  0.24932464  0.58613110  0.04937990  1
  Se  Se136  1  0.25189628  0.57878254  0.55218211  1
  Se  Se137  1  0.25163073  0.91532390  0.05143177  1
  Se  Se138  1  0.25242686  0.92020417  0.56244054  1
  Se  Se139  1  0.59102457  0.25066361  0.05909268  1
  Se  Se140  1  0.59447438  0.26153801  0.55195872  1
  Se  Se141  1  0.57828470  0.57819308  0.05331818  1
  Se  Se142  1  0.58570769  0.58652190  0.55823698  1
  Se  Se143  1  0.59628519  0.91643665  0.04363860  1
  Se  Se144  1  0.58085352  0.91425988  0.55718440  1
  Se  Se145  1  0.91328575  0.25295046  0.07007919  1
  Se  Se146  1  0.91742228  0.25009724  0.54778831  1
  Se  Se147  1  0.91740323  0.58441078  0.05590271  1
  Se  Se148  1  0.89495013  0.56704067  0.55969870  1
  Se  Se149  1  0.92647107  0.92272709  0.05931459  1
  Se  Se150  1  0.91653101  0.91702962  0.55147458  1
  Se  Se151  1  0.08899061  0.24820473  0.44666517  1
  Se  Se152  1  0.07559540  0.25207941  0.95536752  1
  Se  Se153  1  0.08951917  0.57915089  0.44492699  1
  Se  Se154  1  0.08643047  0.58501400  0.94919668  1
  Se  Se155  1  0.07351856  0.92016618  0.43544597  1
  Se  Se156  1  0.08907016  0.91171429  0.94643186  1
  Se  Se157  1  0.41512275  0.26211694  0.44009584  1
  Se  Se158  1  0.40902048  0.25796022  0.94030083  1
  Se  Se159  1  0.40738073  0.59290292  0.43491140  1
  Se  Se160  1  0.41737324  0.58326489  0.94575186  1
  Se  Se161  1  0.41780141  0.91900441  0.45279137  1
  Se  Se162  1  0.41943737  0.91502867  0.94568965  1
  Se  Se163  1  0.75954494  0.24848384  0.44176916  1
  Se  Se164  1  0.73752961  0.25822660  0.94235242  1
  Se  Se165  1  0.74668852  0.58431377  0.44369685  1
  Se  Se166  1  0.77750870  0.56334688  0.94890959  1
  Se  Se167  1  0.74921324  0.91450008  0.44998342  1
  Se  Se168  1  0.75148318  0.92309313  0.93835166  1
  Se  Se169  1  0.25244586  0.08849622  0.45514487  1
  Se  Se170  1  0.24797542  0.08614307  0.94749255  1
  Se  Se171  1  0.24943238  0.41883768  0.45059954  1
  Se  Se172  1  0.24667413  0.42058677  0.94790214  1
  Se  Se173  1  0.24710384  0.74431704  0.43661634  1
  Se  Se174  1  0.25051791  0.75118209  0.94446368  1
  Se  Se175  1  0.59418319  0.07650369  0.43579519  1
  Se  Se176  1  0.58734402  0.07965430  0.93866427  1
  Se  Se177  1  0.59785290  0.41701688  0.43302946  1
  Se  Se178  1  0.58448859  0.40995547  0.95739665  1
  Se  Se179  1  0.57457957  0.74686424  0.44579908  1
  Se  Se180  1  0.59006610  0.75434979  0.95314726  1
  Se  Se181  1  0.91651198  0.08468372  0.44782513  1
  Se  Se182  1  0.92629154  0.07475801  0.93832778  1
  Se  Se183  1  0.92041130  0.41785787  0.44315229  1
  Se  Se184  1  0.94208688  0.38914874  0.94696092  1
  Se  Se185  1  0.91075753  0.75192010  0.44915875  1
  Se  Se186  1  0.92529857  0.74432308  0.94046378  1
  Se  Se187  1  0.25110072  0.25291279  0.31286950  1
  Se  Se188  1  0.24591616  0.25516704  0.80946299  1
  Se  Se189  1  0.24912755  0.58321736  0.29717581  1
  Se  Se190  1  0.24513033  0.58035570  0.80917568  1
  Se  Se191  1  0.24032340  0.90500048  0.31049127  1
  Se  Se192  1  0.25089314  0.91367504  0.80269429  1
  Se  Se193  1  0.59233574  0.25424474  0.29483577  1
  Se  Se194  1  0.56994759  0.24734734  0.81321633  1
  Se  Se195  1  0.56956405  0.56804883  0.29705780  1
  Se  Se196  1  0.58946797  0.58369471  0.81637410  1
  Se  Se197  1  0.57698713  0.90688818  0.31072306  1
  Se  Se198  1  0.58772920  0.91863014  0.80324323  1
  Se  Se199  1  0.92389406  0.25368082  0.30197776  1
  Se  Se200  1  0.89778884  0.24495250  0.80884019  1
  Se  Se201  1  0.91836484  0.58578075  0.30616245  1
  Se  Se202  1  0.92265555  0.58288047  0.80768634  1
  Se  Se203  1  0.89711143  0.90714694  0.30426906  1
  Se  Se204  1  0.90897887  0.90528642  0.80820453  1
  Se  Se205  1  0.09431060  0.09214529  0.31393713  1
  Se  Se206  1  0.08326969  0.08556940  0.81294470  1
  Se  Se207  1  0.08298038  0.41857421  0.30185662  1
  Se  Se208  1  0.08926691  0.42617261  0.81723419  1
  Se  Se209  1  0.07813994  0.75128391  0.29917953  1
  Se  Se210  1  0.08115611  0.74363030  0.79955760  1
  Se  Se211  1  0.42970262  0.09771603  0.30462669  1
  Se  Se212  1  0.41096924  0.07849565  0.80573862  1
  Se  Se213  1  0.41996044  0.42620388  0.30774621  1
  Se  Se214  1  0.41589378  0.42176352  0.80253619  1
  Se  Se215  1  0.41080256  0.74941986  0.30437042  1
  Se  Se216  1  0.42422844  0.75102437  0.81006586  1
  Se  Se217  1  0.75751388  0.08283602  0.30593989  1
  Se  Se218  1  0.74340003  0.08172866  0.79325879  1
  Se  Se219  1  0.75413278  0.41457124  0.30070735  1
  Se  Se220  1  0.74661285  0.42965408  0.81369936  1
  Se  Se221  1  0.73539187  0.73200699  0.30736969  1
  Se  Se222  1  0.74772287  0.74872307  0.80770544  1
  Se  Se223  1  0.24561734  0.09409056  0.19632886  1
  Se  Se224  1  0.24988395  0.07822015  0.70352237  1
  Se  Se225  1  0.24158315  0.42382567  0.18144968  1
  Se  Se226  1  0.24948257  0.41186498  0.70002008  1
  Se  Se227  1  0.25117811  0.74384878  0.19376096  1
  Se  Se228  1  0.24174962  0.75261785  0.68520105  1
  Se  Se229  1  0.57701502  0.08089441  0.18357456  1
  Se  Se230  1  0.58054167  0.09166312  0.69936555  1
  Se  Se231  1  0.58867734  0.42499135  0.19911080  1
  Se  Se232  1  0.57649256  0.42636362  0.68993327  1
  Se  Se233  1  0.58188028  0.74397053  0.19289786  1
  Se  Se234  1  0.58449559  0.74695977  0.69847038  1
  Se  Se235  1  0.91320719  0.08134507  0.19230987  1
  Se  Se236  1  0.91153059  0.08858009  0.68440506  1
  Se  Se237  1  0.92205718  0.41618190  0.19764446  1
  Se  Se238  1  0.90705232  0.42265262  0.69684733  1
  Se  Se239  1  0.91773649  0.75386285  0.20359263  1
  Se  Se240  1  0.91389379  0.74555459  0.69796510  1
  Se  Se241  1  0.08386263  0.25696185  0.19634956  1
  Se  Se242  1  0.08483524  0.24256207  0.69721286  1
  Se  Se243  1  0.07841245  0.58771038  0.19382824  1
  Se  Se244  1  0.07970680  0.58010572  0.69703558  1
  Se  Se245  1  0.09038326  0.91678995  0.18947057  1
  Se  Se246  1  0.08634056  0.90481751  0.68738412  1
  Se  Se247  1  0.43194437  0.25664695  0.18305814  1
  Se  Se248  1  0.41099616  0.25570730  0.70146669  1
  Se  Se249  1  0.40930395  0.58728059  0.19886925  1
  Se  Se250  1  0.42749750  0.57654196  0.68806857  1
  Se  Se251  1  0.41902043  0.90776465  0.19205982  1
  Se  Se252  1  0.41667998  0.91628120  0.70014295  1
  Se  Se253  1  0.75319514  0.24978105  0.19896247  1
  Se  Se254  1  0.75428161  0.25456353  0.68407922  1
  Se  Se255  1  0.75487256  0.58180613  0.19510989  1
  Se  Se256  1  0.74277775  0.58823974  0.70175635  1
  Se  Se257  1  0.75364649  0.89719937  0.18626473  1
  Se  Se258  1  0.74612299  0.91766855  0.69554802  1
