# generated using pymatgen
data_In86Cu29Se144
_symmetry_space_group_name_H-M   'P 1'
_cell_length_a   17.58423721
_cell_length_b   17.58311802
_cell_length_c   23.44052792
_cell_angle_alpha   90.00427845
_cell_angle_beta   89.99596568
_cell_angle_gamma   90.00114908
_symmetry_Int_Tables_number   1
_chemical_formula_structural   In86Cu29Se144
_chemical_formula_sum   'In86 Cu29 Se144'
_cell_volume   7247.47642156
_cell_formula_units_Z   1
loop_
 _symmetry_equiv_pos_site_id
 _symmetry_equiv_pos_as_xyz
  1  'x, y, z'
loop_
 _atom_site_type_symbol
 _atom_site_label
 _atom_site_symmetry_multiplicity
 _atom_site_fract_x
 _atom_site_fract_y
 _atom_site_fract_z
 _atom_site_occupancy
  In  In0  1  0.01025015  0.17527783  0.12302161  1
  In  In1  1  0.00295395  0.16513164  0.63261989  1
  In  In2  1  -0.00532866  0.50639946  0.13003764  1
  In  In3  1  0.00487753  0.48005425  0.62543197  1
  In  In4  1  0.00063274  0.81686971  0.12464314  1
  In  In5  1  0.00699951  0.84834163  0.62178436  1
  In  In6  1  0.32126345  0.16612013  0.13766418  1
  In  In7  1  0.33580790  0.15857161  0.62537325  1
  In  In8  1  0.32724754  0.50017254  0.13001089  1
  In  In9  1  0.32933117  0.50122762  0.61929243  1
  In  In10  1  0.33348076  0.83532615  0.12455913  1
  In  In11  1  0.33449763  0.82732046  0.63122016  1
  In  In12  1  0.66415584  0.15335979  0.12561968  1
  In  In13  1  0.66189563  0.17857986  0.61788152  1
  In  In14  1  0.67759991  0.50315494  0.12898087  1
  In  In15  1  0.66052568  0.50792695  0.61854066  1
  In  In16  1  0.65099125  0.84290101  0.14450203  1
  In  In17  1  0.65860640  0.82505639  0.61209978  1
  In  In18  1  0.17320092  -0.01149429  0.37084017  1
  In  In19  1  0.17386303  0.00300059  0.88360413  1
  In  In20  1  0.17211860  0.33739896  0.36872344  1
  In  In21  1  0.16012411  0.32502995  0.86846075  1
  In  In22  1  0.16323509  0.66033102  0.36799753  1
  In  In23  1  0.18543349  0.67461405  0.87526056  1
  In  In24  1  0.50364927  -0.00313356  0.37267017  1
  In  In25  1  0.47701145  -0.00250606  0.87381418  1
  In  In26  1  0.49176205  0.34591736  0.38885616  1
  In  In27  1  0.49323593  0.34366450  0.87146499  1
  In  In28  1  0.49668887  0.66763481  0.36713391  1
  In  In29  1  0.49421487  0.68067388  0.88116262  1
  In  In30  1  0.81542684  0.00555999  0.36844839  1
  In  In31  1  0.85085920  0.00020945  0.87912981  1
  In  In32  1  0.84390136  0.32159682  0.37106095  1
  In  In33  1  0.84978980  0.32328948  0.88560122  1
  In  In34  1  0.84407045  0.67805946  0.37056437  1
  In  In35  1  0.82194673  0.66399843  0.88300845  1
  In  In36  1  -0.00199536  0.17912679  0.36374120  1
  In  In37  1  0.00793973  0.16670093  0.88003058  1
  In  In38  1  0.00584583  0.50268060  0.37444344  1
  In  In39  1  0.00834017  0.48432200  0.87670936  1
  In  In40  1  0.00627240  0.81933929  0.37601025  1
  In  In41  1  0.00685498  0.85370525  0.87249562  1
  In  In42  1  0.33926042  0.18283334  0.36237286  1
  In  In43  1  0.31922801  0.15127301  0.86725248  1
  In  In44  1  0.33176347  0.50160935  0.37233296  1
  In  In45  1  0.33157045  0.49842600  0.86519217  1
  In  In46  1  0.35541850  0.84089276  0.35596803  1
  In  In47  1  0.33136033  0.83480346  0.88220754  1
  In  In48  1  0.66977272  0.15437514  0.37234374  1
  In  In49  1  0.66944483  0.17913118  0.88014705  1
  In  In50  1  0.64869395  0.49570868  0.37962554  1
  In  In51  1  0.66849938  0.51422028  0.87937663  1
  In  In52  1  0.66229505  0.83789158  0.36816628  1
  In  In53  1  0.65938589  0.81866834  0.87978653  1
  In  In54  1  0.17946122  0.01100058  0.12055583  1
  In  In55  1  0.16585006  -0.00654256  0.63617034  1
  In  In56  1  0.17031945  0.31877275  0.13936322  1
  In  In57  1  0.15756267  0.34332082  0.62493975  1
  In  In58  1  0.16671269  0.66743336  0.12300796  1
  In  In59  1  0.19212260  0.66926405  0.62520399  1
  In  In60  1  0.49977288  -0.01319118  0.13611068  1
  In  In61  1  0.49062975  -0.00962635  0.61403917  1
  In  In62  1  0.49098002  0.32141652  0.13007260  1
  In  In63  1  0.48739202  0.31811180  0.60528941  1
  In  In64  1  0.46930080  0.70643986  0.16499422  1
  In  In65  1  0.48655787  0.66077338  0.61332203  1
  In  In66  1  0.82014969  -0.00028711  0.12316161  1
  In  In67  1  0.84829285  0.00511239  0.62543067  1
  In  In68  1  0.84596901  0.34040043  0.12306020  1
  In  In69  1  0.84174909  0.33549604  0.62713630  1
  In  In70  1  0.83592580  0.66214581  0.13379650  1
  In  In71  1  0.81939160  0.66544518  0.62037667  1
  In  In72  1  0.16686239  0.16732021  0.49123601  1
  In  In73  1  0.65878354  0.66298464  0.74962934  1
  In  In74  1  0.00366403  0.66700485  0.75317021  1
  In  In75  1  0.16594903  0.50225728  0.00434973  1
  In  In76  1  0.50498743  0.50507552  0.00354622  1
  In  In77  1  0.66720511  0.32991012  0.25465397  1
  In  In78  1  0.00132077  0.00051575  0.24556816  1
  In  In79  1  0.17445913  0.82512452  0.50076237  1
  In  In80  1  0.83278566  0.83275015  0.00115406  1
  In  In81  1  0.82941409  0.16368707  0.49697669  1
  In  In82  1  0.66576191  -0.00016465  0.74633218  1
  In  In83  1  0.82637123  0.49680564  0.49985033  1
  In  In84  1  0.49828763  0.16318672  -0.00063018  1
  In  In85  1  0.66535443  0.33851227  0.74393634  1
  Cu  Cu86  1  0.83763639  0.50353026  0.25443230  1
  Cu  Cu87  1  0.49007131  0.83443739  0.75094224  1
  Cu  Cu88  1  0.33509093  -0.00291807  0.00251477  1
  Cu  Cu89  1  0.66491859  0.66736285  0.01077545  1
  Cu  Cu90  1  0.66404809  0.67521010  0.49091692  1
  Cu  Cu91  1  0.17047763  0.50030862  0.74686930  1
  Cu  Cu92  1  0.66248754  -0.00748186  0.49388554  1
  Cu  Cu93  1  0.49267547  0.16933990  0.74216747  1
  Cu  Cu94  1  0.32729271  0.32631262  0.00137304  1
  Cu  Cu95  1  0.32703716  0.33833628  0.49577510  1
  Cu  Cu96  1  0.16611849  0.49948210  0.24903821  1
  Cu  Cu97  1  0.83349975  0.83370424  0.24976803  1
  Cu  Cu98  1  0.34236461  -0.00033432  0.49609294  1
  Cu  Cu99  1  0.48446998  0.50172958  0.74091815  1
  Cu  Cu100  1  0.00090984  0.66101374  0.49635425  1
  Cu  Cu101  1  0.16849896  0.16720102  0.75235672  1
  Cu  Cu102  1  0.66137839  -0.00337759  0.00572769  1
  Cu  Cu103  1  0.33697842  0.66798074  0.49206906  1
  Cu  Cu104  1  0.83776201  0.83652481  0.74440997  1
  Cu  Cu105  1  -0.00625419  0.00141336  0.50183645  1
  Cu  Cu106  1  0.00604525  0.00644950  0.00190755  1
  Cu  Cu107  1  0.49571079  0.49468069  0.25691358  1
  Cu  Cu108  1  0.83873691  0.48766083  0.75621185  1
  Cu  Cu109  1  0.00063400  0.66564749  0.00355110  1
  Cu  Cu110  1  0.68057024  0.33579106  0.00412046  1
  Cu  Cu111  1  0.16909608  0.82752687  0.24704713  1
  Cu  Cu112  1  0.49445771  0.16451706  0.25315189  1
  Cu  Cu113  1  0.84375012  0.16356360  0.75729787  1
  Cu  Cu114  1  0.00200905  0.33353945  0.00183810  1
  Se  Se115  1  0.08965941  0.08957277  0.05449927  1
  Se  Se116  1  0.08164990  0.07678898  0.55855531  1
  Se  Se117  1  0.08143613  0.41048547  0.06555709  1
  Se  Se118  1  0.08480002  0.41801516  0.54737840  1
  Se  Se119  1  0.08723377  0.74991428  0.05049419  1
  Se  Se120  1  0.07916675  0.73947937  0.56173253  1
  Se  Se121  1  0.41328053  0.07901616  0.06569699  1
  Se  Se122  1  0.41976261  0.08876182  0.54969782  1
  Se  Se123  1  0.41061039  0.40723873  0.05718962  1
  Se  Se124  1  0.41342687  0.42125303  0.54868154  1
  Se  Se125  1  0.42579843  0.74865316  0.06565455  1
  Se  Se126  1  0.40958295  0.75649289  0.55110395  1
  Se  Se127  1  0.74768450  0.08420313  0.04940531  1
  Se  Se128  1  0.74068428  0.07091716  0.55940286  1
  Se  Se129  1  0.75695653  0.42302884  0.05760073  1
  Se  Se130  1  0.74053374  0.40321622  0.56134110  1
  Se  Se131  1  0.74576323  0.75207105  0.06798552  1
  Se  Se132  1  0.75229878  0.75098711  0.54627910  1
  Se  Se133  1  0.24932331  0.24738413  0.06120092  1
  Se  Se134  1  0.25171215  0.25383874  0.55768730  1
  Se  Se135  1  0.26468467  0.59180724  0.05407828  1
  Se  Se136  1  0.25145362  0.58649305  0.54644246  1
  Se  Se137  1  0.24854799  0.91519701  0.05399352  1
  Se  Se138  1  0.25587547  0.92628605  0.55752834  1
  Se  Se139  1  0.59010198  0.25755359  0.05772060  1
  Se  Se140  1  0.58494820  0.24841730  0.54255009  1
  Se  Se141  1  0.58326891  0.59090813  0.07119862  1
  Se  Se142  1  0.58436361  0.59084581  0.54820369  1
  Se  Se143  1  0.58274253  0.91370984  0.06109489  1
  Se  Se144  1  0.57677298  0.91047858  0.54667708  1
  Se  Se145  1  0.91825590  0.24909932  0.05388941  1
  Se  Se146  1  0.92453561  0.24999118  0.55711160  1
  Se  Se147  1  0.91513537  0.58708584  0.05716565  1
  Se  Se148  1  0.92096352  0.58410247  0.56128921  1
  Se  Se149  1  0.92542381  0.92284121  0.06069071  1
  Se  Se150  1  0.91198372  0.91426348  0.55191299  1
  Se  Se151  1  0.07356874  0.25965872  0.43951696  1
  Se  Se152  1  0.08920123  0.25315111  0.94880563  1
  Se  Se153  1  0.08858563  0.58311312  0.44521402  1
  Se  Se154  1  0.07956489  0.59081059  0.93813815  1
  Se  Se155  1  0.07935766  0.92061652  0.44544996  1
  Se  Se156  1  0.08668292  0.91875810  0.95054241  1
  Se  Se157  1  0.40885932  0.24843371  0.44669098  1
  Se  Se158  1  0.40984040  0.25271412  0.93749226  1
  Se  Se159  1  0.41973816  0.58318278  0.43962601  1
  Se  Se160  1  0.40888879  0.58358898  0.94051905  1
  Se  Se161  1  0.41865086  0.91197729  0.44110858  1
  Se  Se162  1  0.42165147  0.91334995  0.95299828  1
  Se  Se163  1  0.74215149  0.25748902  0.43930788  1
  Se  Se164  1  0.75742417  0.24670921  0.95156532  1
  Se  Se165  1  0.74695026  0.59123837  0.43562253  1
  Se  Se166  1  0.74819051  0.58343018  0.95688918  1
  Se  Se167  1  0.75057778  0.91518428  0.44062419  1
  Se  Se168  1  0.74174275  0.92233247  0.93846237  1
  Se  Se169  1  0.26001679  0.07617540  0.43609312  1
  Se  Se170  1  0.25438869  0.08903795  0.95403996  1
  Se  Se171  1  0.24518018  0.42104067  0.44201855  1
  Se  Se172  1  0.25323849  0.41150633  0.94024861  1
  Se  Se173  1  0.26058732  0.74959899  0.42923683  1
  Se  Se174  1  0.25213960  0.75127251  0.95249959  1
  Se  Se175  1  0.58317008  0.08243171  0.44416186  1
  Se  Se176  1  0.58730035  0.07311030  0.93630719  1
  Se  Se177  1  0.58505365  0.41531862  0.45652530  1
  Se  Se178  1  0.59410162  0.40830216  0.94256530  1
  Se  Se179  1  0.57834543  0.75345641  0.43633040  1
  Se  Se180  1  0.58080536  0.74851471  0.95584178  1
  Se  Se181  1  0.92339458  0.07873458  0.43438079  1
  Se  Se182  1  0.91937495  0.08797003  0.95011111  1
  Se  Se183  1  0.92064013  0.41070351  0.44233956  1
  Se  Se184  1  0.91918401  0.42164445  0.95131127  1
  Se  Se185  1  0.91957189  0.75106258  0.44994599  1
  Se  Se186  1  0.92531527  0.74738104  0.93770716  1
  Se  Se187  1  0.23531204  0.24158392  0.29956637  1
  Se  Se188  1  0.25447432  0.25257541  0.80217066  1
  Se  Se189  1  0.25222324  0.58371290  0.30016364  1
  Se  Se190  1  0.24967272  0.58643961  0.80037681  1
  Se  Se191  1  0.25197097  0.91344534  0.29741829  1
  Se  Se192  1  0.27375021  0.93954805  0.81729890  1
  Se  Se193  1  0.57198746  0.24688018  0.31536087  1
  Se  Se194  1  0.57474180  0.24437565  0.80472027  1
  Se  Se195  1  0.58377192  0.57864573  0.30337919  1
  Se  Se196  1  0.56547005  0.57391144  0.80833595  1
  Se  Se197  1  0.59535708  0.93296962  0.30012263  1
  Se  Se198  1  0.57822854  0.90877292  0.80933638  1
  Se  Se199  1  0.90667030  0.24244272  0.29292746  1
  Se  Se200  1  0.92514145  0.25015391  0.80847220  1
  Se  Se201  1  0.92350860  0.58703396  0.30631873  1
  Se  Se202  1  0.90958995  0.57816874  0.81426486  1
  Se  Se203  1  0.91646183  0.91150090  0.31174262  1
  Se  Se204  1  0.91552771  0.91982356  0.80046741  1
  Se  Se205  1  0.09174209  0.08549711  0.30883122  1
  Se  Se206  1  0.09031231  0.08390169  0.81143823  1
  Se  Se207  1  0.08164717  0.41780008  0.30296252  1
  Se  Se208  1  0.08580955  0.41599880  0.79905311  1
  Se  Se209  1  0.08237757  0.74695773  0.29956838  1
  Se  Se210  1  0.09186505  0.75918556  0.81029780  1
  Se  Se211  1  0.41333227  0.07887000  0.30608688  1
  Se  Se212  1  0.41501776  0.08412639  0.79799879  1
  Se  Se213  1  0.41346577  0.40896141  0.30779224  1
  Se  Se214  1  0.41063232  0.41186342  0.79651166  1
  Se  Se215  1  0.42474947  0.74638105  0.28876344  1
  Se  Se216  1  0.41137054  0.75107478  0.80769204  1
  Se  Se217  1  0.75883406  0.09877785  0.29626503  1
  Se  Se218  1  0.75352447  0.08806199  0.81193390  1
  Se  Se219  1  0.75609226  0.42394188  0.31500752  1
  Se  Se220  1  0.75165526  0.41629425  0.81673190  1
  Se  Se221  1  0.75089366  0.75072891  0.30432487  1
  Se  Se222  1  0.75727942  0.75637054  0.80428413  1
  Se  Se223  1  0.24806146  0.07498181  0.20426550  1
  Se  Se224  1  0.25000795  0.08412968  0.69615298  1
  Se  Se225  1  0.25164959  0.41387462  0.19924740  1
  Se  Se226  1  0.25134548  0.41695862  0.69094068  1
  Se  Se227  1  0.25161722  0.74555827  0.19251175  1
  Se  Se228  1  0.23095888  0.77089863  0.69693750  1
  Se  Se229  1  0.57846435  0.08420211  0.19763955  1
  Se  Se230  1  0.57709528  0.08982902  0.68547181  1
  Se  Se231  1  0.57544841  0.41785545  0.19167094  1
  Se  Se232  1  0.57168947  0.42443887  0.68501489  1
  Se  Se233  1  0.60417155  0.72956423  0.20392581  1
  Se  Se234  1  0.57101360  0.75415805  0.68981195  1
  Se  Se235  1  0.91238496  0.08689769  0.18426494  1
  Se  Se236  1  0.92356818  0.07937660  0.70173950  1
  Se  Se237  1  0.91783277  0.41938678  0.20000314  1
  Se  Se238  1  0.92253842  0.40865151  0.70149490  1
  Se  Se239  1  0.91901367  0.74840137  0.20075880  1
  Se  Se240  1  0.91172610  0.74932074  0.68638701  1
  Se  Se241  1  0.06901014  0.25610000  0.20377983  1
  Se  Se242  1  0.08815151  0.25049762  0.69577995  1
  Se  Se243  1  0.08615689  0.58560151  0.19383462  1
  Se  Se244  1  0.08891065  0.58002162  0.68671757  1
  Se  Se245  1  0.08965514  0.90858948  0.18584508  1
  Se  Se246  1  0.07605927  0.91764302  0.70163062  1
  Se  Se247  1  0.40972228  0.24977930  0.20315725  1
  Se  Se248  1  0.41377629  0.25566679  0.68863484  1
  Se  Se249  1  0.41511499  0.57484851  0.19915995  1
  Se  Se250  1  0.40623808  0.59133619  0.69017693  1
  Se  Se251  1  0.41022640  0.91250289  0.20153323  1
  Se  Se252  1  0.41556963  0.92115592  0.69395374  1
  Se  Se253  1  0.75047043  0.25006967  0.18438990  1
  Se  Se254  1  0.76045591  0.23819638  0.69436360  1
  Se  Se255  1  0.75021090  0.58424435  0.20419472  1
  Se  Se256  1  0.75733480  0.56809636  0.69663343  1
  Se  Se257  1  0.75135835  0.92198564  0.20115509  1
  Se  Se258  1  0.75058237  0.90738429  0.68378735  1
