# generated using pymatgen
data_In86Cu29Se144
_symmetry_space_group_name_H-M   'P 1'
_cell_length_a   17.58176765
_cell_length_b   17.58468120
_cell_length_c   23.44840885
_cell_angle_alpha   89.98329015
_cell_angle_beta   90.00849347
_cell_angle_gamma   89.98728404
_symmetry_Int_Tables_number   1
_chemical_formula_structural   In86Cu29Se144
_chemical_formula_sum   'In86 Cu29 Se144'
_cell_volume   7249.53882063
_cell_formula_units_Z   1
loop_
 _symmetry_equiv_pos_site_id
 _symmetry_equiv_pos_as_xyz
  1  'x, y, z'
loop_
 _atom_site_type_symbol
 _atom_site_label
 _atom_site_symmetry_multiplicity
 _atom_site_fract_x
 _atom_site_fract_y
 _atom_site_fract_z
 _atom_site_occupancy
  In  In0  1  -0.00305588  0.16681052  0.12172820  1
  In  In1  1  0.00293345  0.17754422  0.62563768  1
  In  In2  1  0.00255197  0.48593754  0.12703637  1
  In  In3  1  -0.00087924  0.49555846  0.62611545  1
  In  In4  1  0.01022836  0.84450896  0.11494872  1
  In  In5  1  0.00045869  0.82504053  0.62737167  1
  In  In6  1  0.34118081  0.17710636  0.12469033  1
  In  In7  1  0.33873912  0.15406921  0.62535906  1
  In  In8  1  0.31910840  0.49858216  0.12341380  1
  In  In9  1  0.30907488  0.50486350  0.62333014  1
  In  In10  1  0.33101617  0.83000741  0.11368880  1
  In  In11  1  0.33818361  0.83959459  0.62660498  1
  In  In12  1  0.65486642  0.15150019  0.12067247  1
  In  In13  1  0.66527195  0.16372146  0.61448787  1
  In  In14  1  0.67864342  0.50373067  0.12849161  1
  In  In15  1  0.70684913  0.49569186  0.62743276  1
  In  In16  1  0.66968295  0.83666616  0.12194014  1
  In  In17  1  0.67529665  0.82953712  0.63634273  1
  In  In18  1  0.14941823  0.00213062  0.37632581  1
  In  In19  1  0.17637155  -0.01082217  0.87932115  1
  In  In20  1  0.17230915  0.33869474  0.37002581  1
  In  In21  1  0.15409971  0.34140806  0.88377512  1
  In  In22  1  0.16716148  0.66963689  0.39396707  1
  In  In23  1  0.15794304  0.67646263  0.87557273  1
  In  In24  1  0.51810163  0.00115675  0.36794975  1
  In  In25  1  0.49850788  0.00035561  0.87769986  1
  In  In26  1  0.48398918  0.33304684  0.37332067  1
  In  In27  1  0.48865942  0.32379223  0.87657928  1
  In  In28  1  0.50778911  0.65840716  0.37421059  1
  In  In29  1  0.51341191  0.67628723  0.87212013  1
  In  In30  1  0.84492336  0.01271649  0.36632659  1
  In  In31  1  0.82371542  0.00868587  0.88132216  1
  In  In32  1  0.84262731  0.31880934  0.38498656  1
  In  In33  1  0.83508148  0.32838629  0.87463338  1
  In  In34  1  0.81801595  0.66736195  0.37951114  1
  In  In35  1  0.84574649  0.67336830  0.86547222  1
  In  In36  1  -0.01308086  0.15886215  0.36654790  1
  In  In37  1  -0.00645459  0.17544307  0.88105790  1
  In  In38  1  0.00914387  0.48961774  0.38182363  1
  In  In39  1  0.01560300  0.51952765  0.85211832  1
  In  In40  1  0.00510797  0.84817295  0.37792165  1
  In  In41  1  0.01057325  0.82072893  0.87978441  1
  In  In42  1  0.32912441  0.18073127  0.37312026  1
  In  In43  1  0.34052042  0.15340384  0.88376391  1
  In  In44  1  0.33205207  0.49223955  0.37876320  1
  In  In45  1  0.32453439  0.48617941  0.87270047  1
  In  In46  1  0.32477609  0.82699148  0.37633030  1
  In  In47  1  0.31803482  0.84997588  0.88053070  1
  In  In48  1  0.67804035  0.16263893  0.37934115  1
  In  In49  1  0.67369097  0.15546305  0.88123553  1
  In  In50  1  0.66510452  0.51109266  0.37767136  1
  In  In51  1  0.66883196  0.50549907  0.86678518  1
  In  In52  1  0.66489361  0.83325564  0.36668574  1
  In  In53  1  0.66453077  0.83839031  0.87971237  1
  In  In54  1  0.15588531  -0.00599642  0.11960424  1
  In  In55  1  0.18197624  0.00401332  0.63088647  1
  In  In56  1  0.16662980  0.33074442  0.12480792  1
  In  In57  1  0.14941563  0.33721773  0.63144328  1
  In  In58  1  0.16844403  0.66719830  0.11341298  1
  In  In59  1  0.15699999  0.65534209  0.61819521  1
  In  In60  1  0.51124722  0.01095136  0.12202943  1
  In  In61  1  0.50334376  0.00322870  0.62705059  1
  In  In62  1  0.49838416  0.31003112  0.13065473  1
  In  In63  1  0.51877652  0.32873921  0.61607540  1
  In  In64  1  0.50327670  0.67909738  0.12083750  1
  In  In65  1  0.50198540  0.67826519  0.62856214  1
  In  In66  1  0.83428917  0.00150279  0.12204925  1
  In  In67  1  0.82395276  -0.00738085  0.62632853  1
  In  In68  1  0.84785758  0.33520935  0.12650069  1
  In  In69  1  0.84208698  0.34099867  0.60362972  1
  In  In70  1  0.82032878  0.66885580  0.12694219  1
  In  In71  1  0.86140622  0.63988640  0.65541983  1
  In  In72  1  0.16582116  0.16687077  0.50203816  1
  In  In73  1  0.32713767  0.67249481  0.75262661  1
  In  In74  1  0.32786167  0.32541723  0.74386657  1
  In  In75  1  0.84115039  0.49851106  -0.00145468  1
  In  In76  1  0.49606556  0.83633466  0.50439215  1
  In  In77  1  -0.00461180  0.67016247  0.25120003  1
  In  In78  1  0.33496522  0.00651735  0.24480563  1
  In  In79  1  0.49595428  0.49603562  -0.00699561  1
  In  In80  1  0.67658612  0.33197224  0.74583397  1
  In  In81  1  0.66643954  0.33211003  0.25399050  1
  In  In82  1  0.49666503  0.50283115  0.50152380  1
  In  In83  1  0.83619968  0.83207097  0.50411907  1
  In  In84  1  0.00385427  -0.00270962  0.75489965  1
  In  In85  1  0.33766327  0.66251012  0.25487699  1
  Cu  Cu86  1  0.34019034  0.00252143  0.50278432  1
  Cu  Cu87  1  0.50247784  0.50524004  0.74497435  1
  Cu  Cu88  1  0.66834959  0.67320305  -0.00172641  1
  Cu  Cu89  1  0.16222434  0.83447874  0.24535219  1
  Cu  Cu90  1  0.17046873  0.16803498  0.75318013  1
  Cu  Cu91  1  0.67567598  0.00184553  0.49695747  1
  Cu  Cu92  1  0.50076703  0.84526892  0.75249469  1
  Cu  Cu93  1  0.50861078  0.83638043  0.24215529  1
  Cu  Cu94  1  0.67029748  0.66451466  0.50770064  1
  Cu  Cu95  1  0.15556964  0.17012384  0.24758002  1
  Cu  Cu96  1  0.50907211  0.15860745  0.75052012  1
  Cu  Cu97  1  0.32956818  -0.00074959  0.00324416  1
  Cu  Cu98  1  0.32662649  0.33571219  0.50008185  1
  Cu  Cu99  1  0.83071963  0.16678363  0.24706972  1
  Cu  Cu100  1  -0.00148892  0.66418629  -0.00602273  1
  Cu  Cu101  1  -0.00475441  0.00299972  -0.00412341  1
  Cu  Cu102  1  0.00196711  0.33336861  0.49909262  1
  Cu  Cu103  1  0.33032808  0.32680612  0.00093891  1
  Cu  Cu104  1  0.82957275  0.83998582  0.24886566  1
  Cu  Cu105  1  0.66619115  0.32201032  -0.00147358  1
  Cu  Cu106  1  0.66315857  -0.00195181  0.00119490  1
  Cu  Cu107  1  0.82783354  0.83756920  0.75671656  1
  Cu  Cu108  1  0.83382642  0.50059815  0.25190190  1
  Cu  Cu109  1  0.83256381  0.16595196  0.75275332  1
  Cu  Cu110  1  0.33057444  0.66546069  -0.00524994  1
  Cu  Cu111  1  0.00495931  0.33362131  0.00074558  1
  Cu  Cu112  1  0.16438175  0.49517230  0.25034442  1
  Cu  Cu113  1  0.50158792  0.49979191  0.25381695  1
  Cu  Cu114  1  -0.00753828  0.66123860  0.50816223  1
  Se  Se115  1  0.07935219  0.08379351  0.05226048  1
  Se  Se116  1  0.08142292  0.07618706  0.56407813  1
  Se  Se117  1  0.08784415  0.41850173  0.05357294  1
  Se  Se118  1  0.08416238  0.41689327  0.55304101  1
  Se  Se119  1  0.08183766  0.74888035  0.04885128  1
  Se  Se120  1  0.07842189  0.74895988  0.55289746  1
  Se  Se121  1  0.41230831  0.08153332  0.05828112  1
  Se  Se122  1  0.42592666  0.08468288  0.55282919  1
  Se  Se123  1  0.41347631  0.40932309  0.06048271  1
  Se  Se124  1  0.40731851  0.41168714  0.56458220  1
  Se  Se125  1  0.41609416  0.74602821  0.04788143  1
  Se  Se126  1  0.40541251  0.73922630  0.55553136  1
  Se  Se127  1  0.74868232  0.08310062  0.05252442  1
  Se  Se128  1  0.75913109  0.08127911  0.55251172  1
  Se  Se129  1  0.74388061  0.40772374  0.05616648  1
  Se  Se130  1  0.72593221  0.39615568  0.55002367  1
  Se  Se131  1  0.75385054  0.75322777  0.05200176  1
  Se  Se132  1  0.75389463  0.74083493  0.56726675  1
  Se  Se133  1  0.24700693  0.24521054  0.05562093  1
  Se  Se134  1  0.25293587  0.25664274  0.56689389  1
  Se  Se135  1  0.24937166  0.57987515  0.04740410  1
  Se  Se136  1  0.24791600  0.58631734  0.54688200  1
  Se  Se137  1  0.24269872  0.91339995  0.05172546  1
  Se  Se138  1  0.25675265  0.92226470  0.55675767  1
  Se  Se139  1  0.57974892  0.24489573  0.05294662  1
  Se  Se140  1  0.57875596  0.23898052  0.54415758  1
  Se  Se141  1  0.59090957  0.58317546  0.05454406  1
  Se  Se142  1  0.58811655  0.58438963  0.56688424  1
  Se  Se143  1  0.57930519  0.91491652  0.05504882  1
  Se  Se144  1  0.59879858  0.91818371  0.55865596  1
  Se  Se145  1  0.91578356  0.25291009  0.05108771  1
  Se  Se146  1  0.92167442  0.24138320  0.54665948  1
  Se  Se147  1  0.92502970  0.59034129  0.06430991  1
  Se  Se148  1  0.90770441  0.58011651  0.56081001  1
  Se  Se149  1  0.91456649  0.91767679  0.05089370  1
  Se  Se150  1  0.92681100  0.92443312  0.56059929  1
  Se  Se151  1  0.07944713  0.25213616  0.43607428  1
  Se  Se152  1  0.08690357  0.24451047  0.95094909  1
  Se  Se153  1  0.07833671  0.58140845  0.45191224  1
  Se  Se154  1  0.08052866  0.58083434  0.94020906  1
  Se  Se155  1  0.09418815  0.91076338  0.45053343  1
  Se  Se156  1  0.08061946  0.91735487  0.94558486  1
  Se  Se157  1  0.41056534  0.25182299  0.44900906  1
  Se  Se158  1  0.41863247  0.24427407  0.95179106  1
  Se  Se159  1  0.40672459  0.59573907  0.44169007  1
  Se  Se160  1  0.40981759  0.58857628  0.93137217  1
  Se  Se161  1  0.41482674  0.92533569  0.43538741  1
  Se  Se162  1  0.41416162  0.91830615  0.94738223  1
  Se  Se163  1  0.74703394  0.25125012  0.45023016  1
  Se  Se164  1  0.75509087  0.24660512  0.94472724  1
  Se  Se165  1  0.75057554  0.57953218  0.45313789  1
  Se  Se166  1  0.74782004  0.58891073  0.94084592  1
  Se  Se167  1  0.75019682  0.91742813  0.43643736  1
  Se  Se168  1  0.75031930  0.91689103  0.94953857  1
  Se  Se169  1  0.25670245  0.07770833  0.43951785  1
  Se  Se170  1  0.24548970  0.08180375  0.94968137  1
  Se  Se171  1  0.24300621  0.41838480  0.44801829  1
  Se  Se172  1  0.24961598  0.41511454  0.95042467  1
  Se  Se173  1  0.24761199  0.76133067  0.45361436  1
  Se  Se174  1  0.24642618  0.75153306  0.94447907  1
  Se  Se175  1  0.58676559  0.08028348  0.44496402  1
  Se  Se176  1  0.58015192  0.08407877  0.94823158  1
  Se  Se177  1  0.58076081  0.41356700  0.43773060  1
  Se  Se178  1  0.59324590  0.40662185  0.93600396  1
  Se  Se179  1  0.59203049  0.74475789  0.44616991  1
  Se  Se180  1  0.57971454  0.75575511  0.95030976  1
  Se  Se181  1  0.92608255  0.07533797  0.44464640  1
  Se  Se182  1  0.91108571  0.08958436  0.94768846  1
  Se  Se183  1  0.91454944  0.41773475  0.44851258  1
  Se  Se184  1  0.93084044  0.41544276  0.93587685  1
  Se  Se185  1  0.92436206  0.74244015  0.43912267  1
  Se  Se186  1  0.91281309  0.74934560  0.94601137  1
  Se  Se187  1  0.24463041  0.24982080  0.29903048  1
  Se  Se188  1  0.24935612  0.24541256  0.81779555  1
  Se  Se189  1  0.23792989  0.58024380  0.31240442  1
  Se  Se190  1  0.24097597  0.57681638  0.80945357  1
  Se  Se191  1  0.24455298  0.91443818  0.30509414  1
  Se  Se192  1  0.24667203  0.91725312  0.79944571  1
  Se  Se193  1  0.57823424  0.24405250  0.31397429  1
  Se  Se194  1  0.58270274  0.24649567  0.80915293  1
  Se  Se195  1  0.58798405  0.58559779  0.29998298  1
  Se  Se196  1  0.58271324  0.58686800  0.80097859  1
  Se  Se197  1  0.59183769  0.91954666  0.29467841  1
  Se  Se198  1  0.58611454  0.92316537  0.80823211  1
  Se  Se199  1  0.91231253  0.25268531  0.30079622  1
  Se  Se200  1  0.91696431  0.24927019  0.80324032  1
  Se  Se201  1  0.91227748  0.57960602  0.31513521  1
  Se  Se202  1  0.90714706  0.57993691  0.79462376  1
  Se  Se203  1  0.91920218  0.91480186  0.30328739  1
  Se  Se204  1  0.91167379  0.91404895  0.81796495  1
  Se  Se205  1  0.07845667  0.08111807  0.30014060  1
  Se  Se206  1  0.08967196  0.09043638  0.81552985  1
  Se  Se207  1  0.07885096  0.41355335  0.30265107  1
  Se  Se208  1  0.08042683  0.40549205  0.80287513  1
  Se  Se209  1  0.09264216  0.75182940  0.31108317  1
  Se  Se210  1  0.07432457  0.74313767  0.80007716  1
  Se  Se211  1  0.42037361  0.09033478  0.31090123  1
  Se  Se212  1  0.41928116  0.08464323  0.80526902  1
  Se  Se213  1  0.41114051  0.42095099  0.30218076  1
  Se  Se214  1  0.42507605  0.41968610  0.80156674  1
  Se  Se215  1  0.43003489  0.76097963  0.30813460  1
  Se  Se216  1  0.41917740  0.76260501  0.81125276  1
  Se  Se217  1  0.74815928  0.08352483  0.30115277  1
  Se  Se218  1  0.74788091  0.08247841  0.80265254  1
  Se  Se219  1  0.75601941  0.42056460  0.31476216  1
  Se  Se220  1  0.76434706  0.42654818  0.80413570  1
  Se  Se221  1  0.75240836  0.74993565  0.30197529  1
  Se  Se222  1  0.74471079  0.75263524  0.80967657  1
  Se  Se223  1  0.23756276  0.09013009  0.18679312  1
  Se  Se224  1  0.25800806  0.08696016  0.70325185  1
  Se  Se225  1  0.24914936  0.41417783  0.19654434  1
  Se  Se226  1  0.23408680  0.42620326  0.70082115  1
  Se  Se227  1  0.24649732  0.75139493  0.19172471  1
  Se  Se228  1  0.24160726  0.75297849  0.68502271  1
  Se  Se229  1  0.57618920  0.08971000  0.20058311  1
  Se  Se230  1  0.59338873  0.08331250  0.69224202  1
  Se  Se231  1  0.57749117  0.42153425  0.18820771  1
  Se  Se232  1  0.58480574  0.42556136  0.68727300  1
  Se  Se233  1  0.59039973  0.74776673  0.19261953  1
  Se  Se234  1  0.57985146  0.75526918  0.70133880  1
  Se  Se235  1  0.91539506  0.08449964  0.19274870  1
  Se  Se236  1  0.91417254  0.08546349  0.69175833  1
  Se  Se237  1  0.91857371  0.41714684  0.20182684  1
  Se  Se238  1  0.90669729  0.40990406  0.68554734  1
  Se  Se239  1  0.91204731  0.76092873  0.18766136  1
  Se  Se240  1  0.91664279  0.75989187  0.70400426  1
  Se  Se241  1  0.07548986  0.25411011  0.19192401  1
  Se  Se242  1  0.08142545  0.24773788  0.70334768  1
  Se  Se243  1  0.09087370  0.58261963  0.19105255  1
  Se  Se244  1  0.07485401  0.58688817  0.69293903  1
  Se  Se245  1  0.07782649  0.91905124  0.19633897  1
  Se  Se246  1  0.09240427  0.91175135  0.69247129  1
  Se  Se247  1  0.41077352  0.24975874  0.20477947  1
  Se  Se248  1  0.43287197  0.24403809  0.69003051  1
  Se  Se249  1  0.42414116  0.57762938  0.18686209  1
  Se  Se250  1  0.41419841  0.57880297  0.68836835  1
  Se  Se251  1  0.41854804  0.90847787  0.18606914  1
  Se  Se252  1  0.41751680  0.92342022  0.69547520  1
  Se  Se253  1  0.75173524  0.24766642  0.18601815  1
  Se  Se254  1  0.76097412  0.24258795  0.68353635  1
  Se  Se255  1  0.74995016  0.58591735  0.20257694  1
  Se  Se256  1  0.73083340  0.60328488  0.69757901  1
  Se  Se257  1  0.74863798  0.92137704  0.19207552  1
  Se  Se258  1  0.74669993  0.92285407  0.70432564  1
