# generated using pymatgen
data_In86Cu29Se144
_symmetry_space_group_name_H-M   'P 1'
_cell_length_a   17.57085213
_cell_length_b   17.56555687
_cell_length_c   23.42346913
_cell_angle_alpha   89.98142817
_cell_angle_beta   89.96349887
_cell_angle_gamma   90.00197349
_symmetry_Int_Tables_number   1
_chemical_formula_structural   In86Cu29Se144
_chemical_formula_sum   'In86 Cu29 Se144'
_cell_volume   7229.45987994
_cell_formula_units_Z   1
loop_
 _symmetry_equiv_pos_site_id
 _symmetry_equiv_pos_as_xyz
  1  'x, y, z'
loop_
 _atom_site_type_symbol
 _atom_site_label
 _atom_site_symmetry_multiplicity
 _atom_site_fract_x
 _atom_site_fract_y
 _atom_site_fract_z
 _atom_site_occupancy
  In  In0  1  -0.00105220  0.16684032  0.13596143  1
  In  In1  1  -0.00128056  0.18310692  0.62064419  1
  In  In2  1  0.00362307  0.50261014  0.12816538  1
  In  In3  1  0.00004012  0.50577371  0.61612704  1
  In  In4  1  0.00003213  0.82852774  0.12678225  1
  In  In5  1  -0.00978390  0.82051808  0.62729197  1
  In  In6  1  0.34674827  0.17442187  0.11914330  1
  In  In7  1  0.34078570  0.16402024  0.63595722  1
  In  In8  1  0.33596334  0.49712973  0.11546241  1
  In  In9  1  0.32910803  0.50486990  0.63738784  1
  In  In10  1  0.31895788  0.82649091  0.11420858  1
  In  In11  1  0.33028387  0.83157115  0.63495382  1
  In  In12  1  0.65744663  0.18206006  0.11497953  1
  In  In13  1  0.66686224  0.17098948  0.62951867  1
  In  In14  1  0.68546841  0.51771564  0.09735294  1
  In  In15  1  0.66476941  0.49588201  0.62402752  1
  In  In16  1  0.65048206  0.80500156  0.10372242  1
  In  In17  1  0.67826803  0.84187570  0.63271885  1
  In  In18  1  0.16039657  0.01244304  0.37546196  1
  In  In19  1  0.17286861  -0.01930960  0.87787720  1
  In  In20  1  0.17596400  0.34818433  0.36795563  1
  In  In21  1  0.18572784  0.34061679  0.87925787  1
  In  In22  1  0.15200404  0.64798116  0.36120085  1
  In  In23  1  0.16747019  0.66220859  0.87817246  1
  In  In24  1  0.49901928  -0.00723716  0.37151726  1
  In  In25  1  0.50142285  -0.00237234  0.87543497  1
  In  In26  1  0.50142079  0.35040307  0.36983369  1
  In  In27  1  0.49900002  0.33320743  0.88311197  1
  In  In28  1  0.50109529  0.66561070  0.36114347  1
  In  In29  1  0.49613456  0.67754991  0.88635489  1
  In  In30  1  0.84087467  -0.00504806  0.37461228  1
  In  In31  1  0.81797612  -0.00185688  0.87037379  1
  In  In32  1  0.83771942  0.32453068  0.38181529  1
  In  In33  1  0.82900227  0.35100578  0.88053874  1
  In  In34  1  0.83271986  0.65802465  0.36930532  1
  In  In35  1  0.83576644  0.65185141  0.88623118  1
  In  In36  1  -0.00672463  0.16131986  0.36880506  1
  In  In37  1  0.00028249  0.17060264  0.87332585  1
  In  In38  1  0.00552880  0.50414726  0.37104453  1
  In  In39  1  -0.00855786  0.51055352  0.88586795  1
  In  In40  1  -0.00920534  0.82812953  0.36209001  1
  In  In41  1  0.01446413  0.81634238  0.88493826  1
  In  In42  1  0.32230891  0.17263579  0.37535190  1
  In  In43  1  0.35949531  0.18332398  0.86774416  1
  In  In44  1  0.32826475  0.49561593  0.36647159  1
  In  In45  1  0.32940019  0.49708504  0.88178769  1
  In  In46  1  0.34226238  0.82300140  0.37169121  1
  In  In47  1  0.33365384  0.82756582  0.87524038  1
  In  In48  1  0.66931942  0.18451037  0.38240998  1
  In  In49  1  0.65508297  0.16133748  0.86960442  1
  In  In50  1  0.67237602  0.51263560  0.37469380  1
  In  In51  1  0.66626112  0.49016254  0.89532401  1
  In  In52  1  0.67634294  0.82445086  0.37080763  1
  In  In53  1  0.65678394  0.83460998  0.89071481  1
  In  In54  1  0.16680559  -0.00908911  0.12447145  1
  In  In55  1  0.17405689  0.00507480  0.62859018  1
  In  In56  1  0.16304564  0.33670143  0.12763783  1
  In  In57  1  0.16428129  0.34622858  0.62799999  1
  In  In58  1  0.16736450  0.66567708  0.12609658  1
  In  In59  1  0.16908673  0.65703434  0.63022141  1
  In  In60  1  0.50286242  -0.00303293  0.11495334  1
  In  In61  1  0.49785927  0.00532730  0.63661701  1
  In  In62  1  0.49862991  0.33596362  0.11123656  1
  In  In63  1  0.50315878  0.33494725  0.63587642  1
  In  In64  1  0.49562710  0.66090875  0.11703207  1
  In  In65  1  0.49077854  0.65419956  0.63261387  1
  In  In66  1  0.84406168  -0.00903709  0.13016499  1
  In  In67  1  0.82003812  -0.00057764  0.62924476  1
  In  In68  1  0.83207960  0.35542350  0.12103571  1
  In  In69  1  0.82353413  0.33684831  0.61258018  1
  In  In70  1  0.83383198  0.66703914  0.12501307  1
  In  In71  1  0.84059787  0.66809577  0.62582154  1
  In  In72  1  0.83294111  0.82490062  0.49544213  1
  In  In73  1  0.65964789  0.67071057  0.76110434  1
  In  In74  1  0.66458829  0.34497100  0.23972496  1
  In  In75  1  0.32738585  -0.00017040  0.24931666  1
  In  In76  1  0.50693663  0.50023117  0.49855373  1
  In  In77  1  0.50185867  0.17157004  0.51314572  1
  In  In78  1  0.17443450  0.16542426  -0.00022266  1
  In  In79  1  0.49865758  0.83212606  0.49345895  1
  In  In80  1  0.82868700  0.16327853  -0.00292033  1
  In  In81  1  0.00072423  0.33993419  0.74471323  1
  In  In82  1  0.00045797  -0.00769050  0.74352216  1
  In  In83  1  0.16483468  0.82604377  0.50414444  1
  In  In84  1  0.67286417  -0.00561979  0.24894606  1
  In  In85  1  0.16414384  0.17414616  0.50058100  1
  Cu  Cu86  1  0.49704897  0.82112789  0.23552588  1
  Cu  Cu87  1  0.33624323  0.33640956  0.49925454  1
  Cu  Cu88  1  0.83437118  0.17058950  0.25185405  1
  Cu  Cu89  1  0.17267820  0.50156040  0.24335822  1
  Cu  Cu90  1  0.83025156  0.82452076  0.24396614  1
  Cu  Cu91  1  0.83489340  0.83001209  0.75507659  1
  Cu  Cu92  1  0.17104845  0.81968404  0.75670652  1
  Cu  Cu93  1  0.32552101  0.67150473  0.00087848  1
  Cu  Cu94  1  0.50422511  0.17078331  0.75443370  1
  Cu  Cu95  1  0.32894904  0.65867190  0.50250844  1
  Cu  Cu96  1  0.16402700  0.83248582  0.24313620  1
  Cu  Cu97  1  0.49694560  0.17280547  0.24078023  1
  Cu  Cu98  1  0.00290524  0.66485898  0.00717599  1
  Cu  Cu99  1  0.16658069  0.49974246  0.75399488  1
  Cu  Cu100  1  0.49665847  0.50121502  0.24021213  1
  Cu  Cu101  1  0.66915638  -0.00504937  -0.00178612  1
  Cu  Cu102  1  -0.00213886  0.34215717  0.49492795  1
  Cu  Cu103  1  0.83826912  0.50226551  0.24547215  1
  Cu  Cu104  1  0.33673549  -0.00309318  -0.00705566  1
  Cu  Cu105  1  -0.00509794  0.00005049  0.49416448  1
  Cu  Cu106  1  0.82689523  0.50133493  0.75762430  1
  Cu  Cu107  1  0.49576834  0.49513332  0.76007963  1
  Cu  Cu108  1  0.00025145  0.33865420  0.00561446  1
  Cu  Cu109  1  0.66301738  0.00870215  0.50760349  1
  Cu  Cu110  1  0.17878226  0.15864484  0.75737314  1
  Cu  Cu111  1  -0.00209351  -0.00903538  0.00200543  1
  Cu  Cu112  1  0.16514925  0.17425157  0.25187963  1
  Cu  Cu113  1  0.50088800  0.83643786  0.75987431  1
  Cu  Cu114  1  0.82510173  0.17537975  0.74728917  1
  Se  Se115  1  0.07420301  0.08073641  0.05793925  1
  Se  Se116  1  0.07389685  0.07573737  0.55847493  1
  Se  Se117  1  0.08559409  0.42033574  0.05676816  1
  Se  Se118  1  0.08439194  0.41608478  0.55253159  1
  Se  Se119  1  0.08710004  0.75205339  0.05661872  1
  Se  Se120  1  0.07247578  0.73468017  0.55888431  1
  Se  Se121  1  0.41387544  0.07920576  0.05167999  1
  Se  Se122  1  0.40789203  0.07310436  0.55909564  1
  Se  Se123  1  0.43536792  0.43688286  0.04410039  1
  Se  Se124  1  0.41472692  0.41500067  0.56211849  1
  Se  Se125  1  0.41529580  0.75336589  0.05111503  1
  Se  Se126  1  0.40972410  0.74262152  0.55901190  1
  Se  Se127  1  0.74426678  0.07389861  0.06415195  1
  Se  Se128  1  0.74997919  0.08854357  0.55868582  1
  Se  Se129  1  0.72405065  0.38870625  0.05304061  1
  Se  Se130  1  0.76189649  0.44333322  0.55195344  1
  Se  Se131  1  0.77377017  0.76470176  0.05398927  1
  Se  Se132  1  0.73858271  0.74613881  0.56024931  1
  Se  Se133  1  0.25909836  0.26282792  0.05500900  1
  Se  Se134  1  0.26010915  0.25619435  0.56280488  1
  Se  Se135  1  0.24635395  0.58389170  0.05403921  1
  Se  Se136  1  0.25071612  0.57535124  0.55900501  1
  Se  Se137  1  0.24718563  0.92200224  0.04783069  1
  Se  Se138  1  0.25710758  0.92009972  0.55847789  1
  Se  Se139  1  0.56191162  0.23548097  0.04353039  1
  Se  Se140  1  0.59461289  0.26961023  0.55896128  1
  Se  Se141  1  0.59570218  0.60910815  0.04334378  1
  Se  Se142  1  0.58776550  0.59783449  0.55922442  1
  Se  Se143  1  0.58043886  0.91114717  0.04641995  1
  Se  Se144  1  0.58463417  0.92156035  0.56193529  1
  Se  Se145  1  0.92000437  0.25099626  0.05974896  1
  Se  Se146  1  0.91697437  0.25605915  0.54885367  1
  Se  Se147  1  0.91765751  0.57988528  0.05786356  1
  Se  Se148  1  0.90245813  0.57819237  0.55335792  1
  Se  Se149  1  0.91520421  0.90948187  0.05540889  1
  Se  Se150  1  0.91837894  0.92151954  0.55922148  1
  Se  Se151  1  0.07871497  0.25908548  0.43486969  1
  Se  Se152  1  0.07760408  0.25849115  0.94301708  1
  Se  Se153  1  0.09224926  0.57659336  0.44391375  1
  Se  Se154  1  0.08622648  0.58231692  0.95133377  1
  Se  Se155  1  0.07538045  0.91705818  0.43858750  1
  Se  Se156  1  0.08688903  0.91184685  0.95084040  1
  Se  Se157  1  0.41737939  0.25743902  0.44033122  1
  Se  Se158  1  0.42611213  0.24131824  0.95397360  1
  Se  Se159  1  0.41417234  0.58846816  0.43827885  1
  Se  Se160  1  0.40872511  0.58982001  0.94678863  1
  Se  Se161  1  0.40262251  0.92675389  0.44226919  1
  Se  Se162  1  0.42000105  0.91023056  0.94272012  1
  Se  Se163  1  0.75310098  0.25141147  0.45441123  1
  Se  Se164  1  0.74145281  0.25285101  0.93777327  1
  Se  Se165  1  0.74894820  0.59263204  0.44581751  1
  Se  Se166  1  0.75697986  0.57140798  0.95706789  1
  Se  Se167  1  0.73788823  0.92530691  0.44395367  1
  Se  Se168  1  0.75742905  0.91428891  0.94829300  1
  Se  Se169  1  0.25727823  0.07667502  0.44791061  1
  Se  Se170  1  0.25981279  0.08109680  0.93248590  1
  Se  Se171  1  0.25472942  0.41992827  0.44517946  1
  Se  Se172  1  0.24563605  0.42321147  0.95596551  1
  Se  Se173  1  0.25377381  0.74042496  0.43949022  1
  Se  Se174  1  0.24338509  0.75471631  0.94545682  1
  Se  Se175  1  0.58326424  0.07981897  0.44095201  1
  Se  Se176  1  0.58579441  0.07902852  0.94555586  1
  Se  Se177  1  0.59926235  0.40903990  0.44135520  1
  Se  Se178  1  0.55639480  0.43228759  0.95611648  1
  Se  Se179  1  0.58927490  0.73915453  0.43864068  1
  Se  Se180  1  0.60015313  0.72972352  0.95547962  1
  Se  Se181  1  0.91186995  0.08587093  0.44401087  1
  Se  Se182  1  0.92449872  0.07308958  0.93857111  1
  Se  Se183  1  0.91659535  0.42359851  0.43919614  1
  Se  Se184  1  0.91359148  0.42031436  0.95372096  1
  Se  Se185  1  0.92872334  0.73943664  0.43979157  1
  Se  Se186  1  0.91891784  0.74363566  0.94924070  1
  Se  Se187  1  0.25410753  0.25547390  0.30127074  1
  Se  Se188  1  0.25376911  0.25071653  0.80791874  1
  Se  Se189  1  0.25624683  0.58652386  0.29714602  1
  Se  Se190  1  0.25069164  0.58047637  0.80853790  1
  Se  Se191  1  0.23903031  0.90898051  0.31198655  1
  Se  Se192  1  0.25339974  0.91098051  0.80197325  1
  Se  Se193  1  0.57951435  0.24806631  0.30345495  1
  Se  Se194  1  0.58293257  0.25964350  0.80702653  1
  Se  Se195  1  0.58354049  0.57520102  0.29911165  1
  Se  Se196  1  0.57685814  0.57572082  0.82064145  1
  Se  Se197  1  0.57350427  0.89942052  0.30176360  1
  Se  Se198  1  0.59094688  0.91311123  0.81061531  1
  Se  Se199  1  0.91749856  0.25534183  0.30367299  1
  Se  Se200  1  0.90774466  0.25120265  0.80784882  1
  Se  Se201  1  0.92145466  0.58489355  0.29970095  1
  Se  Se202  1  0.91521833  0.58270583  0.80732886  1
  Se  Se203  1  0.90830332  0.91570150  0.29652673  1
  Se  Se204  1  0.91952023  0.90960689  0.81419065  1
  Se  Se205  1  0.08259381  0.08404295  0.29982707  1
  Se  Se206  1  0.08809816  0.08176997  0.80982034  1
  Se  Se207  1  0.08664889  0.42076430  0.29910678  1
  Se  Se208  1  0.08416925  0.42125458  0.81507187  1
  Se  Se209  1  0.08247522  0.74928470  0.29880227  1
  Se  Se210  1  0.08102475  0.73960652  0.80493940  1
  Se  Se211  1  0.42285466  0.09299680  0.30655597  1
  Se  Se212  1  0.42129786  0.08022503  0.80315827  1
  Se  Se213  1  0.41619812  0.41735686  0.29656524  1
  Se  Se214  1  0.41181352  0.41186093  0.81269302  1
  Se  Se215  1  0.41221132  0.74472671  0.29453652  1
  Se  Se216  1  0.41943438  0.74605918  0.80628903  1
  Se  Se217  1  0.75153947  0.09341747  0.31201093  1
  Se  Se218  1  0.74779937  0.08729141  0.80070563  1
  Se  Se219  1  0.75761795  0.42106259  0.30707073  1
  Se  Se220  1  0.74036588  0.42291572  0.81072863  1
  Se  Se221  1  0.74858507  0.74145393  0.29904136  1
  Se  Se222  1  0.75592317  0.75436327  0.81982836  1
  Se  Se223  1  0.24454069  0.09558318  0.18731701  1
  Se  Se224  1  0.25832864  0.07557873  0.70148291  1
  Se  Se225  1  0.25532823  0.41744798  0.19022202  1
  Se  Se226  1  0.24962810  0.41279728  0.70247359  1
  Se  Se227  1  0.25245151  0.75072936  0.19471876  1
  Se  Se228  1  0.25340870  0.73884783  0.69855720  1
  Se  Se229  1  0.58137598  0.08757632  0.18970468  1
  Se  Se230  1  0.58713772  0.08695655  0.69940822  1
  Se  Se231  1  0.58200475  0.43309751  0.17573262  1
  Se  Se232  1  0.58354248  0.42468284  0.70011398  1
  Se  Se233  1  0.58514012  0.73778712  0.18886788  1
  Se  Se234  1  0.57538067  0.75886375  0.69156249  1
  Se  Se235  1  0.91398616  0.08118652  0.20066550  1
  Se  Se236  1  0.91282034  0.09614266  0.69052867  1
  Se  Se237  1  0.92102309  0.41405195  0.19640005  1
  Se  Se238  1  0.90459408  0.42638571  0.69011429  1
  Se  Se239  1  0.92115818  0.74295586  0.19677600  1
  Se  Se240  1  0.91590842  0.74415495  0.70327042  1
  Se  Se241  1  0.08047977  0.25623878  0.19870018  1
  Se  Se242  1  0.09680733  0.23860752  0.69631364  1
  Se  Se243  1  0.08387933  0.58708184  0.19777043  1
  Se  Se244  1  0.08028003  0.57415857  0.69518841  1
  Se  Se245  1  0.07972133  0.91983643  0.19547352  1
  Se  Se246  1  0.09587993  0.89853276  0.68881874  1
  Se  Se247  1  0.41998498  0.26168539  0.18983683  1
  Se  Se248  1  0.41712100  0.25360170  0.70219809  1
  Se  Se249  1  0.41163063  0.58401677  0.18835000  1
  Se  Se250  1  0.41370840  0.58236658  0.70861118  1
  Se  Se251  1  0.41730051  0.91276555  0.18648818  1
  Se  Se252  1  0.41763981  0.91430563  0.69998498  1
  Se  Se253  1  0.75655305  0.24547632  0.18698685  1
  Se  Se254  1  0.74956035  0.26273544  0.69201745  1
  Se  Se255  1  0.74914469  0.57539849  0.18794029  1
  Se  Se256  1  0.74909247  0.58529372  0.69665453  1
  Se  Se257  1  0.74512207  0.89939992  0.18330359  1
  Se  Se258  1  0.75229667  0.92008365  0.70801142  1
