# generated using pymatgen
data_In86Cu29Se144
_symmetry_space_group_name_H-M   'P 1'
_cell_length_a   17.57706603
_cell_length_b   17.57605756
_cell_length_c   23.44080668
_cell_angle_alpha   90.01531921
_cell_angle_beta   89.99610323
_cell_angle_gamma   89.99566954
_symmetry_Int_Tables_number   1
_chemical_formula_structural   In86Cu29Se144
_chemical_formula_sum   'In86 Cu29 Se144'
_cell_volume   7241.69760140
_cell_formula_units_Z   1
loop_
 _symmetry_equiv_pos_site_id
 _symmetry_equiv_pos_as_xyz
  1  'x, y, z'
loop_
 _atom_site_type_symbol
 _atom_site_label
 _atom_site_symmetry_multiplicity
 _atom_site_fract_x
 _atom_site_fract_y
 _atom_site_fract_z
 _atom_site_occupancy
  In  In0  1  -0.00000020  0.17273774  0.11935426  1
  In  In1  1  0.00324040  0.16557881  0.63416263  1
  In  In2  1  0.00152149  0.49694270  0.13266533  1
  In  In3  1  0.00028345  0.50715060  0.63455199  1
  In  In4  1  0.00024384  0.83742891  0.13621346  1
  In  In5  1  -0.00020380  0.83423311  0.62216483  1
  In  In6  1  0.33551842  0.16540110  0.12252138  1
  In  In7  1  0.32862228  0.17374764  0.63502893  1
  In  In8  1  0.32850836  0.48553100  0.12495632  1
  In  In9  1  0.34138306  0.49034657  0.62359275  1
  In  In10  1  0.34350241  0.85112269  0.13044516  1
  In  In11  1  0.34087420  0.84266090  0.61832331  1
  In  In12  1  0.66501616  0.17207124  0.12312887  1
  In  In13  1  0.65350719  0.16620888  0.62827156  1
  In  In14  1  0.64724393  0.49332378  0.11994721  1
  In  In15  1  0.67487417  0.51127359  0.60332458  1
  In  In16  1  0.66750174  0.83689902  0.13453971  1
  In  In17  1  0.67562815  0.84032291  0.61312555  1
  In  In18  1  0.15957936  -0.00714657  0.37091378  1
  In  In19  1  0.17389409  0.00897570  0.86928359  1
  In  In20  1  0.16465607  0.33468046  0.36726192  1
  In  In21  1  0.15230442  0.31814805  0.86731725  1
  In  In22  1  0.16777008  0.68168271  0.37932626  1
  In  In23  1  0.16608132  0.67116912  0.87057978  1
  In  In24  1  0.49536977  -0.01264569  0.36096191  1
  In  In25  1  0.50768124  0.00762247  0.86931074  1
  In  In26  1  0.49933900  0.33043631  0.36568386  1
  In  In27  1  0.49963788  0.33705027  0.88587638  1
  In  In28  1  0.50660726  0.66559704  0.38802317  1
  In  In29  1  0.49161014  0.64250312  0.87430088  1
  In  In30  1  0.82448095  -0.01298416  0.36958171  1
  In  In31  1  0.84286553  0.00769916  0.86716782  1
  In  In32  1  0.83748693  0.33908933  0.36800085  1
  In  In33  1  0.84366568  0.32041430  0.88338280  1
  In  In34  1  0.83451100  0.65429010  0.38483621  1
  In  In35  1  0.84332071  0.65914556  0.87173234  1
  In  In36  1  0.00304795  0.16771651  0.36485541  1
  In  In37  1  0.00271234  0.16837931  0.87892181  1
  In  In38  1  -0.01015816  0.49410139  0.36972025  1
  In  In39  1  0.00197126  0.49623378  0.86230387  1
  In  In40  1  -0.00016490  0.82979493  0.37619064  1
  In  In41  1  0.00186537  0.83431479  0.86435504  1
  In  In42  1  0.33624412  0.16723689  0.36617401  1
  In  In43  1  0.33226274  0.16746850  0.87672374  1
  In  In44  1  0.34000701  0.49364055  0.37566563  1
  In  In45  1  0.35300553  0.49292537  0.87671742  1
  In  In46  1  0.33310757  0.83880481  0.38375561  1
  In  In47  1  0.32263549  0.83301802  0.87168105  1
  In  In48  1  0.66308174  0.15974546  0.35983823  1
  In  In49  1  0.67619553  0.16341483  0.88681910  1
  In  In50  1  0.67397770  0.49746842  0.37957176  1
  In  In51  1  0.65727808  0.48065195  0.87581647  1
  In  In52  1  0.65943421  0.83981998  0.38764976  1
  In  In53  1  0.65792798  0.84133396  0.87385867  1
  In  In54  1  0.15738042  0.01448491  0.12978657  1
  In  In55  1  0.17178930  -0.00282349  0.63098353  1
  In  In56  1  0.17478450  0.32638596  0.12766432  1
  In  In57  1  0.17380390  0.34029115  0.63878387  1
  In  In58  1  0.16249839  0.65789615  0.13079479  1
  In  In59  1  0.14349734  0.66514212  0.62847212  1
  In  In60  1  0.48793136  0.00954590  0.13880762  1
  In  In61  1  0.50208683  -0.00216175  0.63250879  1
  In  In62  1  0.49917166  0.32786783  0.12387030  1
  In  In63  1  0.49000915  0.34460738  0.62576019  1
  In  In64  1  0.50269681  0.66830697  0.12488966  1
  In  In65  1  0.50826830  0.67111579  0.60776436  1
  In  In66  1  0.82363889  0.01809118  0.13149766  1
  In  In67  1  0.84236017  -0.00659195  0.62934046  1
  In  In68  1  0.84424761  0.31915570  0.12814722  1
  In  In69  1  0.83310520  0.34579004  0.62258025  1
  In  In70  1  0.83565082  0.67501372  0.13093157  1
  In  In71  1  0.84249275  0.67662326  0.61228789  1
  In  In72  1  0.49800845  0.16769040  0.49297129  1
  In  In73  1  0.83107901  0.83944663  0.00990219  1
  In  In74  1  0.66786047  0.66886198  0.25695609  1
  In  In75  1  0.16816464  0.83485096  -0.00965507  1
  In  In76  1  0.16773531  0.50162744  0.50618305  1
  In  In77  1  0.49827015  0.83683922  0.00652254  1
  In  In78  1  0.82913484  0.49354702  -0.00256191  1
  In  In79  1  0.32907743  0.66891981  0.26224236  1
  In  In80  1  0.33230509  0.66542481  0.74853620  1
  In  In81  1  0.83272905  0.16309733  0.49356660  1
  In  In82  1  0.67164643  0.32944213  0.75389760  1
  In  In83  1  0.16908138  0.16618066  0.51093828  1
  In  In84  1  0.67661812  0.67512287  0.73494512  1
  In  In85  1  0.17001463  0.49089038  0.00101334  1
  Cu  Cu86  1  0.65661027  0.65957837  -0.00108730  1
  Cu  Cu87  1  0.49500174  0.84255875  0.74824605  1
  Cu  Cu88  1  0.16503215  0.16659776  0.75567437  1
  Cu  Cu89  1  0.15312551  0.49761759  0.24912370  1
  Cu  Cu90  1  -0.00411643  0.01377635  -0.00114378  1
  Cu  Cu91  1  0.83792186  0.16737162  0.24550775  1
  Cu  Cu92  1  0.84717174  0.49965879  0.74735235  1
  Cu  Cu93  1  0.66440419  0.33874739  0.49182222  1
  Cu  Cu94  1  0.49332260  0.49332596  0.24771844  1
  Cu  Cu95  1  -0.00015067  0.66806023  0.50077955  1
  Cu  Cu96  1  0.83333667  0.83326562  0.74053125  1
  Cu  Cu97  1  0.33210284  0.00472869  -0.00031746  1
  Cu  Cu98  1  0.33325471  0.00224204  0.50028294  1
  Cu  Cu99  1  0.66670407  -0.00315720  0.50051746  1
  Cu  Cu100  1  0.33029007  0.67294213  0.50062820  1
  Cu  Cu101  1  0.17005079  0.83682641  0.25593580  1
  Cu  Cu102  1  0.49581199  0.16413427  0.75297376  1
  Cu  Cu103  1  -0.00337974  0.33601490  0.49612641  1
  Cu  Cu104  1  -0.00445081  -0.01386077  0.49762978  1
  Cu  Cu105  1  0.84292725  0.83329659  0.25560267  1
  Cu  Cu106  1  0.33468617  0.32658438  0.00199112  1
  Cu  Cu107  1  0.83531532  0.16325254  0.75805871  1
  Cu  Cu108  1  0.66722967  0.00839613  0.00236811  1
  Cu  Cu109  1  0.50749965  0.49621907  0.74625748  1
  Cu  Cu110  1  0.00180785  0.66736501  0.00083660  1
  Cu  Cu111  1  0.82808545  0.49908254  0.25082063  1
  Cu  Cu112  1  0.17181659  0.16369697  0.24447075  1
  Cu  Cu113  1  0.16165611  0.83366389  0.74700686  1
  Cu  Cu114  1  0.50174331  0.16841853  0.24246895  1
  Se  Se115  1  0.08715712  0.08921349  0.05087384  1
  Se  Se116  1  0.07034698  0.07178702  0.55837144  1
  Se  Se117  1  0.07593622  0.40807245  0.06134348  1
  Se  Se118  1  0.07780784  0.40684388  0.56222047  1
  Se  Se119  1  0.07982353  0.75001303  0.05957183  1
  Se  Se120  1  0.08412330  0.75229535  0.55186911  1
  Se  Se121  1  0.42052381  0.07907880  0.05551969  1
  Se  Se122  1  0.40996526  0.08517079  0.56131527  1
  Se  Se123  1  0.41504327  0.41362019  0.05469471  1
  Se  Se124  1  0.42427235  0.42391702  0.54813460  1
  Se  Se125  1  0.40304666  0.74664736  0.06119618  1
  Se  Se126  1  0.41822943  0.75771292  0.54859625  1
  Se  Se127  1  0.75324689  0.09192573  0.05248981  1
  Se  Se128  1  0.74287075  0.08148066  0.56043317  1
  Se  Se129  1  0.74708806  0.40911165  0.06430580  1
  Se  Se130  1  0.75520513  0.41429123  0.54451346  1
  Se  Se131  1  0.73494308  0.74011514  0.05903025  1
  Se  Se132  1  0.72724601  0.72628983  0.55624515  1
  Se  Se133  1  0.24842032  0.24491585  0.05334778  1
  Se  Se134  1  0.25870739  0.26476971  0.56039666  1
  Se  Se135  1  0.25455683  0.58854019  0.06002511  1
  Se  Se136  1  0.25574649  0.59464354  0.56614311  1
  Se  Se137  1  0.25092033  0.92291146  0.05802048  1
  Se  Se138  1  0.24731139  0.92164620  0.55400179  1
  Se  Se139  1  0.56863773  0.23622089  0.05449852  1
  Se  Se140  1  0.58772341  0.26019173  0.55529753  1
  Se  Se141  1  0.57065879  0.58098499  0.05148808  1
  Se  Se142  1  0.55908361  0.55947175  0.54813092  1
  Se  Se143  1  0.59083669  0.92659727  0.06380988  1
  Se  Se144  1  0.57737923  0.92206449  0.55586958  1
  Se  Se145  1  0.91315655  0.24662930  0.04844708  1
  Se  Se146  1  0.92192306  0.25031919  0.55741488  1
  Se  Se147  1  0.91797035  0.58937544  0.05866288  1
  Se  Se148  1  0.92416244  0.57784341  0.55547053  1
  Se  Se149  1  0.92566211  0.92974323  0.06328482  1
  Se  Se150  1  0.90849069  0.90959962  0.55262709  1
  Se  Se151  1  0.07980570  0.25202879  0.44303785  1
  Se  Se152  1  0.08557095  0.24915337  0.94846281  1
  Se  Se153  1  0.07858475  0.58519521  0.44001891  1
  Se  Se154  1  0.07940371  0.58653454  0.94123142  1
  Se  Se155  1  0.08705533  0.91068931  0.44560379  1
  Se  Se156  1  0.07123707  0.92715211  0.93900699  1
  Se  Se157  1  0.40446072  0.25930334  0.44039752  1
  Se  Se158  1  0.41866276  0.24399897  0.94746452  1
  Se  Se159  1  0.40675795  0.58643966  0.44514929  1
  Se  Se160  1  0.41374613  0.58030592  0.95284265  1
  Se  Se161  1  0.42221561  0.92550922  0.44598184  1
  Se  Se162  1  0.40947703  0.92053918  0.93966301  1
  Se  Se163  1  0.73986790  0.25093233  0.43438775  1
  Se  Se164  1  0.72839513  0.27893633  0.94188096  1
  Se  Se165  1  0.74029079  0.58589176  0.45172892  1
  Se  Se166  1  0.74024175  0.58902105  0.93638753  1
  Se  Se167  1  0.75664745  0.91538798  0.45181921  1
  Se  Se168  1  0.74526844  0.92444466  0.94298485  1
  Se  Se169  1  0.25293260  0.08235042  0.44067348  1
  Se  Se170  1  0.24652405  0.08514905  0.94641253  1
  Se  Se171  1  0.25039779  0.40889346  0.44337961  1
  Se  Se172  1  0.25709566  0.40445897  0.93737640  1
  Se  Se173  1  0.24609959  0.75888687  0.45200494  1
  Se  Se174  1  0.26252397  0.73472096  0.94455613  1
  Se  Se175  1  0.58985232  0.07578329  0.43767022  1
  Se  Se176  1  0.57900300  0.08386506  0.94724731  1
  Se  Se177  1  0.57667025  0.41420234  0.43705782  1
  Se  Se178  1  0.58248278  0.41780102  0.95541069  1
  Se  Se179  1  0.58510362  0.75046212  0.45454297  1
  Se  Se180  1  0.58104636  0.74400827  0.93863113  1
  Se  Se181  1  0.92594556  0.07442045  0.43615603  1
  Se  Se182  1  0.90797789  0.08993217  0.94464524  1
  Se  Se183  1  0.91147347  0.41784636  0.44508743  1
  Se  Se184  1  0.93311993  0.41453409  0.94307695  1
  Se  Se185  1  0.91583862  0.74878725  0.44609442  1
  Se  Se186  1  0.92081919  0.75113604  0.94372751  1
  Se  Se187  1  0.24878817  0.25000164  0.30159736  1
  Se  Se188  1  0.25392321  0.24972786  0.80440549  1
  Se  Se189  1  0.23479075  0.57264583  0.31398475  1
  Se  Se190  1  0.25266967  0.57407493  0.81325432  1
  Se  Se191  1  0.25685196  0.91721895  0.30813702  1
  Se  Se192  1  0.24674365  0.91521570  0.80117922  1
  Se  Se193  1  0.58495822  0.25175061  0.29663595  1
  Se  Se194  1  0.57861604  0.24344888  0.81296485  1
  Se  Se195  1  0.57235267  0.57482209  0.30871957  1
  Se  Se196  1  0.59148792  0.58025041  0.80140033  1
  Se  Se197  1  0.60579917  0.92360518  0.30674401  1
  Se  Se198  1  0.58562320  0.92069918  0.79942623  1
  Se  Se199  1  0.91815508  0.25268298  0.30110878  1
  Se  Se200  1  0.92014497  0.24967421  0.80566595  1
  Se  Se201  1  0.90975324  0.58420066  0.30432058  1
  Se  Se202  1  0.92587259  0.59090965  0.79734230  1
  Se  Se203  1  0.92603127  0.92023476  0.30577108  1
  Se  Se204  1  0.91439683  0.91494269  0.79931436  1
  Se  Se205  1  0.08788537  0.08280423  0.30091184  1
  Se  Se206  1  0.07800788  0.08238916  0.80575267  1
  Se  Se207  1  0.07286262  0.41076084  0.30194823  1
  Se  Se208  1  0.09129499  0.41766275  0.79992008  1
  Se  Se209  1  0.08492825  0.74999992  0.30403951  1
  Se  Se210  1  0.08197689  0.74547390  0.79900096  1
  Se  Se211  1  0.42032548  0.08512137  0.29952699  1
  Se  Se212  1  0.41128409  0.08082613  0.80577505  1
  Se  Se213  1  0.40771182  0.41078359  0.29954978  1
  Se  Se214  1  0.43032756  0.41277212  0.80364561  1
  Se  Se215  1  0.42623613  0.75438184  0.31665041  1
  Se  Se216  1  0.42732944  0.75401817  0.81061160  1
  Se  Se217  1  0.75776624  0.08100034  0.29952012  1
  Se  Se218  1  0.74393689  0.08459115  0.80706225  1
  Se  Se219  1  0.74402880  0.41610914  0.30300760  1
  Se  Se220  1  0.76522317  0.42348199  0.80989418  1
  Se  Se221  1  0.75905437  0.75609752  0.31597641  1
  Se  Se222  1  0.75776950  0.75798065  0.81007919  1
  Se  Se223  1  0.25836372  0.07896561  0.19475514  1
  Se  Se224  1  0.24862762  0.08495328  0.69945785  1
  Se  Se225  1  0.24376569  0.41847408  0.19933321  1
  Se  Se226  1  0.26531523  0.42024907  0.70000881  1
  Se  Se227  1  0.24727262  0.75749907  0.19175780  1
  Se  Se228  1  0.24511195  0.75586823  0.68619015  1
  Se  Se229  1  0.59104851  0.08332387  0.19562761  1
  Se  Se230  1  0.58335493  0.08268607  0.70150405  1
  Se  Se231  1  0.57977087  0.41217920  0.19628121  1
  Se  Se232  1  0.59531764  0.42342006  0.68600566  1
  Se  Se233  1  0.57192582  0.75765804  0.19907933  1
  Se  Se234  1  0.57379631  0.76206439  0.68658457  1
  Se  Se235  1  0.92552922  0.08594948  0.19323450  1
  Se  Se236  1  0.91638961  0.08230159  0.69849528  1
  Se  Se237  1  0.91218532  0.41653884  0.19651661  1
  Se  Se238  1  0.92288064  0.40799048  0.69592901  1
  Se  Se239  1  0.92184551  0.74639755  0.20169251  1
  Se  Se240  1  0.91786563  0.74745134  0.69126535  1
  Se  Se241  1  0.08528900  0.24709846  0.19359495  1
  Se  Se242  1  0.08611855  0.25110873  0.69871316  1
  Se  Se243  1  0.07376546  0.58933185  0.20146511  1
  Se  Se244  1  0.10101457  0.56656458  0.70167115  1
  Se  Se245  1  0.08875933  0.91972412  0.19888310  1
  Se  Se246  1  0.07847635  0.91805119  0.69385444  1
  Se  Se247  1  0.41197056  0.25089196  0.19422009  1
  Se  Se248  1  0.42284188  0.25320006  0.69671740  1
  Se  Se249  1  0.41420644  0.58162160  0.19326984  1
  Se  Se250  1  0.43263960  0.58579704  0.68933944  1
  Se  Se251  1  0.42552492  0.91188727  0.20691129  1
  Se  Se252  1  0.40669721  0.92297606  0.69771460  1
  Se  Se253  1  0.74938606  0.24979329  0.19583648  1
  Se  Se254  1  0.76063383  0.24034550  0.68949502  1
  Se  Se255  1  0.74756064  0.57722949  0.18799743  1
  Se  Se256  1  0.76325879  0.57356905  0.68502450  1
  Se  Se257  1  0.76221405  0.91230953  0.19585474  1
  Se  Se258  1  0.74570799  0.91688063  0.69242249  1
