# generated using pymatgen
data_In86Cu29Se144
_symmetry_space_group_name_H-M   'P 1'
_cell_length_a   17.53946272
_cell_length_b   17.54358395
_cell_length_c   23.39949726
_cell_angle_alpha   89.99291634
_cell_angle_beta   90.00365130
_cell_angle_gamma   89.97303045
_symmetry_Int_Tables_number   1
_chemical_formula_structural   In86Cu29Se144
_chemical_formula_sum   'In86 Cu29 Se144'
_cell_volume   7200.14229227
_cell_formula_units_Z   1
loop_
 _symmetry_equiv_pos_site_id
 _symmetry_equiv_pos_as_xyz
  1  'x, y, z'
loop_
 _atom_site_type_symbol
 _atom_site_label
 _atom_site_symmetry_multiplicity
 _atom_site_fract_x
 _atom_site_fract_y
 _atom_site_fract_z
 _atom_site_occupancy
  In  In0  1  -0.00224852  0.15177662  0.13213311  1
  In  In1  1  -0.00982335  0.17176759  0.63018172  1
  In  In2  1  0.01168599  0.51224796  0.13470264  1
  In  In3  1  -0.01884453  0.50072310  0.62026154  1
  In  In4  1  -0.00001863  0.83347399  0.12778715  1
  In  In5  1  0.00460902  0.83959277  0.62742750  1
  In  In6  1  0.31903243  0.17091332  0.11952569  1
  In  In7  1  0.35105989  0.16837521  0.62236262  1
  In  In8  1  0.34098868  0.49098089  0.12246813  1
  In  In9  1  0.34491186  0.49280095  0.63485475  1
  In  In10  1  0.34854020  0.83496282  0.11419752  1
  In  In11  1  0.33339130  0.82522167  0.63145279  1
  In  In12  1  0.67032022  0.17163275  0.14635247  1
  In  In13  1  0.68872752  0.19298750  0.59642343  1
  In  In14  1  0.64480284  0.51943604  0.16284639  1
  In  In15  1  0.66635452  0.49826090  0.61889395  1
  In  In16  1  0.66350424  0.83393939  0.13277412  1
  In  In17  1  0.65322209  0.82220010  0.61503726  1
  In  In18  1  0.15937471  -0.00529742  0.36239385  1
  In  In19  1  0.16578023  0.00874756  0.88382092  1
  In  In20  1  0.15583915  0.33518001  0.37680703  1
  In  In21  1  0.16271577  0.32684519  0.86736536  1
  In  In22  1  0.16874733  0.67574689  0.36804968  1
  In  In23  1  0.18275599  0.66683919  0.87897580  1
  In  In24  1  0.49816343  -0.00543298  0.37048770  1
  In  In25  1  0.48645069  -0.00101522  0.87473919  1
  In  In26  1  0.51936840  0.32747676  0.39070582  1
  In  In27  1  0.50995723  0.34983441  0.86415875  1
  In  In28  1  0.52503558  0.64378412  0.38558618  1
  In  In29  1  0.49727225  0.66338388  0.87902423  1
  In  In30  1  0.82839749  0.00197228  0.37453125  1
  In  In31  1  0.84525406  -0.01492448  0.87240759  1
  In  In32  1  0.79664263  0.35490185  0.39949001  1
  In  In33  1  0.83135178  0.33048787  0.86245722  1
  In  In34  1  0.83349257  0.66602682  0.36989542  1
  In  In35  1  0.82404418  0.67652357  0.86858113  1
  In  In36  1  -0.01591888  0.15028964  0.36587113  1
  In  In37  1  0.00799375  0.17271571  0.86700425  1
  In  In38  1  -0.02726129  0.49234925  0.36315670  1
  In  In39  1  0.00922678  0.49007003  0.87087552  1
  In  In40  1  -0.01486208  0.82470013  0.36672520  1
  In  In41  1  0.00327758  0.84878861  0.86901810  1
  In  In42  1  0.35238129  0.17165822  0.37007405  1
  In  In43  1  0.32194072  0.15766073  0.87197190  1
  In  In44  1  0.35283053  0.51142292  0.37056410  1
  In  In45  1  0.35183388  0.51868642  0.86619183  1
  In  In46  1  0.33410593  0.84095087  0.36980873  1
  In  In47  1  0.34031886  0.82080484  0.89008365  1
  In  In48  1  0.67001942  0.16304046  0.37655207  1
  In  In49  1  0.65658870  0.17594397  0.87149429  1
  In  In50  1  0.66588526  0.49863182  0.37021202  1
  In  In51  1  0.65630976  0.49447342  0.86944165  1
  In  In52  1  0.66528178  0.83222617  0.37370903  1
  In  In53  1  0.66352892  0.81264838  0.87153872  1
  In  In54  1  0.16670591  0.00144063  0.12482838  1
  In  In55  1  0.15259302  -0.01769460  0.63178302  1
  In  In56  1  0.18099578  0.33739597  0.11981877  1
  In  In57  1  0.16604704  0.33368770  0.63351421  1
  In  In58  1  0.15269559  0.66788288  0.12707101  1
  In  In59  1  0.17927241  0.68088083  0.63568663  1
  In  In60  1  0.51116563  -0.01546118  0.13782110  1
  In  In61  1  0.51285318  0.01204818  0.61205904  1
  In  In62  1  0.50793065  0.34025258  0.12696748  1
  In  In63  1  0.50512594  0.33911695  0.62047266  1
  In  In64  1  0.49976470  0.66721535  0.12231244  1
  In  In65  1  0.50267737  0.66871605  0.62732910  1
  In  In66  1  0.83929422  0.00781627  0.14748781  1
  In  In67  1  0.83954981  0.00622394  0.61582934  1
  In  In68  1  0.81667971  0.32939311  0.13357681  1
  In  In69  1  0.82866093  0.33670248  0.62118176  1
  In  In70  1  0.82379342  0.66347948  0.14622326  1
  In  In71  1  0.81578616  0.65023989  0.60850310  1
  In  In72  1  0.33920574  0.33562865  0.24533144  1
  In  In73  1  0.49096180  0.16527215  -0.00103062  1
  In  In74  1  0.33496099  0.66798276  0.24514852  1
  In  In75  1  0.83128271  0.16506843  0.01441608  1
  In  In76  1  0.33023369  -0.00083213  0.74870903  1
  In  In77  1  0.16932795  0.83097891  0.50546423  1
  In  In78  1  0.16767499  0.50273421  0.49742304  1
  In  In79  1  0.83105549  0.83212010  0.00663885  1
  In  In80  1  -0.00479145  0.65751442  0.74841414  1
  In  In81  1  0.83059297  0.49848142  0.01157174  1
  In  In82  1  0.17939776  0.50253526  0.00093481  1
  In  In83  1  -0.00815188  0.33296666  0.25193064  1
  In  In84  1  0.67311888  0.00788231  0.74498001  1
  In  In85  1  0.16649827  0.16282298  0.49963807  1
  Cu  Cu86  1  0.00709348  0.00643797  0.00213769  1
  Cu  Cu87  1  0.16454466  0.16122816  0.75057308  1
  Cu  Cu88  1  0.65981925  -0.01001752  0.00908377  1
  Cu  Cu89  1  0.50755653  0.18560919  0.74107030  1
  Cu  Cu90  1  0.50000721  0.50959998  0.74522457  1
  Cu  Cu91  1  0.33627600  0.33593381  -0.00708348  1
  Cu  Cu92  1  0.50033428  0.83332703  0.75067946  1
  Cu  Cu93  1  0.16672824  0.16633587  0.24713135  1
  Cu  Cu94  1  0.66334959  -0.00634461  0.49036708  1
  Cu  Cu95  1  0.49909917  0.16163612  0.25780273  1
  Cu  Cu96  1  0.66189836  0.33619272  0.00071565  1
  Cu  Cu97  1  -0.01573495  0.32957270  0.50128273  1
  Cu  Cu98  1  0.83094458  0.82788451  0.74087214  1
  Cu  Cu99  1  0.50004358  0.82245732  0.25227241  1
  Cu  Cu100  1  0.34023852  0.00284398  0.49333418  1
  Cu  Cu101  1  0.34405333  0.34104871  0.50100379  1
  Cu  Cu102  1  0.83130049  0.83894931  0.25671696  1
  Cu  Cu103  1  0.65694190  0.65458467  0.00339926  1
  Cu  Cu104  1  0.33423175  -0.00546191  0.00303324  1
  Cu  Cu105  1  -0.00809887  -0.00654409  0.49686840  1
  Cu  Cu106  1  0.34711336  0.66616129  0.50652096  1
  Cu  Cu107  1  0.00507429  0.32874802  -0.00602127  1
  Cu  Cu108  1  0.16789116  0.49592809  0.75221669  1
  Cu  Cu109  1  0.83588191  0.16520525  0.74051480  1
  Cu  Cu110  1  0.82522696  0.49298789  0.74088205  1
  Cu  Cu111  1  0.16511500  0.84455126  0.24372859  1
  Cu  Cu112  1  0.66858417  0.67138053  0.49541169  1
  Cu  Cu113  1  -0.00655836  0.66582799  0.49114121  1
  Cu  Cu114  1  0.00354144  0.67503265  0.00406223  1
  Se  Se115  1  0.08660740  0.09225474  0.05650340  1
  Se  Se116  1  0.07555121  0.07109194  0.55930672  1
  Se  Se117  1  0.07694583  0.41595488  0.05734234  1
  Se  Se118  1  0.07647902  0.40758715  0.55650903  1
  Se  Se119  1  0.08550575  0.75940529  0.05521260  1
  Se  Se120  1  0.07618231  0.73383198  0.55916306  1
  Se  Se121  1  0.41469004  0.07210451  0.06631938  1
  Se  Se122  1  0.42059235  0.08898714  0.54571327  1
  Se  Se123  1  0.42044293  0.40873598  0.05258359  1
  Se  Se124  1  0.42183806  0.42883445  0.55377014  1
  Se  Se125  1  0.41834626  0.74024415  0.04881465  1
  Se  Se126  1  0.42142024  0.75777281  0.55870565  1
  Se  Se127  1  0.73857575  0.07142792  0.06927823  1
  Se  Se128  1  0.74819604  0.07583080  0.54580391  1
  Se  Se129  1  0.73237502  0.41557231  0.06731555  1
  Se  Se130  1  0.75145932  0.41924236  0.55026409  1
  Se  Se131  1  0.74380892  0.73396038  0.06209792  1
  Se  Se132  1  0.75198368  0.75671939  0.54772321  1
  Se  Se133  1  0.24967626  0.25449255  0.04389804  1
  Se  Se134  1  0.25595983  0.26063509  0.55621871  1
  Se  Se135  1  0.25928211  0.59354224  0.06584045  1
  Se  Se136  1  0.25524222  0.59030914  0.56352001  1
  Se  Se137  1  0.24782682  0.91491743  0.05701680  1
  Se  Se138  1  0.25981371  0.92875744  0.56013249  1
  Se  Se139  1  0.59231760  0.24344455  0.05939587  1
  Se  Se140  1  0.56630072  0.24188380  0.55045627  1
  Se  Se141  1  0.58795073  0.57023013  0.06734185  1
  Se  Se142  1  0.58590560  0.59195856  0.55527991  1
  Se  Se143  1  0.57722921  0.90413494  0.05798625  1
  Se  Se144  1  0.57926144  0.91344910  0.54677427  1
  Se  Se145  1  0.92456982  0.26116138  0.06552515  1
  Se  Se146  1  0.90747480  0.24161454  0.55508132  1
  Se  Se147  1  0.92222314  0.59662514  0.06465757  1
  Se  Se148  1  0.91149450  0.57789768  0.54224883  1
  Se  Se149  1  0.91625651  0.93369775  0.06163296  1
  Se  Se150  1  0.91665283  0.90740758  0.55447489  1
  Se  Se151  1  0.06928108  0.25028171  0.44248408  1
  Se  Se152  1  0.08834824  0.24564853  0.94332883  1
  Se  Se153  1  0.07856238  0.58763815  0.43240223  1
  Se  Se154  1  0.07535359  0.58532555  0.94329322  1
  Se  Se155  1  0.07828623  0.91546216  0.44019001  1
  Se  Se156  1  0.08212634  0.91691259  0.94727441  1
  Se  Se157  1  0.41876529  0.24885316  0.44908078  1
  Se  Se158  1  0.41456949  0.25638284  0.92973864  1
  Se  Se159  1  0.42426251  0.57851430  0.45225715  1
  Se  Se160  1  0.41653392  0.58296114  0.95084653  1
  Se  Se161  1  0.41804514  0.91127899  0.44371547  1
  Se  Se162  1  0.42287176  0.91566443  0.95110093  1
  Se  Se163  1  0.73568578  0.24583864  0.45556244  1
  Se  Se164  1  0.74704011  0.25505850  0.94425007  1
  Se  Se165  1  0.74821695  0.58711403  0.43910111  1
  Se  Se166  1  0.74728541  0.58661245  0.94186742  1
  Se  Se167  1  0.75273684  0.91142473  0.44277781  1
  Se  Se168  1  0.74019600  0.91899048  0.94097612  1
  Se  Se169  1  0.25283344  0.07629138  0.43324808  1
  Se  Se170  1  0.25400466  0.08533477  0.95334101  1
  Se  Se171  1  0.26051926  0.41299917  0.43632918  1
  Se  Se172  1  0.25759808  0.41543448  0.93039816  1
  Se  Se173  1  0.26166382  0.74064471  0.44528670  1
  Se  Se174  1  0.24178844  0.75256864  0.95481449  1
  Se  Se175  1  0.57793751  0.07865057  0.44009391  1
  Se  Se176  1  0.58945486  0.07478562  0.94267228  1
  Se  Se177  1  0.58566198  0.43085326  0.44987112  1
  Se  Se178  1  0.57952299  0.41988962  0.94685194  1
  Se  Se179  1  0.58046532  0.75454272  0.44622026  1
  Se  Se180  1  0.58360322  0.74667815  0.94882356  1
  Se  Se181  1  0.91139110  0.08341069  0.44783228  1
  Se  Se182  1  0.91813768  0.08174709  0.94280571  1
  Se  Se183  1  0.91230714  0.42302143  0.44942297  1
  Se  Se184  1  0.91689889  0.40986445  0.94191870  1
  Se  Se185  1  0.90890866  0.75349935  0.44429653  1
  Se  Se186  1  0.92079006  0.74744908  0.93949047  1
  Se  Se187  1  0.24342683  0.24748682  0.30889911  1
  Se  Se188  1  0.25103553  0.24501436  0.80043383  1
  Se  Se189  1  0.24649251  0.57414531  0.30638954  1
  Se  Se190  1  0.24932018  0.58487999  0.80172558  1
  Se  Se191  1  0.25447533  0.91994412  0.29785618  1
  Se  Se192  1  0.25435768  0.91570221  0.82091888  1
  Se  Se193  1  0.58070654  0.24715657  0.30960344  1
  Se  Se194  1  0.59304182  0.26279215  0.79706573  1
  Se  Se195  1  0.58379238  0.58081368  0.29786046  1
  Se  Se196  1  0.58238867  0.58947023  0.80486412  1
  Se  Se197  1  0.58220376  0.91267675  0.30167440  1
  Se  Se198  1  0.58175380  0.91747977  0.80825203  1
  Se  Se199  1  0.90680347  0.26731028  0.32849370  1
  Se  Se200  1  0.91927118  0.24847344  0.79774818  1
  Se  Se201  1  0.93495670  0.60551611  0.30095811  1
  Se  Se202  1  0.90278638  0.56809125  0.81008182  1
  Se  Se203  1  0.91855619  0.92595213  0.30331048  1
  Se  Se204  1  0.91595135  0.91215851  0.79229647  1
  Se  Se205  1  0.07890542  0.08392924  0.29703382  1
  Se  Se206  1  0.08395060  0.07542362  0.80450618  1
  Se  Se207  1  0.08887109  0.42727898  0.30527751  1
  Se  Se208  1  0.07936588  0.40846516  0.79616437  1
  Se  Se209  1  0.08762256  0.76009222  0.30153949  1
  Se  Se210  1  0.08273770  0.74367684  0.81235763  1
  Se  Se211  1  0.40974978  0.07394252  0.29978718  1
  Se  Se212  1  0.42826891  0.09742564  0.79957113  1
  Se  Se213  1  0.43209015  0.41298088  0.31055410  1
  Se  Se214  1  0.41646814  0.42165012  0.79722271  1
  Se  Se215  1  0.42474058  0.74216359  0.31619761  1
  Se  Se216  1  0.41959152  0.75454276  0.81013621  1
  Se  Se217  1  0.74523421  0.08001462  0.30384787  1
  Se  Se218  1  0.76214429  0.09178984  0.81303109  1
  Se  Se219  1  0.75940526  0.42031304  0.30515887  1
  Se  Se220  1  0.74244125  0.41401994  0.80050793  1
  Se  Se221  1  0.74673515  0.75004263  0.30295937  1
  Se  Se222  1  0.74401799  0.74677877  0.79235193  1
  Se  Se223  1  0.25194868  0.08533061  0.19371280  1
  Se  Se224  1  0.24251086  0.08860195  0.68283863  1
  Se  Se225  1  0.24074397  0.43000706  0.19591207  1
  Se  Se226  1  0.25367566  0.41334766  0.69977606  1
  Se  Se227  1  0.24652418  0.76139597  0.18717907  1
  Se  Se228  1  0.24733610  0.76609877  0.70790687  1
  Se  Se229  1  0.58345553  0.07931851  0.20332236  1
  Se  Se230  1  0.58679298  0.09931669  0.68487219  1
  Se  Se231  1  0.60258905  0.38859221  0.20129185  1
  Se  Se232  1  0.58210993  0.42245254  0.69285674  1
  Se  Se233  1  0.58350765  0.74181561  0.19642442  1
  Se  Se234  1  0.58595625  0.75143732  0.69790727  1
  Se  Se235  1  0.90203219  0.11319532  0.20876875  1
  Se  Se236  1  0.91879362  0.07363191  0.69558123  1
  Se  Se237  1  0.90983442  0.42681876  0.18754464  1
  Se  Se238  1  0.91647287  0.41217173  0.69387451  1
  Se  Se239  1  0.91364001  0.75781448  0.19849769  1
  Se  Se240  1  0.90767485  0.74137705  0.68125615  1
  Se  Se241  1  0.09149467  0.25256038  0.18795222  1
  Se  Se242  1  0.08148129  0.24664215  0.69723954  1
  Se  Se243  1  0.08622352  0.59298190  0.20646047  1
  Se  Se244  1  0.09010711  0.57236704  0.68560235  1
  Se  Se245  1  0.07598291  0.92599985  0.19386782  1
  Se  Se246  1  0.09203661  0.89437918  0.70570624  1
  Se  Se247  1  0.42573385  0.23721867  0.18705724  1
  Se  Se248  1  0.41439567  0.26200927  0.69235276  1
  Se  Se249  1  0.42571455  0.56916015  0.19477716  1
  Se  Se250  1  0.41181892  0.59518704  0.69795883  1
  Se  Se251  1  0.41486535  0.90593324  0.19888825  1
  Se  Se252  1  0.43170338  0.92084057  0.68816016  1
  Se  Se253  1  0.76303881  0.24313668  0.21236768  1
  Se  Se254  1  0.74798086  0.24717005  0.68946671  1
  Se  Se255  1  0.76082710  0.57170346  0.21706971  1
  Se  Se256  1  0.74603210  0.58310244  0.69162406  1
  Se  Se257  1  0.74559823  0.91855067  0.20087021  1
  Se  Se258  1  0.75115013  0.91103595  0.68211429  1
