# generated using pymatgen
data_In86Cu29Se144
_symmetry_space_group_name_H-M   'P 1'
_cell_length_a   17.55647524
_cell_length_b   17.56128629
_cell_length_c   23.42292598
_cell_angle_alpha   90.01111008
_cell_angle_beta   89.99993930
_cell_angle_gamma   89.98260238
_symmetry_Int_Tables_number   1
_chemical_formula_structural   In86Cu29Se144
_chemical_formula_sum   'In86 Cu29 Se144'
_cell_volume   7221.62227156
_cell_formula_units_Z   1
loop_
 _symmetry_equiv_pos_site_id
 _symmetry_equiv_pos_as_xyz
  1  'x, y, z'
loop_
 _atom_site_type_symbol
 _atom_site_label
 _atom_site_symmetry_multiplicity
 _atom_site_fract_x
 _atom_site_fract_y
 _atom_site_fract_z
 _atom_site_occupancy
  In  In0  1  -0.00955627  0.17829615  0.13289979  1
  In  In1  1  0.03266908  0.17214076  0.62621744  1
  In  In2  1  -0.01946282  0.50750841  0.12787282  1
  In  In3  1  0.01225436  0.48690694  0.63498617  1
  In  In4  1  -0.00050904  0.84579316  0.12793822  1
  In  In5  1  -0.01358179  0.82838668  0.63165990  1
  In  In6  1  0.32365551  0.15786663  0.12523735  1
  In  In7  1  0.31119107  0.19156143  0.65472423  1
  In  In8  1  0.35169303  0.50767612  0.12964740  1
  In  In9  1  0.33771797  0.49411643  0.61002926  1
  In  In10  1  0.34279545  0.82341684  0.13278983  1
  In  In11  1  0.36479481  0.80977486  0.64669781  1
  In  In12  1  0.67430760  0.15557588  0.13459301  1
  In  In13  1  0.67899214  0.17275404  0.62513788  1
  In  In14  1  0.67359914  0.49250649  0.13897750  1
  In  In15  1  0.64993352  0.51412382  0.63105320  1
  In  In16  1  0.66487214  0.83264184  0.12045297  1
  In  In17  1  0.64215076  0.81702189  0.61878486  1
  In  In18  1  0.17549114  0.01000107  0.37103423  1
  In  In19  1  0.17196298  -0.00005563  0.87212493  1
  In  In20  1  0.16458242  0.34171197  0.38437022  1
  In  In21  1  0.16868713  0.32684099  0.85657460  1
  In  In22  1  0.16967940  0.64427142  0.38306773  1
  In  In23  1  0.16796306  0.67061001  0.86037203  1
  In  In24  1  0.48899629  -0.00069178  0.36837249  1
  In  In25  1  0.48995438  -0.00857063  0.87453719  1
  In  In26  1  0.50899697  0.32979993  0.37416279  1
  In  In27  1  0.50889951  0.33213251  0.85305052  1
  In  In28  1  0.50392088  0.67261028  0.37863573  1
  In  In29  1  0.51346691  0.68087256  0.85902701  1
  In  In30  1  0.82892922  -0.00217994  0.36141524  1
  In  In31  1  0.83297074  0.00235074  0.88957314  1
  In  In32  1  0.82366721  0.32754311  0.36913173  1
  In  In33  1  0.83492490  0.33667960  0.87798947  1
  In  In34  1  0.82329386  0.67589612  0.37292457  1
  In  In35  1  0.82786017  0.66396300  0.87930891  1
  In  In36  1  0.00892200  0.17749622  0.36836427  1
  In  In37  1  -0.00763304  0.16590432  0.87600749  1
  In  In38  1  0.01469222  0.49115369  0.37840826  1
  In  In39  1  -0.00829552  0.49222449  0.86926581  1
  In  In40  1  -0.01598242  0.83241080  0.37138447  1
  In  In41  1  -0.00477956  0.82703693  0.87296688  1
  In  In42  1  0.34070977  0.15565934  0.37901352  1
  In  In43  1  0.34218417  0.16658426  0.84934695  1
  In  In44  1  0.32863699  0.50583953  0.38340057  1
  In  In45  1  0.34157337  0.50387361  0.86267743  1
  In  In46  1  0.34841989  0.84427337  0.37616479  1
  In  In47  1  0.34417438  0.83971842  0.86120925  1
  In  In48  1  0.64768575  0.16629051  0.35430720  1
  In  In49  1  0.67245140  0.17853334  0.87314738  1
  In  In50  1  0.65861672  0.50218014  0.36729871  1
  In  In51  1  0.66923331  0.50347167  0.87319003  1
  In  In52  1  0.64040065  0.81431448  0.35911704  1
  In  In53  1  0.67177472  0.82910824  0.88501164  1
  In  In54  1  0.16783251  -0.00488635  0.13874630  1
  In  In55  1  0.18697997  0.02037301  0.61674464  1
  In  In56  1  0.16704598  0.31387462  0.12772829  1
  In  In57  1  0.16779930  0.32979645  0.62279375  1
  In  In58  1  0.17555188  0.67311410  0.12923466  1
  In  In59  1  0.18262404  0.65174166  0.62970132  1
  In  In60  1  0.51844040  -0.01651816  0.14168872  1
  In  In61  1  0.49137630  -0.01260273  0.62331577  1
  In  In62  1  0.51863879  0.33891867  0.13276707  1
  In  In63  1  0.47543571  0.35141060  0.63659821  1
  In  In64  1  0.49013305  0.67074514  0.13410649  1
  In  In65  1  0.50569169  0.65901818  0.61909602  1
  In  In66  1  0.83283035  0.00281633  0.12221312  1
  In  In67  1  0.83040064  -0.00037117  0.62721513  1
  In  In68  1  0.83285454  0.33645266  0.12456192  1
  In  In69  1  0.83094575  0.34390604  0.63688828  1
  In  In70  1  0.82119046  0.65658651  0.11458829  1
  In  In71  1  0.82842808  0.66730877  0.63650780  1
  In  In72  1  0.66314782  -0.00397831  0.75237824  1
  In  In73  1  0.50216033  0.15906552  -0.00229911  1
  In  In74  1  0.15954996  0.49927971  -0.00400012  1
  In  In75  1  0.17102722  0.83324560  0.50556529  1
  In  In76  1  0.16127144  0.83412530  -0.00398923  1
  In  In77  1  0.83501994  0.17128197  0.49893981  1
  In  In78  1  0.50783144  0.50417030  0.00054838  1
  In  In79  1  0.82586058  0.83476589  0.50367885  1
  In  In80  1  0.16257473  0.15981372  -0.00993674  1
  In  In81  1  0.49106256  0.17521970  0.50573543  1
  In  In82  1  0.00687373  0.00423311  0.75257235  1
  In  In83  1  0.82942519  0.50070682  0.49343240  1
  In  In84  1  0.00116825  0.66398366  0.25404044  1
  In  In85  1  0.33691221  0.33039043  0.25677635  1
  Cu  Cu86  1  0.33920228  -0.01059696  -0.00002401  1
  Cu  Cu87  1  0.01035228  0.00677586  0.49266575  1
  Cu  Cu88  1  -0.01182486  0.67006724  -0.00363653  1
  Cu  Cu89  1  0.83151010  0.16707392  0.24619708  1
  Cu  Cu90  1  0.66553148  -0.00109686  0.00750140  1
  Cu  Cu91  1  0.66254630  0.66725962  -0.00208339  1
  Cu  Cu92  1  0.83360203  0.49386311  0.25133892  1
  Cu  Cu93  1  0.82463446  0.82417509  0.75497399  1
  Cu  Cu94  1  0.49469062  0.49705391  0.74183805  1
  Cu  Cu95  1  0.84027843  0.17587543  0.75222073  1
  Cu  Cu96  1  0.16424262  0.84032708  0.74626673  1
  Cu  Cu97  1  -0.00705184  0.00867990  0.00799293  1
  Cu  Cu98  1  0.16244753  0.16194159  0.25196532  1
  Cu  Cu99  1  0.33386171  0.00109430  0.50177504  1
  Cu  Cu100  1  0.66090814  0.34028521  0.49839489  1
  Cu  Cu101  1  0.00017955  0.65583155  0.51124197  1
  Cu  Cu102  1  0.34229724  0.33405047  -0.01211690  1
  Cu  Cu103  1  0.33926944  0.67208344  -0.00002137  1
  Cu  Cu104  1  0.50031012  0.83649238  0.25097160  1
  Cu  Cu105  1  0.34128561  0.67075664  0.50396156  1
  Cu  Cu106  1  -0.00802381  0.34045518  0.00319966  1
  Cu  Cu107  1  0.17014753  0.50354647  0.74147581  1
  Cu  Cu108  1  0.17080832  0.48969316  0.25546771  1
  Cu  Cu109  1  0.83140218  0.83872108  0.24231386  1
  Cu  Cu110  1  0.67362814  0.33418564  0.00048108  1
  Cu  Cu111  1  0.00664573  0.32637505  0.50389940  1
  Cu  Cu112  1  0.17559107  0.82925611  0.25597888  1
  Cu  Cu113  1  0.65725929  -0.00799451  0.48980750  1
  Cu  Cu114  1  0.82845889  0.50249344  0.75492035  1
  Se  Se115  1  0.08324232  0.08010905  0.06578793  1
  Se  Se116  1  0.09236695  0.08752508  0.54737409  1
  Se  Se117  1  0.07926225  0.41032140  0.06553988  1
  Se  Se118  1  0.08495372  0.41769584  0.55422190  1
  Se  Se119  1  0.07411894  0.74125145  0.05952859  1
  Se  Se120  1  0.07741857  0.74428566  0.56592018  1
  Se  Se121  1  0.41512720  0.07194963  0.06215029  1
  Se  Se122  1  0.40449097  0.08475988  0.56662323  1
  Se  Se123  1  0.41574635  0.40792867  0.05648169  1
  Se  Se124  1  0.42633946  0.41253219  0.54515954  1
  Se  Se125  1  0.42163327  0.75238030  0.05537783  1
  Se  Se126  1  0.42433216  0.75521187  0.55523582  1
  Se  Se127  1  0.74931654  0.08783988  0.05409484  1
  Se  Se128  1  0.74141549  0.06981833  0.55049114  1
  Se  Se129  1  0.74718943  0.42170259  0.05816303  1
  Se  Se130  1  0.74453573  0.41431904  0.56025486  1
  Se  Se131  1  0.74836840  0.75162683  0.05029577  1
  Se  Se132  1  0.74200639  0.73470898  0.55743342  1
  Se  Se133  1  0.25907241  0.25306795  0.04740056  1
  Se  Se134  1  0.25387403  0.24047947  0.56159613  1
  Se  Se135  1  0.25752148  0.58680205  0.05621965  1
  Se  Se136  1  0.25041898  0.58450935  0.54658099  1
  Se  Se137  1  0.25174777  0.91759504  0.06139306  1
  Se  Se138  1  0.26741353  0.91214875  0.56676898  1
  Se  Se139  1  0.59122760  0.25255404  0.05748913  1
  Se  Se140  1  0.58821323  0.26023855  0.56389834  1
  Se  Se141  1  0.59073462  0.59046306  0.06702584  1
  Se  Se142  1  0.58217235  0.57559839  0.54678953  1
  Se  Se143  1  0.57619028  0.91634692  0.05391817  1
  Se  Se144  1  0.57915036  0.91564667  0.55112140  1
  Se  Se145  1  0.91386419  0.25008303  0.05503252  1
  Se  Se146  1  0.92070673  0.25547631  0.56664374  1
  Se  Se147  1  0.91134840  0.57893932  0.04723221  1
  Se  Se148  1  0.91457987  0.57859795  0.56770369  1
  Se  Se149  1  0.91460627  0.91451473  0.05412260  1
  Se  Se150  1  0.92765660  0.92823331  0.55484592  1
  Se  Se151  1  0.08758343  0.24407249  0.44756315  1
  Se  Se152  1  0.07716733  0.26557328  0.94037215  1
  Se  Se153  1  0.08093066  0.57516182  0.45487480  1
  Se  Se154  1  0.07654928  0.59633231  0.93599917  1
  Se  Se155  1  0.07990779  0.91424296  0.43635805  1
  Se  Se156  1  0.07012128  0.93180160  0.94092263  1
  Se  Se157  1  0.40525604  0.26424385  0.44127559  1
  Se  Se158  1  0.41915326  0.24955229  0.93029725  1
  Se  Se159  1  0.42009628  0.58781223  0.44613775  1
  Se  Se160  1  0.41590937  0.58917558  0.93833938  1
  Se  Se161  1  0.42373563  0.92363657  0.45036983  1
  Se  Se162  1  0.41740194  0.90316964  0.94566819  1
  Se  Se163  1  0.73225096  0.24915881  0.43915539  1
  Se  Se164  1  0.75567528  0.24879173  0.94760191  1
  Se  Se165  1  0.73841513  0.59509944  0.44189409  1
  Se  Se166  1  0.74592703  0.57931796  0.94887731  1
  Se  Se167  1  0.74314306  0.91536505  0.43214920  1
  Se  Se168  1  0.75006552  0.91578225  0.95368660  1
  Se  Se169  1  0.25007330  0.08394916  0.44909277  1
  Se  Se170  1  0.26899588  0.07750598  0.93821220  1
  Se  Se171  1  0.24268107  0.42684664  0.45035238  1
  Se  Se172  1  0.25569532  0.41400910  0.93371804  1
  Se  Se173  1  0.25736829  0.74596189  0.44004170  1
  Se  Se174  1  0.25330686  0.74553727  0.93777176  1
  Se  Se175  1  0.58335960  0.08756391  0.43936742  1
  Se  Se176  1  0.59439678  0.07242718  0.93524325  1
  Se  Se177  1  0.58203961  0.42263182  0.44201564  1
  Se  Se178  1  0.58528304  0.40341275  0.93859032  1
  Se  Se179  1  0.58023290  0.76094930  0.44907440  1
  Se  Se180  1  0.57558856  0.74768596  0.94606674  1
  Se  Se181  1  0.91816911  0.07855584  0.43535230  1
  Se  Se182  1  0.91419995  0.09397122  0.95272857  1
  Se  Se183  1  0.92134985  0.40068256  0.44233053  1
  Se  Se184  1  0.91203252  0.42539315  0.94846999  1
  Se  Se185  1  0.92286561  0.73825306  0.44920343  1
  Se  Se186  1  0.90824837  0.75799413  0.94480292  1
  Se  Se187  1  0.24169054  0.24174423  0.31434954  1
  Se  Se188  1  0.25950205  0.25668613  0.78885821  1
  Se  Se189  1  0.24961678  0.57929923  0.30436367  1
  Se  Se190  1  0.25350822  0.58522768  0.79684910  1
  Se  Se191  1  0.25558662  0.91806113  0.30837201  1
  Se  Se192  1  0.24926157  0.92034860  0.80062375  1
  Se  Se193  1  0.57960158  0.26419797  0.29150728  1
  Se  Se194  1  0.58325767  0.23158703  0.79678100  1
  Se  Se195  1  0.60133505  0.61121904  0.30779977  1
  Se  Se196  1  0.57844299  0.57294266  0.80238043  1
  Se  Se197  1  0.58307728  0.92609255  0.30067298  1
  Se  Se198  1  0.57933520  0.90109281  0.81050447  1
  Se  Se199  1  0.91337522  0.24995658  0.30290493  1
  Se  Se200  1  0.92200501  0.25753228  0.80758821  1
  Se  Se201  1  0.91137946  0.57321414  0.31606220  1
  Se  Se202  1  0.91293965  0.58704264  0.80775251  1
  Se  Se203  1  0.91878038  0.91712619  0.29566135  1
  Se  Se204  1  0.90404922  0.91743447  0.80682266  1
  Se  Se205  1  0.07768152  0.07731362  0.30433361  1
  Se  Se206  1  0.09563858  0.10038371  0.80829054  1
  Se  Se207  1  0.08386499  0.40748017  0.30354192  1
  Se  Se208  1  0.08711203  0.42453297  0.80049092  1
  Se  Se209  1  0.09287110  0.75053583  0.31743325  1
  Se  Se210  1  0.07935656  0.75756299  0.79914137  1
  Se  Se211  1  0.42466833  0.09733340  0.30145373  1
  Se  Se212  1  0.43045126  0.07442891  0.79661444  1
  Se  Se213  1  0.42025786  0.42617647  0.31398062  1
  Se  Se214  1  0.41176551  0.41054163  0.79417200  1
  Se  Se215  1  0.41855126  0.75330957  0.30705047  1
  Se  Se216  1  0.39592026  0.72669938  0.80345539  1
  Se  Se217  1  0.74448067  0.08342903  0.29665236  1
  Se  Se218  1  0.76399735  0.08495087  0.80764184  1
  Se  Se219  1  0.74404351  0.41493058  0.30294207  1
  Se  Se220  1  0.74854229  0.41356087  0.80753786  1
  Se  Se221  1  0.75106311  0.75511343  0.29829669  1
  Se  Se222  1  0.74157342  0.74419244  0.80989543  1
  Se  Se223  1  0.25251748  0.08080947  0.20314554  1
  Se  Se224  1  0.24590203  0.07854124  0.70611091  1
  Se  Se225  1  0.24921306  0.41698839  0.18682961  1
  Se  Se226  1  0.25204052  0.42181082  0.68542717  1
  Se  Se227  1  0.25680541  0.74410834  0.20298752  1
  Se  Se228  1  0.24597664  0.75203875  0.69608000  1
  Se  Se229  1  0.57015716  0.09722675  0.19758861  1
  Se  Se230  1  0.58665710  0.08164810  0.68182211  1
  Se  Se231  1  0.56258870  0.44319739  0.20085007  1
  Se  Se232  1  0.58632176  0.41209501  0.69633760  1
  Se  Se233  1  0.58293757  0.75538671  0.19370178  1
  Se  Se234  1  0.57672346  0.74054711  0.69690999  1
  Se  Se235  1  0.91636773  0.08098425  0.19485332  1
  Se  Se236  1  0.91651428  0.09432365  0.68831079  1
  Se  Se237  1  0.91908351  0.41302149  0.19803577  1
  Se  Se238  1  0.91772357  0.42042255  0.70507108  1
  Se  Se239  1  0.91237955  0.74809547  0.18801954  1
  Se  Se240  1  0.91596436  0.74450539  0.70546995  1
  Se  Se241  1  0.08067425  0.25097879  0.20322206  1
  Se  Se242  1  0.07854460  0.26695985  0.70007560  1
  Se  Se243  1  0.09210898  0.57327665  0.19235068  1
  Se  Se244  1  0.08018322  0.59059593  0.69602621  1
  Se  Se245  1  0.08574151  0.90848650  0.20439537  1
  Se  Se246  1  0.08776540  0.91886036  0.68181433  1
  Se  Se247  1  0.41641971  0.24839595  0.18366066  1
  Se  Se248  1  0.43870457  0.23484419  0.69764490  1
  Se  Se249  1  0.41178458  0.59049589  0.20622566  1
  Se  Se250  1  0.41386798  0.57783691  0.68396651  1
  Se  Se251  1  0.41050077  0.91902054  0.20041644  1
  Se  Se252  1  0.41903778  0.92064479  0.70529510  1
  Se  Se253  1  0.74960920  0.25498609  0.19439038  1
  Se  Se254  1  0.74960557  0.25381077  0.70109643  1
  Se  Se255  1  0.75806623  0.58593305  0.19912354  1
  Se  Se256  1  0.74280959  0.58377741  0.70118315  1
  Se  Se257  1  0.74616806  0.92009858  0.18862593  1
  Se  Se258  1  0.74958720  0.90177735  0.68770391  1
