# generated using pymatgen
data_In86Cu29Se144
_symmetry_space_group_name_H-M   'P 1'
_cell_length_a   17.58643282
_cell_length_b   17.58279950
_cell_length_c   23.45206031
_cell_angle_alpha   90.01647066
_cell_angle_beta   89.99397098
_cell_angle_gamma   89.99578279
_symmetry_Int_Tables_number   1
_chemical_formula_structural   In86Cu29Se144
_chemical_formula_sum   'In86 Cu29 Se144'
_cell_volume   7251.81576403
_cell_formula_units_Z   1
loop_
 _symmetry_equiv_pos_site_id
 _symmetry_equiv_pos_as_xyz
  1  'x, y, z'
loop_
 _atom_site_type_symbol
 _atom_site_label
 _atom_site_symmetry_multiplicity
 _atom_site_fract_x
 _atom_site_fract_y
 _atom_site_fract_z
 _atom_site_occupancy
  In  In0  1  -0.01210514  0.15947719  0.12161133  1
  In  In1  1  0.01519542  0.15318632  0.63143315  1
  In  In2  1  -0.00342215  0.50592393  0.12209475  1
  In  In3  1  0.00332967  0.49541173  0.63418212  1
  In  In4  1  0.00397415  0.85151332  0.10176099  1
  In  In5  1  -0.01482830  0.85927692  0.64551944  1
  In  In6  1  0.33520064  0.16418380  0.13588157  1
  In  In7  1  0.33000276  0.17598618  0.62920520  1
  In  In8  1  0.32760003  0.49026517  0.13066847  1
  In  In9  1  0.32506499  0.49331975  0.61788390  1
  In  In10  1  0.34368322  0.85107536  0.11621089  1
  In  In11  1  0.34221662  0.83016215  0.62876726  1
  In  In12  1  0.66981221  0.16782582  0.12383944  1
  In  In13  1  0.67508989  0.15758580  0.63564463  1
  In  In14  1  0.66500831  0.49088852  0.11930245  1
  In  In15  1  0.66320702  0.50608037  0.63161556  1
  In  In16  1  0.67998214  0.86683382  0.09882783  1
  In  In17  1  0.66426455  0.83456746  0.62691288  1
  In  In18  1  0.17345939  0.00717939  0.36979774  1
  In  In19  1  0.13679528  -0.03759622  0.83818786  1
  In  In20  1  0.17802568  0.31852652  0.38842422  1
  In  In21  1  0.17036725  0.33849288  0.86898744  1
  In  In22  1  0.15404894  0.66418311  0.38543284  1
  In  In23  1  0.16108091  0.69009388  0.86790168  1
  In  In24  1  0.49213748  0.00265604  0.37872078  1
  In  In25  1  0.49222522  -0.00686395  0.86920166  1
  In  In26  1  0.50675938  0.33234474  0.37116672  1
  In  In27  1  0.50513287  0.33386611  0.86662571  1
  In  In28  1  0.49439193  0.67146689  0.38572370  1
  In  In29  1  0.51485763  0.67156907  0.86853208  1
  In  In30  1  0.83483278  -0.01471215  0.37569747  1
  In  In31  1  0.83026046  0.00125693  0.88269568  1
  In  In32  1  0.82345183  0.33483202  0.37152928  1
  In  In33  1  0.83011332  0.33125735  0.87923619  1
  In  In34  1  0.84227038  0.67379619  0.37775945  1
  In  In35  1  0.83265651  0.66547295  0.87100015  1
  In  In36  1  0.01352273  0.16649735  0.37671010  1
  In  In37  1  -0.01990298  0.14734006  0.86802759  1
  In  In38  1  0.00100557  0.50782590  0.38321846  1
  In  In39  1  -0.01013316  0.49050437  0.86355227  1
  In  In40  1  -0.00948505  0.83386883  0.37854012  1
  In  In41  1  -0.00646604  0.83461706  0.87289229  1
  In  In42  1  0.33324761  0.15421981  0.36868945  1
  In  In43  1  0.33397420  0.16119817  0.86743968  1
  In  In44  1  0.34434742  0.48907941  0.38785957  1
  In  In45  1  0.34365490  0.49525585  0.87064072  1
  In  In46  1  0.33270268  0.85083261  0.37488821  1
  In  In47  1  0.31447424  0.84853085  0.88065915  1
  In  In48  1  0.65575946  0.17174206  0.37417615  1
  In  In49  1  0.68040588  0.17680784  0.87547798  1
  In  In50  1  0.66463747  0.48225601  0.37602940  1
  In  In51  1  0.66984117  0.50147069  0.86910463  1
  In  In52  1  0.67094461  0.84040145  0.39199194  1
  In  In53  1  0.67306776  0.83810721  0.87982833  1
  In  In54  1  0.16844249  -0.00089318  0.12531837  1
  In  In55  1  0.15460667  0.01173108  0.63420931  1
  In  In56  1  0.17646010  0.33844528  0.12801444  1
  In  In57  1  0.16778670  0.33503152  0.62602644  1
  In  In58  1  0.14988774  0.67120534  0.12459789  1
  In  In59  1  0.16820657  0.66457919  0.62842879  1
  In  In60  1  0.50082099  -0.00487641  0.12357563  1
  In  In61  1  0.51263598  -0.01155015  0.63297813  1
  In  In62  1  0.50355721  0.32692494  0.13696187  1
  In  In63  1  0.49410574  0.33620647  0.62840342  1
  In  In64  1  0.49422461  0.68275915  0.12515484  1
  In  In65  1  0.51078989  0.67627375  0.61887622  1
  In  In66  1  0.84078408  0.01780331  0.10358801  1
  In  In67  1  0.83744897  -0.00882103  0.62808881  1
  In  In68  1  0.81033105  0.31315731  0.09678309  1
  In  In69  1  0.83039370  0.33716332  0.63580798  1
  In  In70  1  0.84257971  0.67023765  0.11260290  1
  In  In71  1  0.82072132  0.68008113  0.63879876  1
  In  In72  1  0.50961081  0.16126202  0.00235022  1
  In  In73  1  0.66434085  0.66841158  0.24596212  1
  In  In74  1  0.33556751  0.66433054  0.74505812  1
  In  In75  1  0.16605308  0.83328172  0.50671064  1
  In  In76  1  0.16436490  0.50661295  0.00381677  1
  In  In77  1  0.00184385  0.33254439  0.24768254  1
  In  In78  1  0.16152812  0.16042573  -0.00470558  1
  In  In79  1  0.83293472  0.50431109  0.49902833  1
  In  In80  1  0.32831520  0.66595802  0.24945820  1
  In  In81  1  0.84136187  0.15745640  0.51135166  1
  In  In82  1  -0.00167057  0.66804711  0.25434811  1
  In  In83  1  0.49986167  0.16061030  0.49763122  1
  In  In84  1  0.50357281  0.50352921  -0.01020326  1
  In  In85  1  0.66169465  0.00840954  0.24527398  1
  Cu  Cu86  1  0.83468903  0.49780989  0.75428087  1
  Cu  Cu87  1  0.83630495  0.83625753  0.24826543  1
  Cu  Cu88  1  -0.00375400  0.33125893  -0.01027889  1
  Cu  Cu89  1  0.50341804  0.16274304  0.75017384  1
  Cu  Cu90  1  0.17031022  0.17660550  0.75015004  1
  Cu  Cu91  1  0.32324810  0.00009046  -0.00687324  1
  Cu  Cu92  1  0.50494525  0.82757445  0.75170834  1
  Cu  Cu93  1  0.33450536  0.66432306  0.50646779  1
  Cu  Cu94  1  0.66676776  0.66772087  -0.00893887  1
  Cu  Cu95  1  0.50342868  0.49526218  0.25453564  1
  Cu  Cu96  1  0.00701131  0.33299636  0.50768554  1
  Cu  Cu97  1  -0.00066473  0.66746058  0.51078290  1
  Cu  Cu98  1  0.50049897  0.49307699  0.74727621  1
  Cu  Cu99  1  0.66634801  0.66789604  0.50757311  1
  Cu  Cu100  1  0.82718346  0.48821327  0.24251043  1
  Cu  Cu101  1  0.34183769  0.33039291  0.00141252  1
  Cu  Cu102  1  0.50150553  0.84039892  0.24619255  1
  Cu  Cu103  1  0.00290884  0.66661601  -0.00935871  1
  Cu  Cu104  1  0.33172464  0.67965243  -0.00002614  1
  Cu  Cu105  1  0.17351873  0.48984570  0.26076091  1
  Cu  Cu106  1  0.16675409  0.84264563  0.24222792  1
  Cu  Cu107  1  0.66136397  0.32934109  0.50168847  1
  Cu  Cu108  1  0.83624561  0.16920534  0.75398998  1
  Cu  Cu109  1  0.33521672  0.00122663  0.50051527  1
  Cu  Cu110  1  0.16884857  0.49798351  0.74629755  1
  Cu  Cu111  1  0.83185392  0.16465184  0.24199441  1
  Cu  Cu112  1  0.16603239  0.16010317  0.25264893  1
  Cu  Cu113  1  0.33029389  0.33276114  0.50483763  1
  Cu  Cu114  1  0.82674471  0.83822293  0.75636125  1
  Se  Se115  1  0.07136888  0.07070910  0.05419543  1
  Se  Se116  1  0.08369996  0.07860819  0.55254235  1
  Se  Se117  1  0.07615457  0.40356138  0.05665924  1
  Se  Se118  1  0.08467580  0.42257830  0.55862049  1
  Se  Se119  1  0.08310785  0.74946544  0.04717413  1
  Se  Se120  1  0.07259883  0.75335887  0.57021395  1
  Se  Se121  1  0.40239276  0.08051798  0.05532461  1
  Se  Se122  1  0.41429298  0.07733189  0.56532712  1
  Se  Se123  1  0.41833882  0.41530641  0.05912673  1
  Se  Se124  1  0.41892379  0.41512890  0.55339489  1
  Se  Se125  1  0.42056577  0.75960911  0.04978854  1
  Se  Se126  1  0.41765060  0.75221962  0.55368695  1
  Se  Se127  1  0.71941738  0.06642106  0.05476680  1
  Se  Se128  1  0.73943117  0.06974737  0.55870858  1
  Se  Se129  1  0.76367531  0.43667732  0.05021243  1
  Se  Se130  1  0.74483690  0.41145319  0.55770584  1
  Se  Se131  1  0.74164218  0.74541003  0.05530009  1
  Se  Se132  1  0.75151645  0.75127771  0.55755833  1
  Se  Se133  1  0.25629863  0.25096449  0.05705293  1
  Se  Se134  1  0.24692629  0.24814853  0.55531979  1
  Se  Se135  1  0.26020046  0.59518384  0.06346832  1
  Se  Se136  1  0.24430511  0.58490520  0.55442038  1
  Se  Se137  1  0.24383226  0.91700512  0.05111225  1
  Se  Se138  1  0.25623503  0.92421305  0.56504060  1
  Se  Se139  1  0.58974714  0.26480628  0.05674252  1
  Se  Se140  1  0.58856061  0.24580711  0.56368421  1
  Se  Se141  1  0.58401720  0.59475607  0.05825577  1
  Se  Se142  1  0.58481101  0.57836056  0.55469667  1
  Se  Se143  1  0.56662384  0.92099199  0.04385050  1
  Se  Se144  1  0.57374883  0.90455851  0.55574885  1
  Se  Se145  1  0.92079372  0.24385604  0.04632313  1
  Se  Se146  1  0.92274940  0.25847886  0.56694445  1
  Se  Se147  1  0.92275173  0.58186911  0.04629861  1
  Se  Se148  1  0.91426052  0.58821703  0.56810957  1
  Se  Se149  1  0.88796679  0.90076103  0.04534862  1
  Se  Se150  1  0.92856418  0.92328191  0.55738644  1
  Se  Se151  1  0.08434098  0.24472308  0.45393503  1
  Se  Se152  1  0.07943951  0.25302360  0.93257595  1
  Se  Se153  1  0.08054450  0.58141057  0.45846599  1
  Se  Se154  1  0.08317614  0.58502689  0.93181439  1
  Se  Se155  1  0.08523356  0.91936463  0.43822573  1
  Se  Se156  1  0.08807861  0.91559943  0.93449552  1
  Se  Se157  1  0.40974524  0.25363851  0.44086573  1
  Se  Se158  1  0.41757107  0.25146021  0.93954766  1
  Se  Se159  1  0.42006257  0.58165747  0.45313307  1
  Se  Se160  1  0.40736096  0.59879371  0.93835487  1
  Se  Se161  1  0.41890137  0.91552812  0.45022850  1
  Se  Se162  1  0.41345994  0.91734341  0.94543796  1
  Se  Se163  1  0.74843365  0.24977173  0.44733034  1
  Se  Se164  1  0.75333592  0.25115684  0.95302275  1
  Se  Se165  1  0.73954733  0.59134021  0.43714252  1
  Se  Se166  1  0.74889607  0.58200517  0.94121203  1
  Se  Se167  1  0.77018250  0.90707384  0.45400573  1
  Se  Se168  1  0.77015636  0.89867600  0.95146785  1
  Se  Se169  1  0.25321409  0.08265293  0.44513132  1
  Se  Se170  1  0.24513719  0.07444216  0.93016731  1
  Se  Se171  1  0.24590916  0.41910406  0.45225762  1
  Se  Se172  1  0.25952540  0.41472595  0.94645793  1
  Se  Se173  1  0.25824344  0.74578740  0.44094800  1
  Se  Se174  1  0.24126776  0.75431295  0.94707251  1
  Se  Se175  1  0.59725281  0.07018649  0.44414965  1
  Se  Se176  1  0.58858044  0.07772038  0.93241450  1
  Se  Se177  1  0.57872162  0.41329719  0.44925864  1
  Se  Se178  1  0.59412304  0.40624983  0.94088126  1
  Se  Se179  1  0.58403055  0.75035791  0.45050424  1
  Se  Se180  1  0.58121380  0.75376752  0.94450279  1
  Se  Se181  1  0.92385138  0.07838316  0.43948655  1
  Se  Se182  1  0.91447226  0.08325946  0.95179310  1
  Se  Se183  1  0.92227571  0.40381164  0.44373784  1
  Se  Se184  1  0.91562473  0.42208553  0.94373705  1
  Se  Se185  1  0.91952083  0.74802245  0.45228741  1
  Se  Se186  1  0.91438728  0.74673566  0.94162684  1
  Se  Se187  1  0.24565818  0.24450633  0.30763717  1
  Se  Se188  1  0.25707633  0.25601539  0.80392564  1
  Se  Se189  1  0.24556984  0.57976995  0.31822343  1
  Se  Se190  1  0.24438933  0.57819987  0.81139629  1
  Se  Se191  1  0.25198253  0.92047833  0.29912903  1
  Se  Se192  1  0.26638191  0.92510690  0.79467026  1
  Se  Se193  1  0.59005198  0.25497162  0.30074228  1
  Se  Se194  1  0.58738908  0.24555854  0.80380886  1
  Se  Se195  1  0.57760210  0.58204136  0.31331363  1
  Se  Se196  1  0.58157148  0.57870053  0.79999640  1
  Se  Se197  1  0.58502241  0.91008301  0.31135870  1
  Se  Se198  1  0.58552313  0.91205698  0.80727174  1
  Se  Se199  1  0.90960502  0.24216642  0.30773843  1
  Se  Se200  1  0.91767387  0.25452127  0.80775791  1
  Se  Se201  1  0.90366407  0.56828980  0.30623973  1
  Se  Se202  1  0.91887985  0.58804861  0.79960609  1
  Se  Se203  1  0.92225344  0.91651971  0.30180421  1
  Se  Se204  1  0.91054999  0.92374279  0.80701264  1
  Se  Se205  1  0.07781468  0.07900645  0.30189025  1
  Se  Se206  1  0.08549911  0.09247555  0.80140213  1
  Se  Se207  1  0.08569235  0.41592886  0.31857911  1
  Se  Se208  1  0.08465279  0.41479170  0.79966822  1
  Se  Se209  1  0.09509309  0.76050144  0.30777272  1
  Se  Se210  1  0.07441980  0.75701081  0.79753857  1
  Se  Se211  1  0.43399268  0.09071902  0.30429252  1
  Se  Se212  1  0.41586761  0.07917382  0.79867358  1
  Se  Se213  1  0.41608814  0.41720507  0.30803412  1
  Se  Se214  1  0.41503555  0.41087937  0.79883456  1
  Se  Se215  1  0.42287527  0.75781546  0.30605448  1
  Se  Se216  1  0.41574190  0.75516032  0.81109864  1
  Se  Se217  1  0.75723760  0.08928188  0.31079877  1
  Se  Se218  1  0.75444629  0.08469661  0.80818526  1
  Se  Se219  1  0.74284868  0.41022863  0.29839220  1
  Se  Se220  1  0.75109701  0.41215829  0.80486487  1
  Se  Se221  1  0.75513428  0.75862669  0.30960478  1
  Se  Se222  1  0.74476158  0.75026600  0.80664915  1
  Se  Se223  1  0.24912321  0.07746343  0.19794074  1
  Se  Se224  1  0.25040344  0.08878157  0.69679809  1
  Se  Se225  1  0.25551525  0.40887435  0.20581429  1
  Se  Se226  1  0.25499646  0.41531036  0.69564645  1
  Se  Se227  1  0.24503995  0.75693649  0.18451284  1
  Se  Se228  1  0.24165808  0.76082909  0.69649843  1
  Se  Se229  1  0.56698924  0.09867609  0.19074217  1
  Se  Se230  1  0.58866567  0.07636861  0.70180342  1
  Se  Se231  1  0.58830028  0.41907556  0.19688485  1
  Se  Se232  1  0.58726947  0.41065168  0.69524343  1
  Se  Se233  1  0.58711528  0.76841607  0.18531154  1
  Se  Se234  1  0.58814054  0.74440316  0.69773193  1
  Se  Se235  1  0.91057759  0.07532362  0.19159031  1
  Se  Se236  1  0.91224384  0.08693000  0.69357314  1
  Se  Se237  1  0.91171637  0.41340810  0.18303078  1
  Se  Se238  1  0.91934966  0.41413275  0.70229863  1
  Se  Se239  1  0.91735795  0.75684235  0.18799446  1
  Se  Se240  1  0.91406074  0.75493404  0.70395521  1
  Se  Se241  1  0.09084350  0.23857579  0.18670667  1
  Se  Se242  1  0.08279532  0.25416963  0.69530984  1
  Se  Se243  1  0.09260315  0.56934667  0.19947843  1
  Se  Se244  1  0.08516557  0.58514975  0.69860026  1
  Se  Se245  1  0.07572861  0.91399460  0.18665573  1
  Se  Se246  1  0.08979131  0.92147693  0.70776909  1
  Se  Se247  1  0.39769283  0.26769640  0.19644214  1
  Se  Se248  1  0.41995709  0.24879543  0.69898105  1
  Se  Se249  1  0.42650542  0.57605445  0.19178575  1
  Se  Se250  1  0.42452294  0.57588581  0.68392385  1
  Se  Se251  1  0.41446200  0.92357585  0.19712673  1
  Se  Se252  1  0.42098171  0.91191285  0.69978101  1
  Se  Se253  1  0.75463346  0.25284006  0.18919454  1
  Se  Se254  1  0.74892094  0.25062063  0.70097675  1
  Se  Se255  1  0.75935260  0.58236871  0.18655710  1
  Se  Se256  1  0.74954665  0.58117535  0.70134762  1
  Se  Se257  1  0.75572635  0.91808854  0.18886309  1
  Se  Se258  1  0.74660967  0.91790930  0.69682873  1
