# generated using pymatgen
data_In86Cu29Se144
_symmetry_space_group_name_H-M   'P 1'
_cell_length_a   17.58669914
_cell_length_b   17.58472624
_cell_length_c   23.45127673
_cell_angle_alpha   90.03829853
_cell_angle_beta   89.97016658
_cell_angle_gamma   90.03601871
_symmetry_Int_Tables_number   1
_chemical_formula_structural   In86Cu29Se144
_chemical_formula_sum   'In86 Cu29 Se144'
_cell_volume   7252.47425224
_cell_formula_units_Z   1
loop_
 _symmetry_equiv_pos_site_id
 _symmetry_equiv_pos_as_xyz
  1  'x, y, z'
loop_
 _atom_site_type_symbol
 _atom_site_label
 _atom_site_symmetry_multiplicity
 _atom_site_fract_x
 _atom_site_fract_y
 _atom_site_fract_z
 _atom_site_occupancy
  In  In0  1  0.00626946  0.15042472  0.11423512  1
  In  In1  1  -0.00205311  0.16278093  0.62655977  1
  In  In2  1  -0.00919629  0.51429773  0.11966614  1
  In  In3  1  0.00118581  0.50302015  0.62345227  1
  In  In4  1  -0.01432823  0.84031471  0.12444180  1
  In  In5  1  0.00092414  0.83285904  0.62344434  1
  In  In6  1  0.34850984  0.17988976  0.11193884  1
  In  In7  1  0.32131385  0.17577245  0.63833461  1
  In  In8  1  0.34707218  0.47998971  0.13440665  1
  In  In9  1  0.32271802  0.49870408  0.62551204  1
  In  In10  1  0.32801799  0.82487397  0.13342928  1
  In  In11  1  0.33787773  0.84666332  0.61865093  1
  In  In12  1  0.64526006  0.18656854  0.14784299  1
  In  In13  1  0.67888043  0.17045369  0.61980002  1
  In  In14  1  0.65792941  0.49645325  0.12440632  1
  In  In15  1  0.67383276  0.48409451  0.62319942  1
  In  In16  1  0.67162723  0.82529888  0.13943919  1
  In  In17  1  0.66343298  0.82946841  0.61298305  1
  In  In18  1  0.16308865  0.00674119  0.38759870  1
  In  In19  1  0.17735253  0.01409676  0.85519604  1
  In  In20  1  0.17568924  0.32940250  0.38589428  1
  In  In21  1  0.17167019  0.31210323  0.87102937  1
  In  In22  1  0.17724106  0.65806917  0.38435648  1
  In  In23  1  0.16055479  0.67975432  0.87129760  1
  In  In24  1  0.50053111  -0.01682872  0.36739144  1
  In  In25  1  0.50781775  0.01429098  0.87880570  1
  In  In26  1  0.50844814  0.33376780  0.36451075  1
  In  In27  1  0.50050206  0.33315174  0.87324431  1
  In  In28  1  0.50874427  0.68667816  0.35832859  1
  In  In29  1  0.50306578  0.66207857  0.88883460  1
  In  In30  1  0.83029173  0.00523514  0.38185209  1
  In  In31  1  0.83712880  -0.01033496  0.87186736  1
  In  In32  1  0.81557549  0.34300374  0.39008066  1
  In  In33  1  0.82812796  0.35345579  0.87100648  1
  In  In34  1  0.83066792  0.67124813  0.38014511  1
  In  In35  1  0.84215269  0.65929757  0.88103964  1
  In  In36  1  0.00111774  0.16841022  0.38690907  1
  In  In37  1  0.01593012  0.16423054  0.87157994  1
  In  In38  1  -0.00346893  0.50028820  0.38561474  1
  In  In39  1  -0.02053195  0.50160101  0.86840340  1
  In  In40  1  -0.00212846  0.83860309  0.38653953  1
  In  In41  1  -0.00381398  0.82725289  0.86125133  1
  In  In42  1  0.32965697  0.16483161  0.37418158  1
  In  In43  1  0.33712150  0.16864314  0.87110420  1
  In  In44  1  0.33413528  0.49664327  0.37517689  1
  In  In45  1  0.34902357  0.50067934  0.87840972  1
  In  In46  1  0.34206585  0.82586164  0.38299818  1
  In  In47  1  0.32048826  0.83232344  0.87481006  1
  In  In48  1  0.67657532  0.17398568  0.36258505  1
  In  In49  1  0.65200910  0.16921075  0.87768659  1
  In  In50  1  0.66751759  0.50451479  0.36960656  1
  In  In51  1  0.68322457  0.48883951  0.88628838  1
  In  In52  1  0.66891628  0.83219864  0.37146412  1
  In  In53  1  0.67426676  0.84122915  0.88338399  1
  In  In54  1  0.15725787  0.00473388  0.12157616  1
  In  In55  1  0.16884624  0.00449738  0.62620790  1
  In  In56  1  0.18079042  0.32955319  0.12345899  1
  In  In57  1  0.16954134  0.33589284  0.62421180  1
  In  In58  1  0.16620082  0.67478584  0.12899405  1
  In  In59  1  0.15818223  0.65493453  0.61795590  1
  In  In60  1  0.49861376  0.01673662  0.13012349  1
  In  In61  1  0.49946203  -0.00895561  0.62155346  1
  In  In62  1  0.49665455  0.33113215  0.12625154  1
  In  In63  1  0.50431005  0.32634326  0.62864778  1
  In  In64  1  0.52253944  0.64693237  0.14293813  1
  In  In65  1  0.49064063  0.67158650  0.61885900  1
  In  In66  1  0.82735901  -0.02177407  0.11412916  1
  In  In67  1  0.84313606  0.00747875  0.62044649  1
  In  In68  1  0.81584445  0.33006023  0.12306134  1
  In  In69  1  0.82890215  0.33298242  0.62052577  1
  In  In70  1  0.79728372  0.64742198  0.10101148  1
  In  In71  1  0.83805301  0.67153133  0.61766147  1
  In  In72  1  0.33386322  0.00347473  0.25133353  1
  In  In73  1  -0.00267986  0.33146952  0.25402841  1
  In  In74  1  0.50473717  0.16215425  0.49451594  1
  In  In75  1  0.50341816  0.83204942  0.00787328  1
  In  In76  1  -0.00341573  0.66966097  0.25016345  1
  In  In77  1  0.16318689  0.49743183  -0.00055845  1
  In  In78  1  0.00194357  0.33133397  0.74671920  1
  In  In79  1  0.15838496  0.84188514  -0.00206930  1
  In  In80  1  0.66518654  0.00566223  0.74828451  1
  In  In81  1  0.66944284  0.66123032  0.75425665  1
  In  In82  1  0.82984829  0.16430028  0.00131174  1
  In  In83  1  0.32783379  0.66676018  0.75041711  1
  In  In84  1  0.50326801  0.50644905  0.48977379  1
  In  In85  1  -0.00560162  0.00202883  0.24616837  1
  Cu  Cu86  1  0.33293147  0.67685880  0.50007938  1
  Cu  Cu87  1  0.49531121  0.83249089  0.74859608  1
  Cu  Cu88  1  0.82788604  0.82582891  0.24937845  1
  Cu  Cu89  1  0.33768454  0.32515697  -0.00150275  1
  Cu  Cu90  1  0.49534584  0.17027911  0.75267945  1
  Cu  Cu91  1  0.66854388  0.66431322  0.49144491  1
  Cu  Cu92  1  0.16378459  0.49627991  0.74644210  1
  Cu  Cu93  1  0.33598960  0.65622117  0.00935179  1
  Cu  Cu94  1  0.66738643  -0.00786919  0.49605835  1
  Cu  Cu95  1  0.33318670  0.33806330  0.50240666  1
  Cu  Cu96  1  0.00142439  -0.00363042  0.50861040  1
  Cu  Cu97  1  0.32800182  0.00713445  0.50018211  1
  Cu  Cu98  1  0.17491128  0.49674660  0.25514475  1
  Cu  Cu99  1  0.82464713  0.49744101  0.24756198  1
  Cu  Cu100  1  0.16429577  0.83649294  0.74367808  1
  Cu  Cu101  1  0.17042092  0.17137826  0.25112954  1
  Cu  Cu102  1  0.83390939  0.17238316  0.74555024  1
  Cu  Cu103  1  0.66928903  0.00639520  0.00572974  1
  Cu  Cu104  1  -0.01391681  0.67119797  -0.00730591  1
  Cu  Cu105  1  0.33358261  0.00419893  -0.00458515  1
  Cu  Cu106  1  0.83517808  0.83245016  0.74299539  1
  Cu  Cu107  1  0.83011295  0.16432643  0.25309306  1
  Cu  Cu108  1  -0.00159029  0.33464253  -0.00969632  1
  Cu  Cu109  1  0.65826919  0.33504674  0.00376547  1
  Cu  Cu110  1  0.49608261  0.49773704  0.25015848  1
  Cu  Cu111  1  0.50172354  0.49044785  0.75170180  1
  Cu  Cu112  1  0.00192376  0.33195421  0.50768877  1
  Cu  Cu113  1  0.17084558  0.82965483  0.25834827  1
  Cu  Cu114  1  0.00168136  0.66716976  0.50176363  1
  Se  Se115  1  0.09316016  0.08247957  0.04312054  1
  Se  Se116  1  0.08403031  0.08559876  0.55653015  1
  Se  Se117  1  0.07323054  0.40870888  0.06211762  1
  Se  Se118  1  0.08614995  0.41876524  0.55719959  1
  Se  Se119  1  0.07037606  0.74292310  0.05686065  1
  Se  Se120  1  0.08568012  0.75094294  0.55379653  1
  Se  Se121  1  0.42117240  0.08204276  0.04908995  1
  Se  Se122  1  0.41127889  0.08488038  0.56074498  1
  Se  Se123  1  0.41735247  0.41251900  0.05229026  1
  Se  Se124  1  0.41921695  0.41689732  0.55891536  1
  Se  Se125  1  0.41404570  0.74063240  0.06630135  1
  Se  Se126  1  0.41935558  0.76000737  0.55007214  1
  Se  Se127  1  0.74060491  0.08924178  0.07093472  1
  Se  Se128  1  0.74703049  0.07592895  0.55262886  1
  Se  Se129  1  0.74625667  0.41807532  0.05297068  1
  Se  Se130  1  0.75425387  0.41677462  0.54788887  1
  Se  Se131  1  0.76597786  0.77929944  0.06124608  1
  Se  Se132  1  0.74976558  0.74772114  0.54838309  1
  Se  Se133  1  0.24630976  0.24537484  0.04744936  1
  Se  Se134  1  0.25454296  0.25167174  0.55696502  1
  Se  Se135  1  0.25089653  0.57940509  0.06726793  1
  Se  Se136  1  0.25624848  0.58551180  0.55187135  1
  Se  Se137  1  0.26008851  0.92123490  0.05886803  1
  Se  Se138  1  0.24608450  0.92043522  0.55213950  1
  Se  Se139  1  0.58286319  0.24694416  0.05864789  1
  Se  Se140  1  0.59190095  0.25732460  0.55221139  1
  Se  Se141  1  0.58634407  0.58899371  0.05593201  1
  Se  Se142  1  0.59061146  0.59006659  0.55940475  1
  Se  Se143  1  0.59024987  0.92453879  0.06687108  1
  Se  Se144  1  0.57812983  0.91384286  0.54810158  1
  Se  Se145  1  0.92289496  0.25783783  0.05934760  1
  Se  Se146  1  0.91719107  0.24716320  0.55836597  1
  Se  Se147  1  0.90799434  0.58165065  0.04478937  1
  Se  Se148  1  0.91752575  0.58111307  0.55219070  1
  Se  Se149  1  0.94373843  0.94204545  0.05326565  1
  Se  Se150  1  0.91219170  0.91111368  0.55422183  1
  Se  Se151  1  0.08673028  0.25091332  0.45229783  1
  Se  Se152  1  0.08534507  0.24836792  0.94696616  1
  Se  Se153  1  0.08509315  0.58148647  0.44973409  1
  Se  Se154  1  0.07573067  0.59147413  0.93886261  1
  Se  Se155  1  0.08591965  0.91642608  0.45317683  1
  Se  Se156  1  0.08610595  0.92114878  0.92276422  1
  Se  Se157  1  0.41411039  0.26091611  0.44081860  1
  Se  Se158  1  0.42219836  0.24567990  0.94257693  1
  Se  Se159  1  0.41408636  0.60089269  0.43567882  1
  Se  Se160  1  0.42130716  0.57711239  0.95576313  1
  Se  Se161  1  0.41296860  0.92569633  0.44600326  1
  Se  Se162  1  0.41308617  0.91667376  0.93996472  1
  Se  Se163  1  0.75791433  0.22943100  0.44414958  1
  Se  Se164  1  0.74384512  0.25925982  0.94124423  1
  Se  Se165  1  0.75186592  0.57719003  0.44336070  1
  Se  Se166  1  0.74238770  0.59639476  0.94558312  1
  Se  Se167  1  0.75317520  0.90927924  0.44390960  1
  Se  Se168  1  0.75342068  0.92685342  0.95102298  1
  Se  Se169  1  0.24736987  0.09563170  0.45006995  1
  Se  Se170  1  0.25183059  0.08120123  0.93727702  1
  Se  Se171  1  0.25133950  0.42433732  0.45042639  1
  Se  Se172  1  0.25561572  0.40873826  0.94002581  1
  Se  Se173  1  0.24421662  0.75807751  0.44948058  1
  Se  Se174  1  0.25516409  0.73823181  0.95057697  1
  Se  Se175  1  0.59119708  0.07249038  0.43302108  1
  Se  Se176  1  0.58339836  0.08864009  0.95510641  1
  Se  Se177  1  0.59269909  0.40758943  0.44053675  1
  Se  Se178  1  0.57999991  0.41720864  0.94499354  1
  Se  Se179  1  0.58359978  0.74910495  0.44152677  1
  Se  Se180  1  0.59906265  0.74507853  0.94994204  1
  Se  Se181  1  0.92061269  0.07841189  0.45032918  1
  Se  Se182  1  0.92056807  0.08227399  0.93709445  1
  Se  Se183  1  0.91808202  0.41190803  0.45124708  1
  Se  Se184  1  0.91251548  0.42162373  0.94698691  1
  Se  Se185  1  0.91575832  0.74945482  0.44935153  1
  Se  Se186  1  0.91324233  0.76398772  0.94073690  1
  Se  Se187  1  0.24939274  0.25315211  0.30771752  1
  Se  Se188  1  0.25410520  0.24394271  0.79813368  1
  Se  Se189  1  0.25326628  0.58454155  0.30711861  1
  Se  Se190  1  0.24164917  0.57429689  0.81319132  1
  Se  Se191  1  0.24255848  0.91929172  0.31553162  1
  Se  Se192  1  0.25445782  0.91139827  0.79768806  1
  Se  Se193  1  0.58357403  0.24614779  0.29771527  1
  Se  Se194  1  0.58489396  0.25193665  0.80207084  1
  Se  Se195  1  0.58144285  0.58225358  0.30106624  1
  Se  Se196  1  0.57296297  0.57710243  0.81224493  1
  Se  Se197  1  0.58169732  0.90347605  0.29899339  1
  Se  Se198  1  0.57842039  0.90979050  0.80975162  1
  Se  Se199  1  0.91000240  0.24290728  0.31516027  1
  Se  Se200  1  0.90962550  0.24801142  0.81308465  1
  Se  Se201  1  0.91049202  0.57286460  0.30754328  1
  Se  Se202  1  0.91429228  0.59306319  0.79967766  1
  Se  Se203  1  0.91151466  0.90694199  0.30753005  1
  Se  Se204  1  0.91669185  0.91915446  0.79542967  1
  Se  Se205  1  0.08692009  0.09045206  0.30821566  1
  Se  Se206  1  0.07649086  0.08257535  0.79348696  1
  Se  Se207  1  0.08807167  0.42135724  0.31381876  1
  Se  Se208  1  0.08851014  0.42023474  0.81402155  1
  Se  Se209  1  0.08507591  0.75319756  0.31595732  1
  Se  Se210  1  0.08334247  0.74688131  0.79316394  1
  Se  Se211  1  0.42751136  0.09228615  0.30863294  1
  Se  Se212  1  0.42113064  0.07846410  0.80493482  1
  Se  Se213  1  0.41418766  0.41454061  0.30471645  1
  Se  Se214  1  0.41227647  0.41316874  0.80396098  1
  Se  Se215  1  0.40455632  0.75490972  0.29995316  1
  Se  Se216  1  0.42367769  0.75071864  0.81338700  1
  Se  Se217  1  0.75218577  0.07252940  0.30285383  1
  Se  Se218  1  0.75501344  0.09366705  0.81085024  1
  Se  Se219  1  0.74928116  0.41228105  0.30549746  1
  Se  Se220  1  0.74387752  0.42393927  0.79946012  1
  Se  Se221  1  0.74916916  0.74045599  0.30424581  1
  Se  Se222  1  0.75498745  0.76133270  0.80900665  1
  Se  Se223  1  0.24443204  0.08958058  0.18779897  1
  Se  Se224  1  0.26453758  0.06662310  0.69691705  1
  Se  Se225  1  0.25024526  0.40861203  0.20031642  1
  Se  Se226  1  0.25127533  0.41425994  0.69816872  1
  Se  Se227  1  0.24879627  0.74305983  0.20470452  1
  Se  Se228  1  0.24652534  0.75405775  0.68402168  1
  Se  Se229  1  0.58887479  0.07503042  0.20427470  1
  Se  Se230  1  0.57505808  0.09438150  0.68696105  1
  Se  Se231  1  0.58019350  0.41412005  0.19619782  1
  Se  Se232  1  0.58568709  0.41390366  0.69470688  1
  Se  Se233  1  0.57580770  0.75588853  0.20395981  1
  Se  Se234  1  0.57763593  0.75276727  0.69172870  1
  Se  Se235  1  0.90500921  0.09042560  0.18542920  1
  Se  Se236  1  0.91548019  0.08327197  0.69838920  1
  Se  Se237  1  0.91161195  0.42257524  0.18890332  1
  Se  Se238  1  0.90997346  0.42188729  0.69232078  1
  Se  Se239  1  0.90329944  0.74630704  0.18550570  1
  Se  Se240  1  0.91797504  0.74738151  0.69204484  1
  Se  Se241  1  0.08369331  0.24201098  0.18889661  1
  Se  Se242  1  0.09489815  0.23994794  0.69369404  1
  Se  Se243  1  0.09044190  0.57261685  0.19498248  1
  Se  Se244  1  0.08268666  0.58274535  0.69639643  1
  Se  Se245  1  0.09130828  0.90540436  0.19446868  1
  Se  Se246  1  0.08043125  0.91961935  0.69163359  1
  Se  Se247  1  0.41011307  0.25027535  0.19394020  1
  Se  Se248  1  0.41532592  0.25642222  0.69924476  1
  Se  Se249  1  0.41103765  0.58274313  0.19832904  1
  Se  Se250  1  0.42432455  0.57612705  0.69303701  1
  Se  Se251  1  0.42136692  0.91238573  0.19126369  1
  Se  Se252  1  0.41660075  0.91865507  0.69643458  1
  Se  Se253  1  0.75125481  0.25738236  0.20523349  1
  Se  Se254  1  0.74834572  0.25358978  0.69488705  1
  Se  Se255  1  0.74548878  0.58188287  0.19181405  1
  Se  Se256  1  0.75524187  0.58016988  0.68697122  1
  Se  Se257  1  0.75422788  0.92130935  0.19967909  1
  Se  Se258  1  0.74860748  0.91137997  0.68682689  1
