# generated using pymatgen
data_In86Cu29Se144
_symmetry_space_group_name_H-M   'P 1'
_cell_length_a   17.57244815
_cell_length_b   17.56886337
_cell_length_c   23.43296270
_cell_angle_alpha   89.97461864
_cell_angle_beta   89.99869929
_cell_angle_gamma   90.00142050
_symmetry_Int_Tables_number   1
_chemical_formula_structural   In86Cu29Se144
_chemical_formula_sum   'In86 Cu29 Se144'
_cell_volume   7234.40960570
_cell_formula_units_Z   1
loop_
 _symmetry_equiv_pos_site_id
 _symmetry_equiv_pos_as_xyz
  1  'x, y, z'
loop_
 _atom_site_type_symbol
 _atom_site_label
 _atom_site_symmetry_multiplicity
 _atom_site_fract_x
 _atom_site_fract_y
 _atom_site_fract_z
 _atom_site_occupancy
  In  In0  1  0.00549622  0.17606714  0.12495115  1
  In  In1  1  0.00493652  0.16796789  0.63624564  1
  In  In2  1  -0.00261413  0.50694914  0.12597841  1
  In  In3  1  -0.00887481  0.50132793  0.62327919  1
  In  In4  1  -0.01566566  0.83424190  0.12207697  1
  In  In5  1  0.00453480  0.82652607  0.61655553  1
  In  In6  1  0.33689598  0.15411582  0.12193697  1
  In  In7  1  0.33732570  0.17586388  0.63217467  1
  In  In8  1  0.34309393  0.51276070  0.11776167  1
  In  In9  1  0.33656332  0.50051077  0.62783539  1
  In  In10  1  0.34239451  0.81240927  0.12979369  1
  In  In11  1  0.33079791  0.82001987  0.61625879  1
  In  In12  1  0.66262234  0.17552532  0.13409595  1
  In  In13  1  0.66848728  0.15748414  0.62458075  1
  In  In14  1  0.66540461  0.50141697  0.12806283  1
  In  In15  1  0.67999639  0.51122518  0.61753930  1
  In  In16  1  0.66528072  0.82987941  0.12917644  1
  In  In17  1  0.64196815  0.82206226  0.60410778  1
  In  In18  1  0.15224440  -0.01967432  0.37194562  1
  In  In19  1  0.15837255  0.01695378  0.86941218  1
  In  In20  1  0.14922204  0.36246878  0.37506659  1
  In  In21  1  0.17675695  0.34039433  0.86844801  1
  In  In22  1  0.16912759  0.66542422  0.36311507  1
  In  In23  1  0.16740151  0.65246640  0.87417507  1
  In  In24  1  0.50957533  -0.01663255  0.37954808  1
  In  In25  1  0.52156336  -0.01354729  0.89572448  1
  In  In26  1  0.51511487  0.33545355  0.37058390  1
  In  In27  1  0.49256830  0.34536852  0.88325668  1
  In  In28  1  0.50570756  0.66123993  0.37350021  1
  In  In29  1  0.50216563  0.66599907  0.87282236  1
  In  In30  1  0.81082478  -0.01926781  0.36482040  1
  In  In31  1  0.83133134  -0.00932612  0.87414801  1
  In  In32  1  0.84212545  0.33976227  0.36123727  1
  In  In33  1  0.84537599  0.33590172  0.87766358  1
  In  In34  1  0.83070844  0.66600845  0.37476376  1
  In  In35  1  0.82675472  0.67244687  0.88280295  1
  In  In36  1  -0.02196104  0.17923319  0.37120719  1
  In  In37  1  0.01622091  0.17698112  0.85554105  1
  In  In38  1  -0.00587077  0.48809348  0.36437820  1
  In  In39  1  0.00944744  0.49832153  0.88486744  1
  In  In40  1  0.01119266  0.80967606  0.39621644  1
  In  In41  1  -0.01669558  0.82888372  0.87247374  1
  In  In42  1  0.33873133  0.16785027  0.37682490  1
  In  In43  1  0.33500844  0.17780195  0.87473385  1
  In  In44  1  0.33146399  0.54271397  0.37170425  1
  In  In45  1  0.33710959  0.50021064  0.87293763  1
  In  In46  1  0.35858405  0.79590092  0.39862006  1
  In  In47  1  0.34924301  0.83307922  0.87042315  1
  In  In48  1  0.68250424  0.17352846  0.35509458  1
  In  In49  1  0.65950252  0.15301978  0.88182151  1
  In  In50  1  0.66500686  0.50097793  0.37404638  1
  In  In51  1  0.65649824  0.51361722  0.88509914  1
  In  In52  1  0.67000383  0.82972090  0.37427161  1
  In  In53  1  0.67870577  0.82509024  0.88345928  1
  In  In54  1  0.16196792  0.00918601  0.12487304  1
  In  In55  1  0.16685619  -0.01604417  0.62810281  1
  In  In56  1  0.14923532  0.34340439  0.13101549  1
  In  In57  1  0.16235845  0.33980850  0.63720760  1
  In  In58  1  0.18057466  0.65086368  0.14243410  1
  In  In59  1  0.17033250  0.67819584  0.61907932  1
  In  In60  1  0.52061535  0.01126913  0.10922012  1
  In  In61  1  0.50742298  -0.01814267  0.62376374  1
  In  In62  1  0.50485520  0.34767260  0.11884885  1
  In  In63  1  0.48645529  0.33139839  0.63117653  1
  In  In64  1  0.50438364  0.66677835  0.12658272  1
  In  In65  1  0.50270388  0.66304048  0.62374857  1
  In  In66  1  0.82830416  -0.01715314  0.12064380  1
  In  In67  1  0.83389886  0.00122939  0.62234369  1
  In  In68  1  0.81786181  0.34198250  0.13883289  1
  In  In69  1  0.84236236  0.35058046  0.62482715  1
  In  In70  1  0.83113396  0.66592792  0.12782476  1
  In  In71  1  0.83147184  0.65508459  0.61527620  1
  In  In72  1  0.33662348  0.34014544  0.24849464  1
  In  In73  1  0.16802440  0.83067384  0.00409107  1
  In  In74  1  0.16937938  0.16357894  0.50584071  1
  In  In75  1  0.50542405  0.16027350  0.50373936  1
  In  In76  1  0.32830997  0.00877505  0.75287246  1
  In  In77  1  0.83146490  0.16633215  -0.00003089  1
  In  In78  1  0.16460224  0.51418706  0.50169601  1
  In  In79  1  0.00332353  0.66546583  0.74406095  1
  In  In80  1  -0.00485215  -0.00365328  0.24788473  1
  In  In81  1  0.17184417  0.17592986  -0.00405867  1
  In  In82  1  0.33643475  -0.01165623  0.25200358  1
  In  In83  1  0.66823878  -0.00512906  0.75142676  1
  In  In84  1  0.83237138  0.16038667  0.49419379  1
  In  In85  1  0.66931913  0.34120257  0.75500259  1
  Cu  Cu86  1  0.33668258  0.34949745  0.50056580  1
  Cu  Cu87  1  0.49258275  0.16755888  0.75853025  1
  Cu  Cu88  1  0.32438691  -0.00694747  0.50338768  1
  Cu  Cu89  1  0.82670575  0.83271543  0.75031146  1
  Cu  Cu90  1  -0.00265375  0.34536373  0.00310739  1
  Cu  Cu91  1  0.66404522  0.66257302  0.49521857  1
  Cu  Cu92  1  -0.00623192  0.33323111  0.49449584  1
  Cu  Cu93  1  0.33638938  0.66220255  -0.00013461  1
  Cu  Cu94  1  0.32924718  0.33934786  -0.00147799  1
  Cu  Cu95  1  0.83875964  0.50707896  0.75009887  1
  Cu  Cu96  1  -0.00868332  -0.00122213  -0.01104800  1
  Cu  Cu97  1  0.50413837  0.82883043  0.25347127  1
  Cu  Cu98  1  0.66427587  0.33470511  0.00840392  1
  Cu  Cu99  1  0.34366885  -0.00925971  0.00206967  1
  Cu  Cu100  1  0.50604021  0.16225668  0.24445070  1
  Cu  Cu101  1  0.16214282  0.17968589  0.25681986  1
  Cu  Cu102  1  0.83297891  0.82771366  0.25177717  1
  Cu  Cu103  1  0.83931890  0.17428969  0.74723608  1
  Cu  Cu104  1  0.50117827  0.50242336  0.75155192  1
  Cu  Cu105  1  0.17512906  0.49694926  0.75317281  1
  Cu  Cu106  1  0.82832227  0.50491077  0.24965486  1
  Cu  Cu107  1  -0.00425547  0.66932238  0.00407164  1
  Cu  Cu108  1  0.16640302  0.83430979  0.74322571  1
  Cu  Cu109  1  0.17084314  0.82653648  0.25676943  1
  Cu  Cu110  1  0.50143816  0.50334385  0.24635313  1
  Cu  Cu111  1  -0.00460381  -0.01131110  0.49898254  1
  Cu  Cu112  1  0.66844664  0.66515883  0.00687608  1
  Cu  Cu113  1  0.50067820  0.82165109  0.74627194  1
  Cu  Cu114  1  0.66849648  0.34304202  0.49766792  1
  Se  Se115  1  0.07246483  0.08013829  0.04882646  1
  Se  Se116  1  0.07200986  0.07396574  0.55958698  1
  Se  Se117  1  0.08390050  0.42645750  0.05468116  1
  Se  Se118  1  0.07937398  0.40807734  0.55556580  1
  Se  Se119  1  0.08032376  0.74395697  0.06614031  1
  Se  Se120  1  0.06497440  0.72412302  0.55189083  1
  Se  Se121  1  0.42088081  0.08601512  0.04823752  1
  Se  Se122  1  0.40560210  0.07484957  0.56387128  1
  Se  Se123  1  0.41651513  0.42194266  0.04990213  1
  Se  Se124  1  0.42379852  0.42181614  0.55776279  1
  Se  Se125  1  0.42091149  0.74475304  0.05190985  1
  Se  Se126  1  0.44241886  0.76835226  0.55844811  1
  Se  Se127  1  0.74307934  0.08231839  0.06292849  1
  Se  Se128  1  0.73678681  0.07095287  0.54988520  1
  Se  Se129  1  0.74983764  0.41710506  0.05883300  1
  Se  Se130  1  0.75782916  0.41957105  0.55133477  1
  Se  Se131  1  0.75155508  0.75164276  0.05793373  1
  Se  Se132  1  0.74640577  0.74361073  0.55206468  1
  Se  Se133  1  0.25446232  0.26059620  0.06574020  1
  Se  Se134  1  0.25735070  0.26425100  0.55905358  1
  Se  Se135  1  0.24579785  0.58857672  0.05444419  1
  Se  Se136  1  0.26627226  0.59643433  0.55544776  1
  Se  Se137  1  0.25876448  0.92205454  0.06595698  1
  Se  Se138  1  0.24264663  0.90698601  0.55395084  1
  Se  Se139  1  0.58146106  0.24870545  0.05869032  1
  Se  Se140  1  0.59370829  0.25989454  0.56181110  1
  Se  Se141  1  0.58237116  0.58030851  0.05648070  1
  Se  Se142  1  0.58301738  0.57958954  0.55227085  1
  Se  Se143  1  0.57030046  0.89370754  0.05801536  1
  Se  Se144  1  0.58832184  0.93189072  0.54220739  1
  Se  Se145  1  0.91746691  0.26139172  0.06000538  1
  Se  Se146  1  0.92174075  0.24963136  0.55824521  1
  Se  Se147  1  0.91081315  0.58378098  0.05506167  1
  Se  Se148  1  0.92422370  0.58272587  0.54856072  1
  Se  Se149  1  0.91322502  0.91474694  0.04508487  1
  Se  Se150  1  0.91200677  0.91190381  0.55638676  1
  Se  Se151  1  0.07990280  0.25201882  0.43965350  1
  Se  Se152  1  0.07447171  0.26247397  0.94067485  1
  Se  Se153  1  0.07340279  0.58411206  0.43167256  1
  Se  Se154  1  0.08459440  0.58979602  0.95225690  1
  Se  Se155  1  0.09037482  0.90819581  0.45549837  1
  Se  Se156  1  0.08064495  0.91862780  0.93682318  1
  Se  Se157  1  0.41545451  0.25856764  0.44618249  1
  Se  Se158  1  0.41394285  0.25296503  0.94876041  1
  Se  Se159  1  0.42119439  0.58827980  0.44839303  1
  Se  Se160  1  0.41945193  0.58231080  0.94242678  1
  Se  Se161  1  0.41267050  0.91849570  0.44729742  1
  Se  Se162  1  0.42291340  0.90325936  0.94993416  1
  Se  Se163  1  0.74682715  0.25936348  0.43780793  1
  Se  Se164  1  0.74036270  0.25913984  0.94004975  1
  Se  Se165  1  0.75010459  0.57973878  0.44401257  1
  Se  Se166  1  0.75254191  0.58303311  0.95179605  1
  Se  Se167  1  0.75389166  0.90626011  0.44767767  1
  Se  Se168  1  0.73354665  0.93639020  0.94308367  1
  Se  Se169  1  0.25188732  0.07355928  0.43839272  1
  Se  Se170  1  0.25886668  0.07191826  0.94423391  1
  Se  Se171  1  0.25656842  0.42486194  0.43835563  1
  Se  Se172  1  0.24849301  0.42145526  0.94313377  1
  Se  Se173  1  0.23477318  0.74649901  0.44179396  1
  Se  Se174  1  0.25741439  0.74526761  0.93867274  1
  Se  Se175  1  0.59439030  0.09150226  0.43044429  1
  Se  Se176  1  0.58247545  0.08763853  0.95954849  1
  Se  Se177  1  0.57937896  0.42091511  0.44623984  1
  Se  Se178  1  0.58405114  0.41800639  0.95036617  1
  Se  Se179  1  0.58312899  0.74960943  0.44289115  1
  Se  Se180  1  0.58776902  0.74278134  0.94501412  1
  Se  Se181  1  0.92116369  0.06827658  0.43400711  1
  Se  Se182  1  0.92370966  0.08994393  0.92991890  1
  Se  Se183  1  0.91154509  0.41552604  0.44095418  1
  Se  Se184  1  0.91159584  0.42598604  0.94948275  1
  Se  Se185  1  0.88647211  0.77024013  0.44343655  1
  Se  Se186  1  0.91357195  0.75395966  0.95091710  1
  Se  Se187  1  0.24604489  0.25531120  0.31606718  1
  Se  Se188  1  0.22991608  0.22749691  0.80972891  1
  Se  Se189  1  0.23065321  0.56514481  0.29594270  1
  Se  Se190  1  0.25613439  0.58523477  0.80231212  1
  Se  Se191  1  0.25631764  0.89979908  0.31836280  1
  Se  Se192  1  0.24102550  0.91093782  0.81159107  1
  Se  Se193  1  0.58484896  0.25261178  0.29568900  1
  Se  Se194  1  0.58024822  0.24620453  0.81356729  1
  Se  Se195  1  0.58722482  0.58382780  0.30094833  1
  Se  Se196  1  0.58795418  0.58433565  0.80271931  1
  Se  Se197  1  0.58866001  0.91567171  0.30233189  1
  Se  Se198  1  0.57683975  0.90459874  0.80944653  1
  Se  Se199  1  0.91204638  0.24988912  0.29050716  1
  Se  Se200  1  0.91856868  0.26095728  0.80030769  1
  Se  Se201  1  0.91369872  0.58423897  0.30453313  1
  Se  Se202  1  0.91806304  0.58450214  0.81448167  1
  Se  Se203  1  0.92117208  0.90186082  0.31345689  1
  Se  Se204  1  0.91325667  0.91618083  0.79995755  1
  Se  Se205  1  0.08422186  0.08943136  0.31175091  1
  Se  Se206  1  0.07007437  0.07009193  0.79278292  1
  Se  Se207  1  0.07728312  0.41514238  0.28990459  1
  Se  Se208  1  0.08395889  0.42317742  0.80727722  1
  Se  Se209  1  0.07452735  0.75261879  0.30538235  1
  Se  Se210  1  0.08959209  0.75582865  0.80929233  1
  Se  Se211  1  0.42672595  0.08575491  0.30903125  1
  Se  Se212  1  0.42692880  0.07737785  0.82048945  1
  Se  Se213  1  0.42101056  0.42883489  0.31364067  1
  Se  Se214  1  0.41912740  0.41506971  0.80323371  1
  Se  Se215  1  0.41869214  0.74609350  0.30547134  1
  Se  Se216  1  0.41480659  0.74151194  0.79993316  1
  Se  Se217  1  0.77080162  0.08731065  0.29673954  1
  Se  Se218  1  0.75755623  0.09516760  0.80630901  1
  Se  Se219  1  0.74510316  0.41890476  0.30223710  1
  Se  Se220  1  0.75818366  0.43124816  0.81476403  1
  Se  Se221  1  0.74617518  0.74498217  0.30249205  1
  Se  Se222  1  0.74956555  0.74693714  0.80548181  1
  Se  Se223  1  0.24196659  0.09292249  0.20018019  1
  Se  Se224  1  0.23626203  0.09242299  0.68911654  1
  Se  Se225  1  0.24947518  0.42728292  0.18611358  1
  Se  Se226  1  0.25939021  0.41468822  0.69884114  1
  Se  Se227  1  0.25837581  0.74539227  0.20546095  1
  Se  Se228  1  0.25186381  0.75007415  0.69481877  1
  Se  Se229  1  0.58765573  0.07377099  0.19539623  1
  Se  Se230  1  0.57034618  0.08810007  0.69512196  1
  Se  Se231  1  0.58311777  0.41474038  0.19744920  1
  Se  Se232  1  0.58215571  0.42405988  0.68839297  1
  Se  Se233  1  0.58648886  0.74401841  0.19965375  1
  Se  Se234  1  0.59006711  0.74776380  0.69156103  1
  Se  Se235  1  0.91382238  0.08302495  0.18084087  1
  Se  Se236  1  0.91226244  0.08167838  0.69415213  1
  Se  Se237  1  0.91418245  0.42332369  0.19600958  1
  Se  Se238  1  0.92291672  0.42007757  0.70148154  1
  Se  Se239  1  0.91785155  0.74862822  0.19654647  1
  Se  Se240  1  0.90658572  0.75233823  0.68953503  1
  Se  Se241  1  0.07608899  0.25581524  0.20152516  1
  Se  Se242  1  0.07823445  0.25805576  0.70164882  1
  Se  Se243  1  0.06498059  0.60027176  0.19616034  1
  Se  Se244  1  0.09671083  0.57411585  0.68749517  1
  Se  Se245  1  0.09513595  0.90741912  0.19068283  1
  Se  Se246  1  0.07434208  0.90956529  0.69355594  1
  Se  Se247  1  0.42116136  0.24226306  0.18776389  1
  Se  Se248  1  0.41057873  0.25458045  0.70785933  1
  Se  Se249  1  0.41589795  0.58717938  0.19623263  1
  Se  Se250  1  0.41907888  0.58488244  0.69561413  1
  Se  Se251  1  0.42941041  0.91023283  0.18753243  1
  Se  Se252  1  0.41634968  0.91088712  0.69506792  1
  Se  Se253  1  0.75654274  0.24019431  0.20293590  1
  Se  Se254  1  0.75432962  0.24937322  0.68809781  1
  Se  Se255  1  0.74441405  0.58738927  0.19698281  1
  Se  Se256  1  0.75414111  0.58589286  0.69551106  1
  Se  Se257  1  0.75131164  0.91239052  0.19863748  1
  Se  Se258  1  0.74720983  0.90638359  0.68477206  1
