# generated using pymatgen
data_In86Cu29Se144
_symmetry_space_group_name_H-M   'P 1'
_cell_length_a   17.58647891
_cell_length_b   17.59531635
_cell_length_c   23.45630498
_cell_angle_alpha   90.01369666
_cell_angle_beta   90.00210838
_cell_angle_gamma   89.99415146
_symmetry_Int_Tables_number   1
_chemical_formula_structural   In86Cu29Se144
_chemical_formula_sum   'In86 Cu29 Se144'
_cell_volume   7258.31078040
_cell_formula_units_Z   1
loop_
 _symmetry_equiv_pos_site_id
 _symmetry_equiv_pos_as_xyz
  1  'x, y, z'
loop_
 _atom_site_type_symbol
 _atom_site_label
 _atom_site_symmetry_multiplicity
 _atom_site_fract_x
 _atom_site_fract_y
 _atom_site_fract_z
 _atom_site_occupancy
  In  In0  1  0.00856973  0.17620870  0.11649237  1
  In  In1  1  -0.01380649  0.16183748  0.62327205  1
  In  In2  1  -0.00310639  0.49629251  0.13391731  1
  In  In3  1  0.00434139  0.50297327  0.62260193  1
  In  In4  1  -0.00747608  0.82896837  0.12922992  1
  In  In5  1  0.01550612  0.83403984  0.62454171  1
  In  In6  1  0.33602217  0.16453171  0.12413007  1
  In  In7  1  0.33359082  0.15365394  0.62545331  1
  In  In8  1  0.34615915  0.49325120  0.13768104  1
  In  In9  1  0.35709009  0.50128129  0.63205899  1
  In  In10  1  0.34215694  0.82222700  0.13459277  1
  In  In11  1  0.33903930  0.82676174  0.62397651  1
  In  In12  1  0.64926342  0.16015529  0.11043081  1
  In  In13  1  0.66287673  0.16586821  0.62533056  1
  In  In14  1  0.66212364  0.50696024  0.12776284  1
  In  In15  1  0.64165927  0.50233337  0.63881914  1
  In  In16  1  0.65636366  0.84390205  0.13413443  1
  In  In17  1  0.66440264  0.84646788  0.62431247  1
  In  In18  1  0.17094573  -0.01343416  0.38061691  1
  In  In19  1  0.18077025  0.01186099  0.86283027  1
  In  In20  1  0.17764122  0.34291497  0.36556109  1
  In  In21  1  0.15807342  0.33370274  0.87657968  1
  In  In22  1  0.17900391  0.67685541  0.37025400  1
  In  In23  1  0.18317325  0.66187483  0.87008946  1
  In  In24  1  0.50020106  0.00155316  0.37459250  1
  In  In25  1  0.49794819  -0.00223290  0.87162316  1
  In  In26  1  0.49665443  0.33927703  0.37743353  1
  In  In27  1  0.51320950  0.32494968  0.89054805  1
  In  In28  1  0.50341068  0.67519871  0.37678937  1
  In  In29  1  0.49422448  0.67887752  0.88559163  1
  In  In30  1  0.83085126  0.01446921  0.37939830  1
  In  In31  1  0.83926176  0.01088553  0.86713422  1
  In  In32  1  0.82820989  0.31598050  0.37064617  1
  In  In33  1  0.78930796  0.32157351  0.86990582  1
  In  In34  1  0.82550297  0.66200731  0.36851436  1
  In  In35  1  0.84175519  0.66208705  0.87694185  1
  In  In36  1  -0.01004113  0.16505549  0.37432435  1
  In  In37  1  0.00567505  0.16312960  0.88288708  1
  In  In38  1  0.00412073  0.50264602  0.36706414  1
  In  In39  1  0.00339904  0.50012412  0.87339232  1
  In  In40  1  0.01457902  0.83640252  0.38029371  1
  In  In41  1  -0.01132659  0.83790703  0.87429176  1
  In  In42  1  0.34471739  0.17804312  0.36622710  1
  In  In43  1  0.34604885  0.16067093  0.88080086  1
  In  In44  1  0.37015305  0.52763116  0.34535911  1
  In  In45  1  0.34398284  0.51698701  0.87004808  1
  In  In46  1  0.33668114  0.83700122  0.37670188  1
  In  In47  1  0.33872031  0.84648106  0.86323496  1
  In  In48  1  0.67026853  0.15937560  0.37715688  1
  In  In49  1  0.66402616  0.16311334  0.87878982  1
  In  In50  1  0.64517906  0.50803396  0.37760494  1
  In  In51  1  0.65239325  0.47053836  0.85947374  1
  In  In52  1  0.64503347  0.81827832  0.36607008  1
  In  In53  1  0.65038298  0.83057851  0.87339393  1
  In  In54  1  0.17226681  0.01565445  0.12129630  1
  In  In55  1  0.19347418  -0.03196911  0.65087995  1
  In  In56  1  0.17368654  0.32630477  0.12735651  1
  In  In57  1  0.17292592  0.33395744  0.62524447  1
  In  In58  1  0.17333748  0.65760257  0.13577906  1
  In  In59  1  0.17422039  0.68528305  0.62348308  1
  In  In60  1  0.49833741  -0.00164952  0.12420627  1
  In  In61  1  0.49930559  0.00141306  0.62311301  1
  In  In62  1  0.49887341  0.32631980  0.11999200  1
  In  In63  1  0.51225803  0.34411011  0.61865388  1
  In  In64  1  0.49765645  0.66727441  0.12823241  1
  In  In65  1  0.48979679  0.64974151  0.61134602  1
  In  In66  1  0.81782837  0.00163490  0.12641668  1
  In  In67  1  0.81844938  0.01070089  0.63440108  1
  In  In68  1  0.83946956  0.33469292  0.12358514  1
  In  In69  1  0.83204243  0.31698664  0.62180316  1
  In  In70  1  0.83376876  0.66151915  0.13782919  1
  In  In71  1  0.82366552  0.66622289  0.62011506  1
  In  In72  1  0.66427177  0.33382482  0.24333542  1
  In  In73  1  0.34037105  0.33181427  0.75113365  1
  In  In74  1  0.17851504  0.50063531  0.49811845  1
  In  In75  1  0.00277515  -0.00210303  0.25246933  1
  In  In76  1  0.00855524  0.67183488  0.74782300  1
  In  In77  1  0.17272070  0.49565828  -0.00181917  1
  In  In78  1  0.66408273  0.66834433  0.74753024  1
  In  In79  1  0.17036612  0.83945397  -0.00601109  1
  In  In80  1  -0.00453452  0.33428706  0.75495863  1
  In  In81  1  0.16539370  0.15791812  0.50459222  1
  In  In82  1  0.82289385  0.84005251  0.00875798  1
  In  In83  1  0.82562607  0.83931848  0.50277279  1
  In  In84  1  0.82308252  0.49439244  -0.00799610  1
  In  In85  1  0.82048194  0.49208375  0.49112106  1
  Cu  Cu86  1  0.83393676  0.16588262  0.24849158  1
  Cu  Cu87  1  0.33694226  -0.00335185  0.50315066  1
  Cu  Cu88  1  0.00213951  0.66441755  0.01021332  1
  Cu  Cu89  1  0.83079329  0.49602935  0.25218565  1
  Cu  Cu90  1  0.33643895  0.67117841  0.49328740  1
  Cu  Cu91  1  0.34325517  0.33627462  0.49374496  1
  Cu  Cu92  1  0.66227434  0.00405723  0.50078751  1
  Cu  Cu93  1  0.66178818  0.00037003  -0.00209582  1
  Cu  Cu94  1  0.83246362  0.83090333  0.25161615  1
  Cu  Cu95  1  0.34544557  0.66846126  0.00485591  1
  Cu  Cu96  1  -0.00059146  0.67072410  0.49851877  1
  Cu  Cu97  1  0.82497584  0.16887816  0.75131584  1
  Cu  Cu98  1  0.17085842  0.16683243  0.24613349  1
  Cu  Cu99  1  0.16952057  0.83242240  0.25507222  1
  Cu  Cu100  1  0.33924627  -0.00060220  -0.00265718  1
  Cu  Cu101  1  0.00258998  0.00016663  0.50599158  1
  Cu  Cu102  1  0.33346096  0.32999511  0.00581825  1
  Cu  Cu103  1  0.83226715  0.83768117  0.74824126  1
  Cu  Cu104  1  -0.00062757  0.32407549  0.49431251  1
  Cu  Cu105  1  0.50079302  0.16216146  0.24401147  1
  Cu  Cu106  1  0.66239302  0.66517843  0.00330940  1
  Cu  Cu107  1  0.50275553  0.16331717  0.75362567  1
  Cu  Cu108  1  0.66679476  0.32626342  0.49987817  1
  Cu  Cu109  1  -0.00509534  0.32831593  -0.00159453  1
  Cu  Cu110  1  0.49661120  0.83569104  0.74718067  1
  Cu  Cu111  1  0.16247637  0.16435880  0.75240852  1
  Cu  Cu112  1  0.15757136  0.49618278  0.24915739  1
  Cu  Cu113  1  -0.00054913  0.01114009  -0.00401539  1
  Cu  Cu114  1  0.49898336  0.83604167  0.25167067  1
  Se  Se115  1  0.08793866  0.08811316  0.04930105  1
  Se  Se116  1  0.08447847  0.07140393  0.57130175  1
  Se  Se117  1  0.07442624  0.41232450  0.05777614  1
  Se  Se118  1  0.07831826  0.40617700  0.55250661  1
  Se  Se119  1  0.08669050  0.74736442  0.06214284  1
  Se  Se120  1  0.08598280  0.75166583  0.54939259  1
  Se  Se121  1  0.41914162  0.08335149  0.05381907  1
  Se  Se122  1  0.41840569  0.08579939  0.55178633  1
  Se  Se123  1  0.41358530  0.41783548  0.05708777  1
  Se  Se124  1  0.41954771  0.42034628  0.55257434  1
  Se  Se125  1  0.42356502  0.75741895  0.05633931  1
  Se  Se126  1  0.42084358  0.75104327  0.54977659  1
  Se  Se127  1  0.74829027  0.08122670  0.05059486  1
  Se  Se128  1  0.74878606  0.08478689  0.55458127  1
  Se  Se129  1  0.73988380  0.41114789  0.06052182  1
  Se  Se130  1  0.74098163  0.41037744  0.56253225  1
  Se  Se131  1  0.74298900  0.74078449  0.06682042  1
  Se  Se132  1  0.73261636  0.74367709  0.55479605  1
  Se  Se133  1  0.24836443  0.24490274  0.05427373  1
  Se  Se134  1  0.26131038  0.25826655  0.55445036  1
  Se  Se135  1  0.25924539  0.58685964  0.05942866  1
  Se  Se136  1  0.26300159  0.59096839  0.56088508  1
  Se  Se137  1  0.25963827  0.92050371  0.06024005  1
  Se  Se138  1  0.25272687  0.91579393  0.55812641  1
  Se  Se139  1  0.58482935  0.25870693  0.04609795  1
  Se  Se140  1  0.58048624  0.24598255  0.55350478  1
  Se  Se141  1  0.57870953  0.58355508  0.05694247  1
  Se  Se142  1  0.58978502  0.57498622  0.55316935  1
  Se  Se143  1  0.58378142  0.91562706  0.05457668  1
  Se  Se144  1  0.58008760  0.91840389  0.55158963  1
  Se  Se145  1  0.91077117  0.24713122  0.05191935  1
  Se  Se146  1  0.91524264  0.24392957  0.54806660  1
  Se  Se147  1  0.91512612  0.58163246  0.05963154  1
  Se  Se148  1  0.91810087  0.58528589  0.55162066  1
  Se  Se149  1  0.92592859  0.92919459  0.05965421  1
  Se  Se150  1  0.91650310  0.92387138  0.56587567  1
  Se  Se151  1  0.08780125  0.25153044  0.43656428  1
  Se  Se152  1  0.08741481  0.25003542  0.94967692  1
  Se  Se153  1  0.08164427  0.58912469  0.44095313  1
  Se  Se154  1  0.08051062  0.59398689  0.94322697  1
  Se  Se155  1  0.08704506  0.91643385  0.45535002  1
  Se  Se156  1  0.07700604  0.92848101  0.93673932  1
  Se  Se157  1  0.42306992  0.24546496  0.44527747  1
  Se  Se158  1  0.41808338  0.24664629  0.95218410  1
  Se  Se159  1  0.41703477  0.58386649  0.44085494  1
  Se  Se160  1  0.42248428  0.58047133  0.95064658  1
  Se  Se161  1  0.42046282  0.91770496  0.44591458  1
  Se  Se162  1  0.41686255  0.91290904  0.94242809  1
  Se  Se163  1  0.75200851  0.24394649  0.44726830  1
  Se  Se164  1  0.74447328  0.24187863  0.95278236  1
  Se  Se165  1  0.73492603  0.59593887  0.44394756  1
  Se  Se166  1  0.73699111  0.59148942  0.93610399  1
  Se  Se167  1  0.73894755  0.92315214  0.43715964  1
  Se  Se168  1  0.74386527  0.92172147  0.93639338  1
  Se  Se169  1  0.26080108  0.08005802  0.44045010  1
  Se  Se170  1  0.25202928  0.08091306  0.94445177  1
  Se  Se171  1  0.26796560  0.41954039  0.43380831  1
  Se  Se172  1  0.26345333  0.40931097  0.93687677  1
  Se  Se173  1  0.24917962  0.75611064  0.44661771  1
  Se  Se174  1  0.26373638  0.74479613  0.94232628  1
  Se  Se175  1  0.57969820  0.08678492  0.44559734  1
  Se  Se176  1  0.57537918  0.08008277  0.94422757  1
  Se  Se177  1  0.58476970  0.41265356  0.44836981  1
  Se  Se178  1  0.58836617  0.42470062  0.95023787  1
  Se  Se179  1  0.57612241  0.75952973  0.45060810  1
  Se  Se180  1  0.58309857  0.75647528  0.95385797  1
  Se  Se181  1  0.92157035  0.08261012  0.45076421  1
  Se  Se182  1  0.90810128  0.08847360  0.94615089  1
  Se  Se183  1  0.92243768  0.40819572  0.43583353  1
  Se  Se184  1  0.91971809  0.40768274  0.93489061  1
  Se  Se185  1  0.91521158  0.74774237  0.44001221  1
  Se  Se186  1  0.92065387  0.74660988  0.95257899  1
  Se  Se187  1  0.25318400  0.25189642  0.29917126  1
  Se  Se188  1  0.24445938  0.24500101  0.81107897  1
  Se  Se189  1  0.24190786  0.57720519  0.30404580  1
  Se  Se190  1  0.25240718  0.57832835  0.79847637  1
  Se  Se191  1  0.25258582  0.91861813  0.30489648  1
  Se  Se192  1  0.23928408  0.90958456  0.79834896  1
  Se  Se193  1  0.58023125  0.24240388  0.30686954  1
  Se  Se194  1  0.58083550  0.24780641  0.80980644  1
  Se  Se195  1  0.57071589  0.58338682  0.30398401  1
  Se  Se196  1  0.57792544  0.58706554  0.81479633  1
  Se  Se197  1  0.58397659  0.92228887  0.30232262  1
  Se  Se198  1  0.58245223  0.91679375  0.80053563  1
  Se  Se199  1  0.91945030  0.24851074  0.29925944  1
  Se  Se200  1  0.90599561  0.24570738  0.81549958  1
  Se  Se201  1  0.91452409  0.58295246  0.30300526  1
  Se  Se202  1  0.91397617  0.57670405  0.80162390  1
  Se  Se203  1  0.91096176  0.91102985  0.31453363  1
  Se  Se204  1  0.91677179  0.91965844  0.80086530  1
  Se  Se205  1  0.09416143  0.08857069  0.31206997  1
  Se  Se206  1  0.07571402  0.08467933  0.80532380  1
  Se  Se207  1  0.07686208  0.40917080  0.30122617  1
  Se  Se208  1  0.09639711  0.42892946  0.80187567  1
  Se  Se209  1  0.08149341  0.75122747  0.30570260  1
  Se  Se210  1  0.09033223  0.75836074  0.81472800  1
  Se  Se211  1  0.41808680  0.08219592  0.30214330  1
  Se  Se212  1  0.41343660  0.08114986  0.80236629  1
  Se  Se213  1  0.40989023  0.40034340  0.30166753  1
  Se  Se214  1  0.42767545  0.41321594  0.81707586  1
  Se  Se215  1  0.41577038  0.75351620  0.30647734  1
  Se  Se216  1  0.42053890  0.74990856  0.80524230  1
  Se  Se217  1  0.75108941  0.08359155  0.30196158  1
  Se  Se218  1  0.74234286  0.08296908  0.80368703  1
  Se  Se219  1  0.74804726  0.42088785  0.31415594  1
  Se  Se220  1  0.76804644  0.43018647  0.80050244  1
  Se  Se221  1  0.74518765  0.74864787  0.30241353  1
  Se  Se222  1  0.75925660  0.75519546  0.81109525  1
  Se  Se223  1  0.25516163  0.08148143  0.19702931  1
  Se  Se224  1  0.25244556  0.08552727  0.70181716  1
  Se  Se225  1  0.24475235  0.41762481  0.19531223  1
  Se  Se226  1  0.24978447  0.42432234  0.69135552  1
  Se  Se227  1  0.25113917  0.74703348  0.20135340  1
  Se  Se228  1  0.24874824  0.76023737  0.69763338  1
  Se  Se229  1  0.58678823  0.08129796  0.19138561  1
  Se  Se230  1  0.58267787  0.08126136  0.69479887  1
  Se  Se231  1  0.56839523  0.42483952  0.19287097  1
  Se  Se232  1  0.57618482  0.40743432  0.70508799  1
  Se  Se233  1  0.58180953  0.75011340  0.19829651  1
  Se  Se234  1  0.57532659  0.75505217  0.68586884  1
  Se  Se235  1  0.91704231  0.08619260  0.18799173  1
  Se  Se236  1  0.91227432  0.08647998  0.70040196  1
  Se  Se237  1  0.91352340  0.41152140  0.20008396  1
  Se  Se238  1  0.91319696  0.41897600  0.68493677  1
  Se  Se239  1  0.91928402  0.74766048  0.20201526  1
  Se  Se240  1  0.90793420  0.75517089  0.68725756  1
  Se  Se241  1  0.08339700  0.24822887  0.19491696  1
  Se  Se242  1  0.08689914  0.24581923  0.69054693  1
  Se  Se243  1  0.07599859  0.58557083  0.19906402  1
  Se  Se244  1  0.09670678  0.58032266  0.68716476  1
  Se  Se245  1  0.09351193  0.91120507  0.18904691  1
  Se  Se246  1  0.07105313  0.92246912  0.70011624  1
  Se  Se247  1  0.41829110  0.24869223  0.19295024  1
  Se  Se248  1  0.42516147  0.24167753  0.68817158  1
  Se  Se249  1  0.40244969  0.60120068  0.19775994  1
  Se  Se250  1  0.42928046  0.58915976  0.70026445  1
  Se  Se251  1  0.41633215  0.91944204  0.19688555  1
  Se  Se252  1  0.41551195  0.91923925  0.69195564  1
  Se  Se253  1  0.75142634  0.23965837  0.18512706  1
  Se  Se254  1  0.74451507  0.25143493  0.69579226  1
  Se  Se255  1  0.74536349  0.57982718  0.20153095  1
  Se  Se256  1  0.75748319  0.57418292  0.69188368  1
  Se  Se257  1  0.75061496  0.91756662  0.20084748  1
  Se  Se258  1  0.74240329  0.91908080  0.70076927  1
