# generated using pymatgen
data_In86Cu29Se144
_symmetry_space_group_name_H-M   'P 1'
_cell_length_a   17.58759882
_cell_length_b   17.58525931
_cell_length_c   23.44842741
_cell_angle_alpha   90.00789021
_cell_angle_beta   89.98673955
_cell_angle_gamma   90.02926328
_symmetry_Int_Tables_number   1
_chemical_formula_structural   In86Cu29Se144
_chemical_formula_sum   'In86 Cu29 Se144'
_cell_volume   7252.18671210
_cell_formula_units_Z   1
loop_
 _symmetry_equiv_pos_site_id
 _symmetry_equiv_pos_as_xyz
  1  'x, y, z'
loop_
 _atom_site_type_symbol
 _atom_site_label
 _atom_site_symmetry_multiplicity
 _atom_site_fract_x
 _atom_site_fract_y
 _atom_site_fract_z
 _atom_site_occupancy
  In  In0  1  -0.00690586  0.17372150  0.13194271  1
  In  In1  1  0.01204725  0.15503881  0.62912585  1
  In  In2  1  -0.00480342  0.50322735  0.13271648  1
  In  In3  1  -0.01645041  0.50953081  0.64270651  1
  In  In4  1  0.00838536  0.82658670  0.13312575  1
  In  In5  1  -0.00286322  0.84330717  0.61772308  1
  In  In6  1  0.33209665  0.17362564  0.12146670  1
  In  In7  1  0.32560728  0.17629505  0.62998296  1
  In  In8  1  0.35121652  0.50205406  0.11724434  1
  In  In9  1  0.33521872  0.48706424  0.62563701  1
  In  In10  1  0.32297093  0.82699682  0.11692234  1
  In  In11  1  0.32413279  0.84746584  0.63167612  1
  In  In12  1  0.68129426  0.15940239  0.12556655  1
  In  In13  1  0.66533497  0.17007320  0.63450458  1
  In  In14  1  0.65940184  0.50969890  0.12867309  1
  In  In15  1  0.65514308  0.51717914  0.63578791  1
  In  In16  1  0.65853016  0.83656614  0.12383572  1
  In  In17  1  0.67633290  0.82517596  0.63172342  1
  In  In18  1  0.14863705  0.01231377  0.39373098  1
  In  In19  1  0.15947438  -0.01910048  0.86242852  1
  In  In20  1  0.15177658  0.33465326  0.37843075  1
  In  In21  1  0.16660307  0.32783375  0.86747981  1
  In  In22  1  0.17312597  0.67796743  0.37322408  1
  In  In23  1  0.15868967  0.67606375  0.87342982  1
  In  In24  1  0.49927907  0.00504437  0.37478597  1
  In  In25  1  0.48899035  -0.01287205  0.86632003  1
  In  In26  1  0.51804142  0.33610145  0.36832752  1
  In  In27  1  0.50180326  0.33562515  0.87351791  1
  In  In28  1  0.49231195  0.66220647  0.37057601  1
  In  In29  1  0.50813664  0.65538400  0.88086553  1
  In  In30  1  0.84537132  -0.02389057  0.38446165  1
  In  In31  1  0.84399311  0.00945075  0.86992125  1
  In  In32  1  0.83265012  0.33760745  0.37172548  1
  In  In33  1  0.82526017  0.32529986  0.86879071  1
  In  In34  1  0.83881721  0.67988800  0.36006339  1
  In  In35  1  0.83564086  0.66154257  0.86102509  1
  In  In36  1  0.00142182  0.17246273  0.37800397  1
  In  In37  1  -0.00296070  0.15458553  0.87163533  1
  In  In38  1  -0.00662838  0.49914703  0.37031013  1
  In  In39  1  -0.01080675  0.49630167  0.85591858  1
  In  In40  1  0.00142598  0.83659380  0.37310130  1
  In  In41  1  0.00551487  0.83407732  0.86561287  1
  In  In42  1  0.32840393  0.15653531  0.37434172  1
  In  In43  1  0.33356701  0.16231176  0.86760182  1
  In  In44  1  0.33085313  0.51683281  0.37603400  1
  In  In45  1  0.34738663  0.49664410  0.87781332  1
  In  In46  1  0.33033262  0.82109457  0.37449759  1
  In  In47  1  0.32485062  0.83568288  0.88088524  1
  In  In48  1  0.66365549  0.17527826  0.37016632  1
  In  In49  1  0.67559740  0.17318660  0.87087088  1
  In  In50  1  0.66255983  0.49843768  0.37036986  1
  In  In51  1  0.66187918  0.48790733  0.86487623  1
  In  In52  1  0.68239690  0.82676700  0.37641641  1
  In  In53  1  0.66103627  0.82039386  0.86908118  1
  In  In54  1  0.17429918  -0.01312444  0.12486882  1
  In  In55  1  0.15702180  0.00194836  0.62103195  1
  In  In56  1  0.16085980  0.32643000  0.12696916  1
  In  In57  1  0.16955653  0.32618967  0.63107008  1
  In  In58  1  0.15544710  0.67840553  0.13191586  1
  In  In59  1  0.15161950  0.68130040  0.62730413  1
  In  In60  1  0.51452317  -0.00600984  0.11996896  1
  In  In61  1  0.49624693  0.00499865  0.63808618  1
  In  In62  1  0.49611351  0.34973226  0.12217855  1
  In  In63  1  0.49480664  0.34380698  0.62943478  1
  In  In64  1  0.49969098  0.66684990  0.12396557  1
  In  In65  1  0.52134818  0.66561779  0.61844114  1
  In  In66  1  0.82999946  0.01284626  0.12368050  1
  In  In67  1  0.85298347  -0.02167503  0.63478778  1
  In  In68  1  0.83606000  0.32724316  0.12908839  1
  In  In69  1  0.82883565  0.34348162  0.64039629  1
  In  In70  1  0.83442323  0.67215233  0.13981880  1
  In  In71  1  0.81613265  0.68137856  0.62801109  1
  In  In72  1  0.50549812  0.16499328  -0.00247216  1
  In  In73  1  0.33213401  0.33820796  0.23920881  1
  In  In74  1  0.83908952  0.16008304  0.50685162  1
  In  In75  1  0.49826916  0.83357829  0.49837168  1
  In  In76  1  0.33127440  0.66680766  0.75010399  1
  In  In77  1  0.16510278  0.50347592  0.50731061  1
  In  In78  1  0.67600954  -0.00282243  0.25276107  1
  In  In79  1  0.33368171  -0.00414344  0.25259246  1
  In  In80  1  0.83154856  0.83490915  0.00220762  1
  In  In81  1  0.83040059  0.50017930  -0.00584061  1
  In  In82  1  0.16819947  0.16394947  0.00483513  1
  In  In83  1  0.16855673  0.50651128  -0.00782150  1
  In  In84  1  0.82953728  0.50652201  0.50033966  1
  In  In85  1  0.49717084  0.16926088  0.49230633  1
  Cu  Cu86  1  -0.00031848  0.67341599  0.00307902  1
  Cu  Cu87  1  -0.00366714  0.33101609  0.00459416  1
  Cu  Cu88  1  0.33281523  -0.00451497  -0.00601673  1
  Cu  Cu89  1  0.50116830  0.49854372  0.75202163  1
  Cu  Cu90  1  0.33516139  0.33582549  0.50477060  1
  Cu  Cu91  1  0.83340095  0.83645575  0.74914966  1
  Cu  Cu92  1  0.66823606  -0.00274161  -0.00313024  1
  Cu  Cu93  1  0.66382892  0.33847330  0.49935638  1
  Cu  Cu94  1  -0.00344846  0.67306932  0.49671867  1
  Cu  Cu95  1  0.32343370  0.00400784  0.50562536  1
  Cu  Cu96  1  0.00210477  -0.00228253  -0.00610021  1
  Cu  Cu97  1  0.50138527  0.82625111  0.24754488  1
  Cu  Cu98  1  0.16428133  0.50613695  0.25465949  1
  Cu  Cu99  1  0.33879660  0.66626408  0.50161400  1
  Cu  Cu100  1  0.17166075  0.49423939  0.74714572  1
  Cu  Cu101  1  0.67249368  -0.00674668  0.50896012  1
  Cu  Cu102  1  0.49971434  0.50322589  0.24728914  1
  Cu  Cu103  1  0.83790282  0.16614128  0.25357387  1
  Cu  Cu104  1  0.83247388  0.16550768  0.74856837  1
  Cu  Cu105  1  0.00479689  0.32782274  0.50885222  1
  Cu  Cu106  1  0.66649430  0.33528015  -0.00590950  1
  Cu  Cu107  1  0.16793441  0.16008802  0.74843090  1
  Cu  Cu108  1  0.33524335  0.67027076  0.00033770  1
  Cu  Cu109  1  0.65773878  0.66270645  -0.00061214  1
  Cu  Cu110  1  0.50525076  0.16978333  0.75442391  1
  Cu  Cu111  1  0.15900701  0.16727662  0.25398163  1
  Cu  Cu112  1  0.50276256  0.82780883  0.74955563  1
  Cu  Cu113  1  0.82806071  0.49447386  0.25045293  1
  Cu  Cu114  1  0.16234534  0.83642144  0.25312950  1
  Se  Se115  1  0.07619388  0.07509555  0.06280388  1
  Se  Se116  1  0.08417346  0.08856924  0.54894343  1
  Se  Se117  1  0.07718184  0.41703542  0.05777816  1
  Se  Se118  1  0.07456828  0.41785576  0.56879502  1
  Se  Se119  1  0.08480257  0.75630886  0.05335829  1
  Se  Se120  1  0.08167716  0.75577029  0.54889675  1
  Se  Se121  1  0.40957173  0.07375287  0.05769362  1
  Se  Se122  1  0.41342767  0.08133232  0.55916514  1
  Se  Se123  1  0.41494340  0.41283243  0.04536872  1
  Se  Se124  1  0.42209253  0.42039012  0.55087890  1
  Se  Se125  1  0.41935048  0.75242405  0.05428653  1
  Se  Se126  1  0.41107766  0.74877492  0.56658792  1
  Se  Se127  1  0.75121214  0.08368926  0.04629645  1
  Se  Se128  1  0.74677940  0.07696022  0.56884237  1
  Se  Se129  1  0.74483834  0.41316377  0.05949520  1
  Se  Se130  1  0.74545320  0.41271548  0.56105248  1
  Se  Se131  1  0.74358119  0.73813247  0.05917682  1
  Se  Se132  1  0.73485077  0.74561470  0.55087100  1
  Se  Se133  1  0.25913235  0.26685499  0.05292523  1
  Se  Se134  1  0.24921165  0.25315239  0.55400940  1
  Se  Se135  1  0.25016549  0.59268836  0.06133965  1
  Se  Se136  1  0.25644856  0.59379770  0.56680215  1
  Se  Se137  1  0.24621585  0.91358241  0.04656093  1
  Se  Se138  1  0.24442906  0.91434318  0.55437097  1
  Se  Se139  1  0.59284419  0.25406910  0.06043097  1
  Se  Se140  1  0.58551200  0.25382982  0.55781277  1
  Se  Se141  1  0.57672422  0.57839518  0.05307358  1
  Se  Se142  1  0.58972355  0.57698312  0.54869713  1
  Se  Se143  1  0.58436928  0.91131770  0.04560107  1
  Se  Se144  1  0.58080216  0.92233038  0.56510830  1
  Se  Se145  1  0.91350459  0.24642055  0.05552304  1
  Se  Se146  1  0.91733724  0.25694870  0.56907713  1
  Se  Se147  1  0.91626600  0.59224032  0.05927585  1
  Se  Se148  1  0.92266998  0.59295325  0.55975300  1
  Se  Se149  1  0.92427887  0.92252827  0.06109574  1
  Se  Se150  1  0.90666668  0.91357256  0.54657826  1
  Se  Se151  1  0.08540607  0.24770846  0.45221876  1
  Se  Se152  1  0.07790252  0.25257932  0.94344743  1
  Se  Se153  1  0.07751120  0.58741768  0.44039924  1
  Se  Se154  1  0.06520034  0.58621050  0.93783217  1
  Se  Se155  1  0.09728709  0.89613996  0.44574765  1
  Se  Se156  1  0.08188890  0.91167737  0.94185184  1
  Se  Se157  1  0.40818713  0.26210067  0.43376723  1
  Se  Se158  1  0.41027769  0.25023269  0.94066351  1
  Se  Se159  1  0.41978082  0.58286843  0.44879247  1
  Se  Se160  1  0.41698235  0.58255588  0.95042625  1
  Se  Se161  1  0.40411281  0.92809847  0.44146765  1
  Se  Se162  1  0.42020120  0.91123470  0.94630335  1
  Se  Se163  1  0.74759504  0.25418083  0.44595500  1
  Se  Se164  1  0.75249474  0.24963620  0.94728629  1
  Se  Se165  1  0.75113507  0.59101518  0.43080725  1
  Se  Se166  1  0.74164977  0.59183897  0.93611331  1
  Se  Se167  1  0.75031778  0.90956410  0.45302604  1
  Se  Se168  1  0.74747498  0.91893529  0.93426210  1
  Se  Se169  1  0.24709037  0.09287254  0.45168656  1
  Se  Se170  1  0.24928244  0.07558874  0.93744730  1
  Se  Se171  1  0.25323173  0.41502757  0.44226916  1
  Se  Se172  1  0.25419803  0.40723400  0.93965024  1
  Se  Se173  1  0.25224075  0.74841750  0.45119688  1
  Se  Se174  1  0.24583206  0.74516318  0.94624750  1
  Se  Se175  1  0.59887030  0.07439558  0.44450474  1
  Se  Se176  1  0.58767972  0.07446335  0.93353467  1
  Se  Se177  1  0.58169277  0.41978298  0.44491089  1
  Se  Se178  1  0.58308055  0.41912432  0.94347998  1
  Se  Se179  1  0.58542572  0.74398315  0.43879419  1
  Se  Se180  1  0.58018628  0.75224738  0.94690628  1
  Se  Se181  1  0.92827312  0.07306170  0.44633704  1
  Se  Se182  1  0.91608848  0.08501082  0.94906905  1
  Se  Se183  1  0.92486872  0.40784395  0.44786243  1
  Se  Se184  1  0.92507622  0.41093511  0.93873110  1
  Se  Se185  1  0.91379892  0.75075951  0.43947597  1
  Se  Se186  1  0.91626825  0.74487038  0.93863011  1
  Se  Se187  1  0.24519060  0.25016611  0.30806795  1
  Se  Se188  1  0.25110138  0.24604992  0.80027629  1
  Se  Se189  1  0.25066702  0.59036107  0.30268705  1
  Se  Se190  1  0.24524062  0.57400746  0.81316227  1
  Se  Se191  1  0.24097286  0.91620704  0.31567133  1
  Se  Se192  1  0.26649210  0.92032702  0.80292971  1
  Se  Se193  1  0.58351468  0.24731645  0.29742218  1
  Se  Se194  1  0.58754337  0.25537491  0.80593340  1
  Se  Se195  1  0.58161798  0.58530049  0.30289056  1
  Se  Se196  1  0.58501694  0.58457102  0.80240470  1
  Se  Se197  1  0.57590329  0.90925903  0.31021790  1
  Se  Se198  1  0.58546503  0.91312438  0.80246717  1
  Se  Se199  1  0.91861867  0.25261431  0.30793999  1
  Se  Se200  1  0.91713461  0.24401793  0.80622429  1
  Se  Se201  1  0.91454100  0.57970698  0.30008004  1
  Se  Se202  1  0.93234351  0.59992112  0.79267514  1
  Se  Se203  1  0.91806542  0.91578202  0.30233712  1
  Se  Se204  1  0.91819770  0.91867544  0.80242550  1
  Se  Se205  1  0.08161713  0.08346274  0.31041685  1
  Se  Se206  1  0.08289540  0.07822502  0.80217024  1
  Se  Se207  1  0.08248712  0.41818494  0.30425191  1
  Se  Se208  1  0.08571785  0.41235687  0.80021431  1
  Se  Se209  1  0.08195635  0.74760614  0.30402228  1
  Se  Se210  1  0.07458101  0.73962630  0.79855232  1
  Se  Se211  1  0.42780585  0.09526090  0.30222523  1
  Se  Se212  1  0.41833498  0.08241868  0.80008847  1
  Se  Se213  1  0.41617404  0.42384292  0.30818450  1
  Se  Se214  1  0.41614358  0.41412395  0.80219360  1
  Se  Se215  1  0.41313763  0.74875487  0.30115708  1
  Se  Se216  1  0.42339849  0.74941202  0.81329786  1
  Se  Se217  1  0.76358187  0.08537391  0.31822632  1
  Se  Se218  1  0.74976073  0.08166813  0.80316771  1
  Se  Se219  1  0.74387997  0.41124431  0.30342993  1
  Se  Se220  1  0.77391709  0.43512668  0.80721155  1
  Se  Se221  1  0.74290367  0.75189402  0.29500085  1
  Se  Se222  1  0.74964202  0.74810884  0.79858616  1
  Se  Se223  1  0.24428587  0.09335879  0.19294026  1
  Se  Se224  1  0.24884151  0.07964697  0.69044709  1
  Se  Se225  1  0.23977069  0.43249703  0.18478859  1
  Se  Se226  1  0.25636771  0.40958755  0.69792481  1
  Se  Se227  1  0.24825707  0.75714197  0.19689641  1
  Se  Se228  1  0.23792792  0.76157550  0.69979445  1
  Se  Se229  1  0.58127374  0.08515708  0.19306081  1
  Se  Se230  1  0.58680087  0.08336526  0.70245554  1
  Se  Se231  1  0.58240187  0.41767625  0.19571262  1
  Se  Se232  1  0.58638414  0.41567298  0.69842232  1
  Se  Se233  1  0.58651537  0.74735342  0.19311572  1
  Se  Se234  1  0.58660368  0.74384397  0.69796869  1
  Se  Se235  1  0.91632991  0.08145897  0.19754299  1
  Se  Se236  1  0.91755985  0.08316401  0.69615333  1
  Se  Se237  1  0.91520310  0.41389486  0.19712033  1
  Se  Se238  1  0.93306743  0.40073332  0.70441810  1
  Se  Se239  1  0.92254649  0.75199694  0.20198549  1
  Se  Se240  1  0.91326618  0.75818141  0.68784919  1
  Se  Se241  1  0.07949745  0.25416373  0.20045083  1
  Se  Se242  1  0.08322545  0.24666907  0.69883891  1
  Se  Se243  1  0.07972342  0.58688846  0.19820688  1
  Se  Se244  1  0.09231464  0.58167869  0.69528795  1
  Se  Se245  1  0.08515031  0.92283400  0.19759303  1
  Se  Se246  1  0.07762480  0.91951101  0.69116409  1
  Se  Se247  1  0.42786594  0.24343065  0.18901341  1
  Se  Se248  1  0.42234635  0.24830972  0.69456374  1
  Se  Se249  1  0.41465779  0.58541173  0.19446113  1
  Se  Se250  1  0.42398471  0.57999594  0.68903560  1
  Se  Se251  1  0.42369081  0.91058214  0.18804316  1
  Se  Se252  1  0.41673892  0.91370882  0.70172932  1
  Se  Se253  1  0.75191013  0.24524005  0.19843579  1
  Se  Se254  1  0.74586381  0.25358875  0.70307174  1
  Se  Se255  1  0.74779139  0.58216406  0.19868120  1
  Se  Se256  1  0.77490785  0.56403882  0.68736176  1
  Se  Se257  1  0.76047578  0.90872587  0.18833876  1
  Se  Se258  1  0.74598843  0.92040236  0.69864695  1
