# generated using pymatgen
data_In86Cu29Se144
_symmetry_space_group_name_H-M   'P 1'
_cell_length_a   17.58660444
_cell_length_b   17.58762001
_cell_length_c   23.45021899
_cell_angle_alpha   89.99023504
_cell_angle_beta   89.97443656
_cell_angle_gamma   89.97879991
_symmetry_Int_Tables_number   1
_chemical_formula_structural   In86Cu29Se144
_chemical_formula_sum   'In86 Cu29 Se144'
_cell_volume   7253.30421426
_cell_formula_units_Z   1
loop_
 _symmetry_equiv_pos_site_id
 _symmetry_equiv_pos_as_xyz
  1  'x, y, z'
loop_
 _atom_site_type_symbol
 _atom_site_label
 _atom_site_symmetry_multiplicity
 _atom_site_fract_x
 _atom_site_fract_y
 _atom_site_fract_z
 _atom_site_occupancy
  In  In0  1  0.00038172  0.16308574  0.12573250  1
  In  In1  1  -0.00749780  0.17972410  0.62485768  1
  In  In2  1  -0.00080474  0.49100246  0.12398290  1
  In  In3  1  0.01129895  0.51135485  0.61775074  1
  In  In4  1  0.00294932  0.84631054  0.12570095  1
  In  In5  1  -0.01894113  0.81638554  0.61856041  1
  In  In6  1  0.33876528  0.17745276  0.12108497  1
  In  In7  1  0.34922934  0.16409595  0.63103751  1
  In  In8  1  0.33772538  0.50753224  0.11693535  1
  In  In9  1  0.31751074  0.51419564  0.63669127  1
  In  In10  1  0.33491625  0.81718908  0.12598942  1
  In  In11  1  0.31985848  0.82107546  0.61882645  1
  In  In12  1  0.65409917  0.15444012  0.12171661  1
  In  In13  1  0.67768054  0.15702471  0.63666877  1
  In  In14  1  0.66696814  0.51492792  0.12104998  1
  In  In15  1  0.66992941  0.49245184  0.63119424  1
  In  In16  1  0.66266891  0.83529575  0.11898985  1
  In  In17  1  0.68146805  0.82815065  0.63749057  1
  In  In18  1  0.14957606  0.00322077  0.37330094  1
  In  In19  1  0.17874794  0.00177392  0.88065117  1
  In  In20  1  0.16571509  0.34833359  0.37611200  1
  In  In21  1  0.17534563  0.32346271  0.88723820  1
  In  In22  1  0.17547827  0.65895125  0.38293145  1
  In  In23  1  0.15437438  0.65444653  0.86815249  1
  In  In24  1  0.51109543  -0.00415697  0.36609181  1
  In  In25  1  0.53113931  -0.02499959  0.90464369  1
  In  In26  1  0.50138593  0.33292940  0.37176187  1
  In  In27  1  0.49985670  0.33807797  0.87757868  1
  In  In28  1  0.50191234  0.66575944  0.36459370  1
  In  In29  1  0.50040189  0.66697542  0.87067596  1
  In  In30  1  0.83174665  -0.00552213  0.37508902  1
  In  In31  1  0.81242539  -0.00953445  0.87095854  1
  In  In32  1  0.84152199  0.32173954  0.38054012  1
  In  In33  1  0.83389770  0.34790442  0.87291776  1
  In  In34  1  0.82446427  0.67690872  0.38331208  1
  In  In35  1  0.84181716  0.68087499  0.85882882  1
  In  In36  1  -0.01226571  0.15454858  0.36335013  1
  In  In37  1  0.00797184  0.17605876  0.88272581  1
  In  In38  1  0.00554343  0.49233341  0.37809073  1
  In  In39  1  0.00148768  0.51523660  0.88296297  1
  In  In40  1  -0.01139860  0.83974073  0.38243430  1
  In  In41  1  -0.00918198  0.81380614  0.87560206  1
  In  In42  1  0.33754311  0.16391943  0.37401548  1
  In  In43  1  0.33657605  0.17026573  0.88294060  1
  In  In44  1  0.31964046  0.50170351  0.37773146  1
  In  In45  1  0.33397193  0.50167518  0.87402434  1
  In  In46  1  0.33570458  0.81614100  0.37549028  1
  In  In47  1  0.34625513  0.83422565  0.87410993  1
  In  In48  1  0.67991687  0.16045065  0.37512044  1
  In  In49  1  0.65312809  0.15705828  0.87223539  1
  In  In50  1  0.66467918  0.51330324  0.37464586  1
  In  In51  1  0.66328399  0.49614117  0.86764034  1
  In  In52  1  0.68107507  0.84023655  0.36793046  1
  In  In53  1  0.67054194  0.82969762  0.87301880  1
  In  In54  1  0.14995357  0.00068787  0.12809666  1
  In  In55  1  0.17670701  -0.01055643  0.62207294  1
  In  In56  1  0.15206556  0.33055580  0.11029982  1
  In  In57  1  0.16255202  0.34868368  0.62895185  1
  In  In58  1  0.17852830  0.67356242  0.12433914  1
  In  In59  1  0.16406192  0.66062065  0.62606811  1
  In  In60  1  0.51743674  0.01236225  0.11099828  1
  In  In61  1  0.51344115  0.00014952  0.62989865  1
  In  In62  1  0.49606947  0.33104826  0.11464913  1
  In  In63  1  0.49843641  0.33013736  0.63897372  1
  In  In64  1  0.49998583  0.66867834  0.11765293  1
  In  In65  1  0.49913240  0.67069939  0.63477040  1
  In  In66  1  0.83477843  -0.00667006  0.12683992  1
  In  In67  1  0.80992092  -0.01340476  0.61019843  1
  In  In68  1  0.84131806  0.33960235  0.12815180  1
  In  In69  1  0.82810244  0.32688331  0.61839287  1
  In  In70  1  0.81342152  0.66799195  0.12498194  1
  In  In71  1  0.83656820  0.66710311  0.62703793  1
  In  In72  1  0.83335987  0.16522499  0.00173230  1
  In  In73  1  0.16617540  0.83365369  0.00206044  1
  In  In74  1  -0.00313966  0.67116160  0.25605945  1
  In  In75  1  0.67027808  0.32959165  0.24768747  1
  In  In76  1  0.33710149  -0.00392222  0.24404527  1
  In  In77  1  -0.00629487  -0.00411695  0.74753453  1
  In  In78  1  -0.00047024  0.34215649  0.75161661  1
  In  In79  1  0.83459158  0.50868037  -0.00412816  1
  In  In80  1  0.33217825  0.33898575  0.23831837  1
  In  In81  1  0.49800129  0.49994125  0.50116269  1
  In  In82  1  0.15959354  0.16877202  0.50161840  1
  In  In83  1  0.34524276  0.00070420  0.75423330  1
  In  In84  1  0.50881005  0.16526376  0.49425657  1
  In  In85  1  0.50509340  0.82765400  0.50726274  1
  Cu  Cu86  1  0.16611224  0.83404970  0.25087135  1
  Cu  Cu87  1  0.82575141  0.16951087  0.74778940  1
  Cu  Cu88  1  0.50354231  0.83603996  0.75530330  1
  Cu  Cu89  1  -0.00585701  0.00177015  0.49660143  1
  Cu  Cu90  1  0.49819257  0.49963466  0.75416750  1
  Cu  Cu91  1  0.33525654  -0.01020609  0.49816178  1
  Cu  Cu92  1  0.49845172  0.50666213  0.24250323  1
  Cu  Cu93  1  0.49901101  0.16983378  0.76199898  1
  Cu  Cu94  1  0.33386654  0.66548148  -0.00461347  1
  Cu  Cu95  1  -0.00383558  0.00122003  0.00166088  1
  Cu  Cu96  1  0.17004895  0.49903198  0.75295906  1
  Cu  Cu97  1  0.00185197  0.66504931  0.50013776  1
  Cu  Cu98  1  0.83436788  0.49881053  0.24859086  1
  Cu  Cu99  1  0.83742598  0.16033167  0.25112752  1
  Cu  Cu100  1  0.67226456  0.33134049  0.50715620  1
  Cu  Cu101  1  0.83243788  0.50480732  0.74732899  1
  Cu  Cu102  1  0.66417016  0.33518270  -0.00501604  1
  Cu  Cu103  1  0.50617000  0.82696168  0.24438661  1
  Cu  Cu104  1  0.16384545  0.17657101  0.24622433  1
  Cu  Cu105  1  0.16490969  0.50405227  0.25258485  1
  Cu  Cu106  1  0.17412292  0.16906037  0.76074370  1
  Cu  Cu107  1  0.33652891  0.34166883  -0.00193103  1
  Cu  Cu108  1  -0.00463286  0.33525122  0.49772048  1
  Cu  Cu109  1  0.83056938  0.83482537  0.25359011  1
  Cu  Cu110  1  0.67125854  0.66945991  0.50193955  1
  Cu  Cu111  1  0.32801144  0.34007543  0.50860887  1
  Cu  Cu112  1  0.33122987  0.00808626  0.00401013  1
  Cu  Cu113  1  0.16438460  0.82384538  0.74636208  1
  Cu  Cu114  1  0.66175116  0.67088771  -0.00493971  1
  Se  Se115  1  0.08177308  0.08365509  0.05242736  1
  Se  Se116  1  0.07390267  0.07510874  0.56332071  1
  Se  Se117  1  0.08914574  0.43515444  0.04878066  1
  Se  Se118  1  0.08246710  0.41401277  0.55118811  1
  Se  Se119  1  0.07461265  0.74467478  0.06055068  1
  Se  Se120  1  0.08285843  0.74764400  0.55685208  1
  Se  Se121  1  0.41776131  0.09129340  0.05349413  1
  Se  Se122  1  0.41563957  0.07139818  0.55568554  1
  Se  Se123  1  0.42205149  0.42422145  0.04996253  1
  Se  Se124  1  0.41275618  0.41412241  0.56773403  1
  Se  Se125  1  0.41520945  0.75112427  0.04802611  1
  Se  Se126  1  0.40931481  0.73260051  0.55488101  1
  Se  Se127  1  0.74333472  0.07054978  0.05452075  1
  Se  Se128  1  0.75084704  0.09733949  0.55350890  1
  Se  Se129  1  0.74605938  0.41236752  0.05723755  1
  Se  Se130  1  0.75170452  0.42265890  0.55464957  1
  Se  Se131  1  0.74692553  0.75132263  0.04929104  1
  Se  Se132  1  0.75163514  0.75170065  0.55821888  1
  Se  Se133  1  0.25463028  0.25648966  0.05256099  1
  Se  Se134  1  0.25536738  0.24967786  0.56567229  1
  Se  Se135  1  0.24829334  0.58792679  0.05107214  1
  Se  Se136  1  0.24352434  0.57607189  0.55582200  1
  Se  Se137  1  0.25444202  0.92459045  0.06552701  1
  Se  Se138  1  0.24762619  0.90849297  0.54703717  1
  Se  Se139  1  0.58842738  0.25027428  0.05293302  1
  Se  Se140  1  0.58607643  0.25380112  0.56378396  1
  Se  Se141  1  0.58163149  0.58329548  0.04762603  1
  Se  Se142  1  0.58771755  0.59074786  0.56084908  1
  Se  Se143  1  0.57085946  0.90499823  0.04877038  1
  Se  Se144  1  0.59705117  0.91928328  0.56059175  1
  Se  Se145  1  0.92398829  0.25992469  0.05573994  1
  Se  Se146  1  0.91365077  0.24833577  0.54799661  1
  Se  Se147  1  0.91769385  0.59264086  0.06460996  1
  Se  Se148  1  0.91541927  0.58400629  0.55372939  1
  Se  Se149  1  0.91564228  0.91465892  0.05283417  1
  Se  Se150  1  0.91568636  0.91754431  0.55335557  1
  Se  Se151  1  0.07462114  0.25318531  0.43517394  1
  Se  Se152  1  0.08595070  0.24933013  0.95545940  1
  Se  Se153  1  0.08327651  0.57993306  0.44598237  1
  Se  Se154  1  0.08726178  0.58919384  0.95230328  1
  Se  Se155  1  0.08183486  0.91900275  0.44745417  1
  Se  Se156  1  0.07522516  0.92060994  0.93777845  1
  Se  Se157  1  0.40714644  0.26185139  0.44585670  1
  Se  Se158  1  0.42098601  0.25437536  0.94918883  1
  Se  Se159  1  0.41299669  0.59005093  0.43895964  1
  Se  Se160  1  0.41922589  0.58414567  0.94191461  1
  Se  Se161  1  0.42022106  0.91776691  0.43744545  1
  Se  Se162  1  0.40853775  0.91948980  0.95072955  1
  Se  Se163  1  0.74826556  0.24820011  0.44737106  1
  Se  Se164  1  0.74844942  0.25678987  0.93726786  1
  Se  Se165  1  0.74983824  0.58101096  0.44872431  1
  Se  Se166  1  0.74419377  0.59216342  0.93385250  1
  Se  Se167  1  0.75705882  0.90726360  0.44551639  1
  Se  Se168  1  0.74421272  0.91351425  0.94710849  1
  Se  Se169  1  0.25506365  0.07738286  0.44280700  1
  Se  Se170  1  0.24741302  0.09004359  0.95106868  1
  Se  Se171  1  0.24648565  0.41938449  0.45182237  1
  Se  Se172  1  0.25073029  0.42331701  0.94637968  1
  Se  Se173  1  0.24743030  0.75389453  0.44797298  1
  Se  Se174  1  0.25231536  0.74770739  0.93629022  1
  Se  Se175  1  0.59665918  0.06701452  0.44297602  1
  Se  Se176  1  0.58068848  0.09484556  0.95489987  1
  Se  Se177  1  0.59221595  0.40717068  0.44281020  1
  Se  Se178  1  0.58444527  0.42393003  0.94487127  1
  Se  Se179  1  0.58966680  0.74348097  0.43820327  1
  Se  Se180  1  0.57758509  0.75302133  0.94087444  1
  Se  Se181  1  0.91317816  0.08503472  0.44224928  1
  Se  Se182  1  0.91840391  0.07508363  0.93489660  1
  Se  Se183  1  0.91196250  0.41943228  0.44532447  1
  Se  Se184  1  0.92807025  0.40996715  0.94567599  1
  Se  Se185  1  0.91523449  0.75003962  0.45092761  1
  Se  Se186  1  0.90871766  0.73983337  0.94656535  1
  Se  Se187  1  0.24720013  0.24903806  0.30833175  1
  Se  Se188  1  0.25674045  0.25243545  0.81089945  1
  Se  Se189  1  0.25091085  0.58580394  0.30313004  1
  Se  Se190  1  0.25287352  0.58605030  0.80349343  1
  Se  Se191  1  0.24696641  0.91562363  0.31151212  1
  Se  Se192  1  0.24320174  0.90837611  0.80486545  1
  Se  Se193  1  0.58052883  0.23962272  0.30839706  1
  Se  Se194  1  0.58602872  0.25719442  0.80789895  1
  Se  Se195  1  0.58623016  0.58303627  0.29728545  1
  Se  Se196  1  0.58453733  0.58554073  0.80118664  1
  Se  Se197  1  0.58831489  0.91072493  0.29821548  1
  Se  Se198  1  0.58251059  0.92127305  0.80955199  1
  Se  Se199  1  0.91604549  0.25315051  0.29956116  1
  Se  Se200  1  0.91167208  0.24323160  0.80839900  1
  Se  Se201  1  0.90848666  0.57851547  0.31418335  1
  Se  Se202  1  0.92038280  0.57814592  0.80373082  1
  Se  Se203  1  0.91843971  0.91654048  0.30390209  1
  Se  Se204  1  0.90755047  0.90616897  0.80820517  1
  Se  Se205  1  0.08455531  0.08587543  0.29651855  1
  Se  Se206  1  0.08813174  0.08478858  0.81043268  1
  Se  Se207  1  0.08235987  0.41631001  0.30078982  1
  Se  Se208  1  0.09100009  0.42094903  0.81677136  1
  Se  Se209  1  0.08909529  0.75696175  0.31646029  1
  Se  Se210  1  0.07857695  0.74687650  0.80200437  1
  Se  Se211  1  0.42587190  0.09080232  0.30331237  1
  Se  Se212  1  0.42961961  0.08038052  0.82246971  1
  Se  Se213  1  0.42133099  0.42628337  0.30586008  1
  Se  Se214  1  0.41492134  0.41520154  0.80594234  1
  Se  Se215  1  0.41751449  0.74979477  0.29809700  1
  Se  Se216  1  0.41556050  0.75013187  0.80026333  1
  Se  Se217  1  0.75193326  0.07742373  0.30183641  1
  Se  Se218  1  0.74571618  0.08581602  0.80317902  1
  Se  Se219  1  0.75437614  0.41948617  0.31162482  1
  Se  Se220  1  0.75165625  0.41719074  0.79853185  1
  Se  Se221  1  0.74993505  0.74261280  0.30114139  1
  Se  Se222  1  0.73769342  0.74307996  0.79841275  1
  Se  Se223  1  0.24539273  0.09375512  0.18905756  1
  Se  Se224  1  0.24550902  0.08697432  0.69470215  1
  Se  Se225  1  0.23825579  0.42726570  0.18389741  1
  Se  Se226  1  0.25241593  0.41183399  0.70208214  1
  Se  Se227  1  0.25092998  0.74934390  0.20222954  1
  Se  Se228  1  0.25135466  0.74217464  0.69579153  1
  Se  Se229  1  0.58570197  0.07333820  0.19681302  1
  Se  Se230  1  0.57880972  0.08861593  0.70230080  1
  Se  Se231  1  0.57876102  0.42040036  0.18740959  1
  Se  Se232  1  0.58341848  0.41663323  0.70125343  1
  Se  Se233  1  0.58730067  0.74405879  0.18851016  1
  Se  Se234  1  0.58522503  0.75202189  0.70018397  1
  Se  Se235  1  0.91851081  0.07874229  0.19302535  1
  Se  Se236  1  0.90813591  0.09083120  0.68897982  1
  Se  Se237  1  0.92157522  0.41627861  0.20074130  1
  Se  Se238  1  0.91296078  0.42433931  0.68490866  1
  Se  Se239  1  0.90947047  0.75604915  0.19016526  1
  Se  Se240  1  0.91596502  0.74680705  0.69981631  1
  Se  Se241  1  0.08096449  0.25570523  0.19004495  1
  Se  Se242  1  0.09232615  0.24367752  0.69674703  1
  Se  Se243  1  0.08580854  0.58578919  0.19147347  1
  Se  Se244  1  0.08316194  0.57951420  0.69923647  1
  Se  Se245  1  0.07968141  0.91834220  0.20342739  1
  Se  Se246  1  0.08713445  0.90776959  0.68787065  1
  Se  Se247  1  0.43244926  0.24408852  0.19567308  1
  Se  Se248  1  0.41281977  0.24835417  0.70684774  1
  Se  Se249  1  0.41455313  0.58878765  0.18960755  1
  Se  Se250  1  0.41649449  0.58415322  0.69992793  1
  Se  Se251  1  0.42691081  0.90903363  0.18415959  1
  Se  Se252  1  0.42084425  0.90527948  0.68634987  1
  Se  Se253  1  0.75854152  0.23775329  0.18609476  1
  Se  Se254  1  0.74752152  0.26049263  0.69730672  1
  Se  Se255  1  0.74716692  0.58110283  0.19967698  1
  Se  Se256  1  0.74726129  0.58607738  0.69452722  1
  Se  Se257  1  0.74802924  0.91119689  0.19251238  1
  Se  Se258  1  0.74774956  0.93091212  0.69913624  1
