# generated using pymatgen
data_In86Cu29Se144
_symmetry_space_group_name_H-M   'P 1'
_cell_length_a   17.58867476
_cell_length_b   17.59271481
_cell_length_c   23.45392052
_cell_angle_alpha   90.02482259
_cell_angle_beta   89.98721712
_cell_angle_gamma   89.97497368
_symmetry_Int_Tables_number   1
_chemical_formula_structural   In86Cu29Se144
_chemical_formula_sum   'In86 Cu29 Se144'
_cell_volume   7257.40462257
_cell_formula_units_Z   1
loop_
 _symmetry_equiv_pos_site_id
 _symmetry_equiv_pos_as_xyz
  1  'x, y, z'
loop_
 _atom_site_type_symbol
 _atom_site_label
 _atom_site_symmetry_multiplicity
 _atom_site_fract_x
 _atom_site_fract_y
 _atom_site_fract_z
 _atom_site_occupancy
  In  In0  1  -0.00472750  0.17210300  0.13417133  1
  In  In1  1  0.00025189  0.18542176  0.62598418  1
  In  In2  1  0.00209891  0.49970342  0.12371518  1
  In  In3  1  0.00049342  0.50698852  0.63058214  1
  In  In4  1  -0.00502046  0.82833556  0.12536214  1
  In  In5  1  -0.00963682  0.82971902  0.62178124  1
  In  In6  1  0.33725733  0.18311080  0.13163905  1
  In  In7  1  0.34497931  0.16089054  0.62221501  1
  In  In8  1  0.31852061  0.51176735  0.13059095  1
  In  In9  1  0.32540438  0.50794918  0.63134732  1
  In  In10  1  0.31105695  0.83141257  0.12020676  1
  In  In11  1  0.32377054  0.83045646  0.62541354  1
  In  In12  1  0.65743742  0.16285196  0.13357271  1
  In  In13  1  0.67067939  0.16602051  0.62261102  1
  In  In14  1  0.67749136  0.50572819  0.11435533  1
  In  In15  1  0.67709975  0.48998822  0.63081625  1
  In  In16  1  0.68555149  0.83430371  0.12496511  1
  In  In17  1  0.69619987  0.81438740  0.64602266  1
  In  In18  1  0.14769050  -0.00223624  0.37365221  1
  In  In19  1  0.15326303  -0.01000669  0.87524614  1
  In  In20  1  0.16675272  0.33964185  0.36954253  1
  In  In21  1  0.17271570  0.33999703  0.87036914  1
  In  In22  1  0.16315612  0.66653160  0.37175549  1
  In  In23  1  0.15746250  0.66696815  0.87517573  1
  In  In24  1  0.51440875  0.00122449  0.37208585  1
  In  In25  1  0.50589045  -0.00631674  0.87224899  1
  In  In26  1  0.49078293  0.33109366  0.37685580  1
  In  In27  1  0.50085624  0.33414623  0.86768246  1
  In  In28  1  0.49390319  0.67252802  0.37269471  1
  In  In29  1  0.50299846  0.66749584  0.86605258  1
  In  In30  1  0.83380184  -0.00094890  0.37896877  1
  In  In31  1  0.82248388  -0.00239271  0.87111175  1
  In  In32  1  0.83408048  0.33038703  0.37882661  1
  In  In33  1  0.84999361  0.35395532  0.86133139  1
  In  In34  1  0.84905318  0.65592202  0.38604507  1
  In  In35  1  0.83096822  0.66154115  0.87711033  1
  In  In36  1  -0.00834785  0.15608583  0.36892767  1
  In  In37  1  -0.00316016  0.17003569  0.86720962  1
  In  In38  1  -0.01638111  0.49409854  0.35894110  1
  In  In39  1  -0.00527824  0.49972067  0.88089191  1
  In  In40  1  -0.00296356  0.83181436  0.37867381  1
  In  In41  1  0.00323563  0.81917196  0.87660759  1
  In  In42  1  0.33255943  0.17876449  0.37902112  1
  In  In43  1  0.32343512  0.18616092  0.86993739  1
  In  In44  1  0.33046563  0.49863660  0.36752806  1
  In  In45  1  0.32709735  0.49353480  0.87235237  1
  In  In46  1  0.32608529  0.81543106  0.37248541  1
  In  In47  1  0.32137821  0.81731222  0.86840559  1
  In  In48  1  0.67407378  0.16008322  0.38529667  1
  In  In49  1  0.66663880  0.16908429  0.86449235  1
  In  In50  1  0.68037564  0.50911359  0.37685735  1
  In  In51  1  0.69110654  0.51964206  0.85965667  1
  In  In52  1  0.66969130  0.84537493  0.37396168  1
  In  In53  1  0.67817844  0.83401852  0.86645283  1
  In  In54  1  0.15867890  -0.01696180  0.12305939  1
  In  In55  1  0.17665920  -0.00655198  0.62093421  1
  In  In56  1  0.14765039  0.35625701  0.13562438  1
  In  In57  1  0.16066464  0.33547996  0.64247214  1
  In  In58  1  0.16159114  0.66533539  0.12254158  1
  In  In59  1  0.14117928  0.69461308  0.65203146  1
  In  In60  1  0.50643675  0.01221655  0.13279270  1
  In  In61  1  0.51004473  0.01278184  0.61807619  1
  In  In62  1  0.49602411  0.32430976  0.13085533  1
  In  In63  1  0.51070387  0.32250892  0.62890964  1
  In  In64  1  0.49595986  0.65536764  0.12514332  1
  In  In65  1  0.50090389  0.66876363  0.63421375  1
  In  In66  1  0.84384694  -0.00751767  0.13508533  1
  In  In67  1  0.82276474  -0.01107926  0.62170390  1
  In  In68  1  0.84885370  0.34791126  0.11815378  1
  In  In69  1  0.83646928  0.33531770  0.62199225  1
  In  In70  1  0.83723888  0.67540976  0.11913856  1
  In  In71  1  0.84425073  0.66345970  0.62669612  1
  In  In72  1  0.50697867  0.49698398  0.49993975  1
  In  In73  1  0.33772198  0.00520265  0.74823695  1
  In  In74  1  0.49983267  0.83133428  -0.00846279  1
  In  In75  1  0.67015324  0.67012084  0.24313211  1
  In  In76  1  0.49946018  0.16669266  0.00817049  1
  In  In77  1  0.50318203  0.49694314  0.00015020  1
  In  In78  1  0.32903074  0.00163056  0.24876346  1
  In  In79  1  0.50850550  0.84045532  0.49834125  1
  In  In80  1  -0.00346831  -0.00120373  0.75014234  1
  In  In81  1  0.83115876  0.16605967  0.00377081  1
  In  In82  1  0.16114977  0.16620696  -0.00372040  1
  In  In83  1  0.66991404  0.33146848  0.25130213  1
  In  In84  1  0.16457474  0.50455019  0.50078254  1
  In  In85  1  0.16491834  0.16446466  0.50079072  1
  Cu  Cu86  1  -0.00400577  0.33651308  0.49735239  1
  Cu  Cu87  1  0.32445969  0.34041248  0.00180029  1
  Cu  Cu88  1  0.32506283  0.66873557  0.50196450  1
  Cu  Cu89  1  0.15656241  0.82554870  0.24671163  1
  Cu  Cu90  1  0.66992835  -0.00652229  -0.00066974  1
  Cu  Cu91  1  0.83691475  0.83480903  0.25339401  1
  Cu  Cu92  1  0.32541854  -0.00293369  0.00070177  1
  Cu  Cu93  1  0.49775434  0.49659836  0.24823519  1
  Cu  Cu94  1  0.50711551  0.83936219  0.74968170  1
  Cu  Cu95  1  0.34062499  0.32883195  0.50582698  1
  Cu  Cu96  1  0.16723531  0.50321208  0.24738141  1
  Cu  Cu97  1  0.67286834  0.32912763  0.50623059  1
  Cu  Cu98  1  0.16821969  0.16935954  0.25387397  1
  Cu  Cu99  1  0.32555072  0.66510415  -0.00281180  1
  Cu  Cu100  1  0.83036794  0.16623417  0.25595474  1
  Cu  Cu101  1  0.50198644  0.17199109  0.74252657  1
  Cu  Cu102  1  -0.00111726  0.66496791  -0.00002011  1
  Cu  Cu103  1  0.49252188  0.83400832  0.25202533  1
  Cu  Cu104  1  0.83841539  0.50033204  0.74753794  1
  Cu  Cu105  1  -0.00808333  -0.01031509  0.00082378  1
  Cu  Cu106  1  0.82835762  0.16960996  0.74460806  1
  Cu  Cu107  1  0.67464776  0.33931305  -0.00855784  1
  Cu  Cu108  1  -0.00414193  -0.00266394  0.49771147  1
  Cu  Cu109  1  0.00180370  0.66825211  0.50573258  1
  Cu  Cu110  1  0.67175126  -0.00303323  0.50255502  1
  Cu  Cu111  1  0.33504053  -0.00732331  0.50004430  1
  Cu  Cu112  1  0.67812606  0.66913812  0.50658192  1
  Cu  Cu113  1  0.16595357  0.50460429  0.75882036  1
  Cu  Cu114  1  0.49496411  0.49682824  0.74909086  1
  Se  Se115  1  0.07101754  0.07569925  0.05852237  1
  Se  Se116  1  0.07367560  0.07635558  0.56165060  1
  Se  Se117  1  0.08677296  0.42262047  0.05151575  1
  Se  Se118  1  0.08107003  0.40762977  0.55994445  1
  Se  Se119  1  0.08022518  0.75085205  0.05460142  1
  Se  Se120  1  0.08663598  0.75047558  0.55850699  1
  Se  Se121  1  0.40207451  0.07511739  0.06207988  1
  Se  Se122  1  0.41816737  0.08039934  0.54731528  1
  Se  Se123  1  0.41074109  0.41259678  0.06320876  1
  Se  Se124  1  0.41367368  0.41657563  0.56406499  1
  Se  Se125  1  0.40892318  0.74418502  0.05664181  1
  Se  Se126  1  0.41778892  0.74505746  0.55489622  1
  Se  Se127  1  0.74201015  0.07529516  0.06396535  1
  Se  Se128  1  0.75433978  0.08416468  0.55344919  1
  Se  Se129  1  0.75652356  0.41757679  0.04878907  1
  Se  Se130  1  0.75415560  0.42017768  0.55226871  1
  Se  Se131  1  0.74477569  0.74724079  0.05127879  1
  Se  Se132  1  0.76075454  0.75202264  0.55895832  1
  Se  Se133  1  0.24775745  0.25508002  0.06029485  1
  Se  Se134  1  0.25001669  0.25701300  0.56333370  1
  Se  Se135  1  0.24432755  0.58150608  0.05171697  1
  Se  Se136  1  0.24317185  0.59716623  0.56495901  1
  Se  Se137  1  0.23803122  0.91206627  0.04592796  1
  Se  Se138  1  0.25034856  0.90896748  0.54890260  1
  Se  Se139  1  0.59768597  0.26257032  0.05698417  1
  Se  Se140  1  0.58337783  0.24572062  0.55218367  1
  Se  Se141  1  0.59249067  0.59802416  0.05114486  1
  Se  Se142  1  0.59056999  0.59032654  0.56145033  1
  Se  Se143  1  0.58179767  0.92185547  0.05963985  1
  Se  Se144  1  0.60077859  0.91197114  0.56687638  1
  Se  Se145  1  0.93209005  0.25473306  0.05218576  1
  Se  Se146  1  0.91590247  0.25014904  0.55009293  1
  Se  Se147  1  0.91664609  0.58332697  0.05564725  1
  Se  Se148  1  0.92078947  0.57782345  0.55416254  1
  Se  Se149  1  0.90803519  0.91107852  0.05664733  1
  Se  Se150  1  0.91289229  0.91514648  0.55255029  1
  Se  Se151  1  0.07871209  0.25540199  0.43848675  1
  Se  Se152  1  0.07477620  0.25766371  0.93727248  1
  Se  Se153  1  0.07030105  0.58412197  0.43891793  1
  Se  Se154  1  0.08300434  0.58205255  0.94721337  1
  Se  Se155  1  0.08294143  0.91359056  0.44907924  1
  Se  Se156  1  0.07888630  0.91002467  0.94762528  1
  Se  Se157  1  0.42188836  0.24599561  0.45211679  1
  Se  Se158  1  0.41081913  0.25962002  0.94673363  1
  Se  Se159  1  0.40791683  0.58756703  0.44399298  1
  Se  Se160  1  0.41341408  0.58934969  0.94064221  1
  Se  Se161  1  0.41111165  0.91682384  0.43323487  1
  Se  Se162  1  0.40348783  0.92216870  0.93614664  1
  Se  Se163  1  0.75604366  0.24757682  0.44988336  1
  Se  Se164  1  0.75013093  0.25216511  0.93477138  1
  Se  Se165  1  0.75681540  0.58076984  0.45340086  1
  Se  Se166  1  0.75537102  0.57351951  0.94769039  1
  Se  Se167  1  0.75342827  0.91252939  0.44892397  1
  Se  Se168  1  0.75151676  0.91286384  0.94477747  1
  Se  Se169  1  0.25338101  0.07278624  0.43847196  1
  Se  Se170  1  0.25555521  0.07884070  0.93489152  1
  Se  Se171  1  0.26025101  0.40962021  0.44595923  1
  Se  Se172  1  0.24392592  0.42181008  0.94699570  1
  Se  Se173  1  0.24101032  0.74770330  0.44648225  1
  Se  Se174  1  0.24258773  0.75060993  0.94621409  1
  Se  Se175  1  0.58377924  0.07769964  0.45081521  1
  Se  Se176  1  0.58956507  0.07921182  0.94403558  1
  Se  Se177  1  0.59731519  0.40742773  0.43899927  1
  Se  Se178  1  0.59165482  0.41663135  0.93314476  1
  Se  Se179  1  0.59484157  0.73955651  0.44138221  1
  Se  Se180  1  0.59286349  0.74298908  0.93698805  1
  Se  Se181  1  0.91534936  0.08608024  0.44748919  1
  Se  Se182  1  0.92122888  0.07624886  0.93956909  1
  Se  Se183  1  0.91760268  0.42139156  0.44210945  1
  Se  Se184  1  0.90888935  0.41680710  0.94805032  1
  Se  Se185  1  0.91703450  0.75219165  0.45249913  1
  Se  Se186  1  0.91433968  0.74698627  0.94640593  1
  Se  Se187  1  0.25169336  0.25236993  0.30545386  1
  Se  Se188  1  0.24399179  0.25478129  0.79629999  1
  Se  Se189  1  0.24918850  0.58571212  0.30350103  1
  Se  Se190  1  0.25162291  0.58842906  0.80910862  1
  Se  Se191  1  0.23893057  0.90758620  0.30677578  1
  Se  Se192  1  0.24335901  0.91403621  0.80247985  1
  Se  Se193  1  0.58414585  0.24487578  0.31507335  1
  Se  Se194  1  0.58456544  0.25436176  0.79865421  1
  Se  Se195  1  0.57840569  0.57765395  0.30769329  1
  Se  Se196  1  0.58138834  0.57961322  0.79983785  1
  Se  Se197  1  0.58299649  0.91317107  0.29985440  1
  Se  Se198  1  0.59082555  0.92171064  0.80209796  1
  Se  Se199  1  0.91483728  0.25151670  0.30630283  1
  Se  Se200  1  0.91407607  0.24938449  0.79854329  1
  Se  Se201  1  0.91503756  0.59676474  0.29958904  1
  Se  Se202  1  0.91730260  0.58131573  0.80706442  1
  Se  Se203  1  0.91797973  0.91855622  0.30912675  1
  Se  Se204  1  0.91138769  0.90703266  0.80982758  1
  Se  Se205  1  0.08147697  0.08241819  0.29916268  1
  Se  Se206  1  0.09412286  0.08995297  0.80478431  1
  Se  Se207  1  0.08390108  0.41831224  0.30036265  1
  Se  Se208  1  0.07946536  0.42034705  0.80857477  1
  Se  Se209  1  0.07535689  0.74787299  0.30637558  1
  Se  Se210  1  0.08980842  0.75544883  0.80164789  1
  Se  Se211  1  0.41721560  0.08702411  0.31205403  1
  Se  Se212  1  0.42602536  0.09717942  0.81186349  1
  Se  Se213  1  0.41738157  0.41397604  0.30390182  1
  Se  Se214  1  0.41178688  0.41376663  0.80316137  1
  Se  Se215  1  0.41148505  0.74444067  0.29877723  1
  Se  Se216  1  0.42177433  0.75685747  0.80185522  1
  Se  Se217  1  0.74921308  0.08189407  0.30944766  1
  Se  Se218  1  0.75012720  0.08377291  0.79960302  1
  Se  Se219  1  0.76024956  0.42617739  0.30516474  1
  Se  Se220  1  0.74836260  0.41400861  0.79463329  1
  Se  Se221  1  0.75559114  0.75186677  0.31218356  1
  Se  Se222  1  0.74550577  0.73527261  0.80410539  1
  Se  Se223  1  0.23855117  0.08903434  0.18555387  1
  Se  Se224  1  0.24286061  0.09231447  0.68952815  1
  Se  Se225  1  0.25415691  0.41478625  0.19941876  1
  Se  Se226  1  0.24850269  0.42319834  0.70146358  1
  Se  Se227  1  0.24579927  0.74678786  0.19479160  1
  Se  Se228  1  0.26605991  0.74003938  0.69848964  1
  Se  Se229  1  0.58439595  0.08408611  0.20705871  1
  Se  Se230  1  0.58668485  0.08514197  0.69467790  1
  Se  Se231  1  0.58359678  0.42609379  0.18650531  1
  Se  Se232  1  0.58126529  0.41695660  0.69501733  1
  Se  Se233  1  0.57403291  0.75988754  0.18594584  1
  Se  Se234  1  0.58732319  0.74757497  0.70172402  1
  Se  Se235  1  0.91693605  0.08518869  0.20124503  1
  Se  Se236  1  0.91112042  0.08873939  0.68576448  1
  Se  Se237  1  0.92776117  0.41126902  0.19531045  1
  Se  Se238  1  0.91985971  0.41467574  0.69336996  1
  Se  Se239  1  0.91342153  0.74814688  0.19728292  1
  Se  Se240  1  0.92972271  0.74083480  0.69634011  1
  Se  Se241  1  0.08475035  0.25165853  0.19860007  1
  Se  Se242  1  0.07783188  0.24915421  0.70480828  1
  Se  Se243  1  0.08214767  0.58505662  0.19463857  1
  Se  Se244  1  0.07854395  0.58335185  0.70537427  1
  Se  Se245  1  0.07511346  0.91430965  0.19692703  1
  Se  Se246  1  0.08886096  0.91293317  0.68879292  1
  Se  Se247  1  0.42910540  0.24049833  0.20426668  1
  Se  Se248  1  0.41186271  0.25170343  0.69347596  1
  Se  Se249  1  0.41403959  0.58328928  0.19819071  1
  Se  Se250  1  0.41444753  0.58543236  0.69835537  1
  Se  Se251  1  0.41538166  0.90936588  0.18545576  1
  Se  Se252  1  0.42702335  0.91542476  0.68519770  1
  Se  Se253  1  0.76182909  0.24655573  0.18664626  1
  Se  Se254  1  0.74855115  0.25524075  0.69017831  1
  Se  Se255  1  0.76069856  0.57592283  0.19057203  1
  Se  Se256  1  0.75401357  0.58346005  0.69419945  1
  Se  Se257  1  0.75022997  0.91758994  0.20177311  1
  Se  Se258  1  0.75312848  0.92381838  0.70466806  1
