# generated using pymatgen
data_In86Cu29Se144
_symmetry_space_group_name_H-M   'P 1'
_cell_length_a   17.59025947
_cell_length_b   17.58927070
_cell_length_c   23.45422217
_cell_angle_alpha   90.02018892
_cell_angle_beta   89.99423797
_cell_angle_gamma   89.97910901
_symmetry_Int_Tables_number   1
_chemical_formula_structural   In86Cu29Se144
_chemical_formula_sum   'In86 Cu29 Se144'
_cell_volume   7256.73151002
_cell_formula_units_Z   1
loop_
 _symmetry_equiv_pos_site_id
 _symmetry_equiv_pos_as_xyz
  1  'x, y, z'
loop_
 _atom_site_type_symbol
 _atom_site_label
 _atom_site_symmetry_multiplicity
 _atom_site_fract_x
 _atom_site_fract_y
 _atom_site_fract_z
 _atom_site_occupancy
  In  In0  1  0.00759133  0.16698953  0.12035803  1
  In  In1  1  -0.00318257  0.17324146  0.63335511  1
  In  In2  1  0.00544821  0.48091505  0.12750934  1
  In  In3  1  0.00720616  0.50394717  0.62815071  1
  In  In4  1  0.01842472  0.83300822  0.12633473  1
  In  In5  1  0.00023810  0.83248965  0.62433524  1
  In  In6  1  0.31443609  0.18183702  0.13052978  1
  In  In7  1  0.33793728  0.17647415  0.62457063  1
  In  In8  1  0.32999636  0.50348953  0.12234547  1
  In  In9  1  0.31266310  0.49773428  0.62716803  1
  In  In10  1  0.33387373  0.83155573  0.12826880  1
  In  In11  1  0.32958270  0.83617219  0.61172109  1
  In  In12  1  0.67132242  0.15783629  0.11597386  1
  In  In13  1  0.67388265  0.17400808  0.63119460  1
  In  In14  1  0.65630134  0.51300482  0.12377826  1
  In  In15  1  0.67460477  0.49551846  0.63232333  1
  In  In16  1  0.65863008  0.84306142  0.12538835  1
  In  In17  1  0.65452604  0.81094345  0.60995735  1
  In  In18  1  0.16483729  -0.00233619  0.37172106  1
  In  In19  1  0.15980499  0.00210223  0.88175996  1
  In  In20  1  0.16529285  0.33728432  0.36922189  1
  In  In21  1  0.16401653  0.33630792  0.87391714  1
  In  In22  1  0.17579101  0.65644404  0.37954107  1
  In  In23  1  0.16890021  0.66608099  0.87560651  1
  In  In24  1  0.48425586  -0.01330565  0.36940928  1
  In  In25  1  0.48524462  -0.00144978  0.87808353  1
  In  In26  1  0.47863205  0.34429819  0.37368989  1
  In  In27  1  0.50581640  0.34258673  0.87246385  1
  In  In28  1  0.49678625  0.67413482  0.37659642  1
  In  In29  1  0.49869307  0.66263986  0.87450325  1
  In  In30  1  0.83581904  -0.01293312  0.37682329  1
  In  In31  1  0.85041658  -0.00222632  0.87324929  1
  In  In32  1  0.84736131  0.33056091  0.37919797  1
  In  In33  1  0.83403829  0.33345223  0.87293508  1
  In  In34  1  0.83021335  0.66185976  0.39608635  1
  In  In35  1  0.83304739  0.66132632  0.86235607  1
  In  In36  1  0.00973899  0.17228129  0.36799615  1
  In  In37  1  0.00180133  0.16525081  0.87460959  1
  In  In38  1  0.00539565  0.49146828  0.38728225  1
  In  In39  1  0.01569422  0.50749137  0.86048281  1
  In  In40  1  -0.00347018  0.83844834  0.38004480  1
  In  In41  1  0.00432221  0.83740959  0.86409689  1
  In  In42  1  0.32256783  0.16163386  0.36246494  1
  In  In43  1  0.31648732  0.17550250  0.88806859  1
  In  In44  1  0.32229659  0.48701881  0.35925256  1
  In  In45  1  0.33119553  0.49381087  0.88105960  1
  In  In46  1  0.33330163  0.83235254  0.37721288  1
  In  In47  1  0.33289529  0.82917736  0.88226174  1
  In  In48  1  0.66992880  0.16612905  0.37442971  1
  In  In49  1  0.66724953  0.18802763  0.87899632  1
  In  In50  1  0.66905500  0.51512517  0.38227946  1
  In  In51  1  0.66113707  0.49761466  0.86811804  1
  In  In52  1  0.66662815  0.82260692  0.38962530  1
  In  In53  1  0.65865141  0.82040549  0.86558154  1
  In  In54  1  0.16748933  0.00076451  0.12743227  1
  In  In55  1  0.16538049  -0.01526876  0.62225005  1
  In  In56  1  0.17281919  0.32974624  0.11555598  1
  In  In57  1  0.14385101  0.36671580  0.65663103  1
  In  In58  1  0.17764902  0.68071825  0.11764633  1
  In  In59  1  0.15748774  0.65739141  0.61876338  1
  In  In60  1  0.50065820  -0.01497645  0.12322027  1
  In  In61  1  0.50225410  -0.00977683  0.62288876  1
  In  In62  1  0.48108733  0.34610224  0.12429574  1
  In  In63  1  0.49326373  0.34477609  0.63751374  1
  In  In64  1  0.47087163  0.64200978  0.10992820  1
  In  In65  1  0.50074700  0.68316157  0.63000318  1
  In  In66  1  0.83352223  0.01600325  0.12278104  1
  In  In67  1  0.84734690  -0.00297913  0.62757437  1
  In  In68  1  0.85398477  0.33511909  0.12333366  1
  In  In69  1  0.83392592  0.33750795  0.62996710  1
  In  In70  1  0.83348097  0.66279213  0.12420493  1
  In  In71  1  0.83577101  0.66769850  0.62453075  1
  In  In72  1  0.49888946  0.16597867  0.00349787  1
  In  In73  1  0.49835127  0.15834359  0.50076001  1
  In  In74  1  0.00540030  0.66192899  0.25957056  1
  In  In75  1  0.50044627  0.50632816  0.49940275  1
  In  In76  1  0.83704290  0.83274923  -0.00603752  1
  In  In77  1  0.83870156  0.16678332  0.51225514  1
  In  In78  1  0.66254952  0.33032405  0.24515811  1
  In  In79  1  0.32937092  0.00228116  0.74484348  1
  In  In80  1  0.67070868  -0.00031055  0.75014370  1
  In  In81  1  0.65949235  0.67001478  0.25932874  1
  In  In82  1  0.83434286  0.49670561  -0.00593358  1
  In  In83  1  0.32942094  0.66319864  0.75230774  1
  In  In84  1  0.66832789  -0.00137584  0.25234478  1
  In  In85  1  0.16847353  0.17125462  0.49418088  1
  Cu  Cu86  1  0.00899317  0.32674692  -0.00224058  1
  Cu  Cu87  1  0.33083941  -0.00756798  0.00690852  1
  Cu  Cu88  1  0.49228370  0.16811847  0.24790200  1
  Cu  Cu89  1  0.66884074  0.34009593  -0.00350692  1
  Cu  Cu90  1  0.32839256  0.67024990  -0.00037072  1
  Cu  Cu91  1  0.83984674  0.50165996  0.74747206  1
  Cu  Cu92  1  0.49412060  0.82416309  0.24815754  1
  Cu  Cu93  1  0.84416834  0.83357284  0.25632802  1
  Cu  Cu94  1  0.83468283  0.83044596  0.74422127  1
  Cu  Cu95  1  0.17480693  0.83835488  0.24989574  1
  Cu  Cu96  1  0.84982662  0.16999475  0.24572124  1
  Cu  Cu97  1  0.00406636  0.66957463  0.50526111  1
  Cu  Cu98  1  0.16460453  0.16569727  0.75970405  1
  Cu  Cu99  1  0.00830588  0.66081663  -0.00414551  1
  Cu  Cu100  1  0.16308709  0.83116914  0.74802951  1
  Cu  Cu101  1  0.83338036  0.49419941  0.25682844  1
  Cu  Cu102  1  0.00346021  0.00091965  0.49951942  1
  Cu  Cu103  1  0.32252843  0.33504783  0.49757543  1
  Cu  Cu104  1  0.65578058  0.67362369  -0.00364279  1
  Cu  Cu105  1  0.83440316  0.17175942  0.75217900  1
  Cu  Cu106  1  0.00501181  -0.00095829  -0.00097158  1
  Cu  Cu107  1  0.66540996  0.33641778  0.50812880  1
  Cu  Cu108  1  0.66484513  -0.01051090  0.49975664  1
  Cu  Cu109  1  0.32942937  0.66594643  0.49903174  1
  Cu  Cu110  1  0.16495637  0.17050179  0.24459790  1
  Cu  Cu111  1  0.16335910  0.49770192  0.24574613  1
  Cu  Cu112  1  0.50522325  0.50666263  0.75174219  1
  Cu  Cu113  1  0.49810838  0.17296955  0.75490947  1
  Cu  Cu114  1  0.67006752  -0.00224521  -0.00149323  1
  Se  Se115  1  0.08905262  0.08089708  0.05312119  1
  Se  Se116  1  0.07735182  0.08514120  0.56000716  1
  Se  Se117  1  0.08612488  0.41681475  0.04993378  1
  Se  Se118  1  0.09523495  0.42027046  0.56273711  1
  Se  Se119  1  0.08303655  0.75141561  0.04910663  1
  Se  Se120  1  0.08832923  0.75614877  0.55443367  1
  Se  Se121  1  0.41022824  0.07795175  0.06526139  1
  Se  Se122  1  0.40494815  0.07166238  0.55912175  1
  Se  Se123  1  0.41892398  0.43086071  0.05027717  1
  Se  Se124  1  0.40997007  0.41137959  0.55628893  1
  Se  Se125  1  0.41433970  0.75388657  0.05267505  1
  Se  Se126  1  0.41580958  0.74527457  0.55220439  1
  Se  Se127  1  0.75583845  0.08451281  0.04402396  1
  Se  Se128  1  0.73905131  0.07271119  0.56164765  1
  Se  Se129  1  0.74608215  0.41518983  0.06441593  1
  Se  Se130  1  0.75226645  0.41663461  0.55791359  1
  Se  Se131  1  0.74233926  0.74568815  0.05767441  1
  Se  Se132  1  0.76741097  0.75917406  0.55358228  1
  Se  Se133  1  0.25063565  0.24442266  0.04558839  1
  Se  Se134  1  0.24640779  0.26009356  0.56243172  1
  Se  Se135  1  0.24526944  0.58452351  0.05123830  1
  Se  Se136  1  0.24707412  0.57964131  0.55029324  1
  Se  Se137  1  0.24613800  0.91077508  0.06012376  1
  Se  Se138  1  0.24788335  0.92115911  0.54659759  1
  Se  Se139  1  0.58949017  0.26161645  0.06131880  1
  Se  Se140  1  0.58135237  0.25562895  0.56294311  1
  Se  Se141  1  0.57855087  0.58230836  0.04693680  1
  Se  Se142  1  0.58538975  0.58602683  0.56774775  1
  Se  Se143  1  0.58348283  0.91491858  0.04755048  1
  Se  Se144  1  0.57643412  0.90944289  0.54999221  1
  Se  Se145  1  0.92026278  0.24791199  0.05053583  1
  Se  Se146  1  0.93115128  0.26512434  0.55827991  1
  Se  Se147  1  0.92631545  0.58500980  0.05796807  1
  Se  Se148  1  0.92254099  0.58385575  0.55812565  1
  Se  Se149  1  0.92222347  0.91977185  0.06034444  1
  Se  Se150  1  0.91962045  0.91761980  0.55256908  1
  Se  Se151  1  0.07235597  0.26413380  0.44317968  1
  Se  Se152  1  0.08960476  0.24257551  0.94306726  1
  Se  Se153  1  0.08404768  0.58543639  0.44854142  1
  Se  Se154  1  0.08817061  0.57604613  0.94233367  1
  Se  Se155  1  0.08634741  0.91887890  0.44538990  1
  Se  Se156  1  0.07887248  0.90866279  0.94410345  1
  Se  Se157  1  0.40427879  0.24993455  0.44228046  1
  Se  Se158  1  0.41674799  0.26036325  0.94385637  1
  Se  Se159  1  0.40271075  0.58165835  0.43593906  1
  Se  Se160  1  0.41116347  0.58824908  0.94362479  1
  Se  Se161  1  0.42752158  0.90268359  0.44624237  1
  Se  Se162  1  0.41533856  0.91392076  0.95062063  1
  Se  Se163  1  0.74345894  0.25211965  0.44842259  1
  Se  Se164  1  0.75681992  0.25615127  0.95027728  1
  Se  Se165  1  0.74262584  0.58248637  0.46074409  1
  Se  Se166  1  0.74353114  0.59377349  0.94080632  1
  Se  Se167  1  0.75512816  0.91181571  0.44891035  1
  Se  Se168  1  0.74390187  0.91850956  0.93269665  1
  Se  Se169  1  0.26010956  0.07630288  0.44183569  1
  Se  Se170  1  0.25030909  0.07479906  0.95069579  1
  Se  Se171  1  0.24641004  0.41936544  0.44000935  1
  Se  Se172  1  0.24367617  0.41498792  0.94673825  1
  Se  Se173  1  0.24688989  0.75102032  0.44605597  1
  Se  Se174  1  0.24266048  0.75266966  0.94758973  1
  Se  Se175  1  0.59008634  0.07076078  0.43726451  1
  Se  Se176  1  0.58978851  0.07919691  0.93771956  1
  Se  Se177  1  0.58578259  0.40603228  0.44050171  1
  Se  Se178  1  0.58531108  0.42305830  0.94536886  1
  Se  Se179  1  0.59295279  0.72567240  0.44945340  1
  Se  Se180  1  0.57482466  0.75616900  0.94244216  1
  Se  Se181  1  0.92266899  0.08331738  0.44038122  1
  Se  Se182  1  0.91977108  0.08180415  0.94678265  1
  Se  Se183  1  0.89933717  0.42928792  0.44809222  1
  Se  Se184  1  0.93194820  0.41330007  0.93821605  1
  Se  Se185  1  0.92108816  0.75225918  0.45047035  1
  Se  Se186  1  0.92314671  0.73775661  0.93646438  1
  Se  Se187  1  0.24731258  0.25526511  0.29945027  1
  Se  Se188  1  0.25151658  0.24944235  0.80711605  1
  Se  Se189  1  0.24482489  0.58445763  0.29816876  1
  Se  Se190  1  0.24099638  0.56871221  0.80593076  1
  Se  Se191  1  0.25659255  0.92000479  0.30620785  1
  Se  Se192  1  0.24508235  0.91034265  0.80861426  1
  Se  Se193  1  0.57230371  0.24340566  0.31115542  1
  Se  Se194  1  0.58603575  0.25608574  0.80319227  1
  Se  Se195  1  0.56976734  0.57097410  0.30931041  1
  Se  Se196  1  0.58765116  0.59244151  0.80234910  1
  Se  Se197  1  0.58415823  0.89870345  0.30736352  1
  Se  Se198  1  0.57058766  0.91725061  0.80605145  1
  Se  Se199  1  0.92316306  0.25641624  0.30272241  1
  Se  Se200  1  0.91954174  0.25081031  0.80671879  1
  Se  Se201  1  0.90636144  0.57995182  0.31682794  1
  Se  Se202  1  0.92479216  0.58767688  0.79657845  1
  Se  Se203  1  0.92550882  0.92227260  0.30374626  1
  Se  Se204  1  0.91684323  0.91660143  0.79624720  1
  Se  Se205  1  0.08731096  0.08479004  0.30192836  1
  Se  Se206  1  0.08145989  0.07578725  0.80597673  1
  Se  Se207  1  0.07823887  0.42316595  0.30475308  1
  Se  Se208  1  0.07518716  0.40163620  0.79926602  1
  Se  Se209  1  0.09445336  0.75886246  0.31227695  1
  Se  Se210  1  0.08609466  0.74429555  0.80319376  1
  Se  Se211  1  0.41576850  0.08005280  0.30127166  1
  Se  Se212  1  0.41294038  0.09496152  0.81105840  1
  Se  Se213  1  0.41335271  0.41307426  0.29253500  1
  Se  Se214  1  0.42085963  0.42614903  0.80663305  1
  Se  Se215  1  0.41096128  0.74593865  0.30471558  1
  Se  Se216  1  0.41934653  0.75870333  0.80613208  1
  Se  Se217  1  0.76570627  0.09270213  0.30601612  1
  Se  Se218  1  0.75429635  0.09215503  0.81381301  1
  Se  Se219  1  0.74641454  0.41781622  0.31351452  1
  Se  Se220  1  0.75627503  0.42185054  0.80537411  1
  Se  Se221  1  0.76215095  0.75384659  0.31395551  1
  Se  Se222  1  0.75047373  0.74933809  0.79810641  1
  Se  Se223  1  0.25087532  0.08253815  0.19729152  1
  Se  Se224  1  0.23748294  0.09322690  0.68757456  1
  Se  Se225  1  0.24549545  0.41685130  0.18905236  1
  Se  Se226  1  0.27432151  0.39768903  0.70091693  1
  Se  Se227  1  0.25197583  0.74796100  0.19840658  1
  Se  Se228  1  0.24638960  0.75512833  0.68716732  1
  Se  Se229  1  0.57847090  0.09020019  0.19078631  1
  Se  Se230  1  0.57330765  0.09126735  0.69218200  1
  Se  Se231  1  0.57452353  0.42801226  0.19331893  1
  Se  Se232  1  0.58778273  0.41739301  0.70172276  1
  Se  Se233  1  0.57637247  0.74832966  0.18652640  1
  Se  Se234  1  0.58809797  0.75655492  0.69877125  1
  Se  Se235  1  0.92595660  0.08207242  0.19192314  1
  Se  Se236  1  0.91516605  0.08585203  0.69935955  1
  Se  Se237  1  0.91827280  0.41523846  0.20241332  1
  Se  Se238  1  0.92218718  0.41690471  0.69566893  1
  Se  Se239  1  0.91575027  0.75025590  0.19292011  1
  Se  Se240  1  0.92237825  0.74755316  0.69466963  1
  Se  Se241  1  0.08546632  0.25472871  0.18868277  1
  Se  Se242  1  0.08159637  0.24833899  0.70447563  1
  Se  Se243  1  0.08749933  0.58338381  0.18600841  1
  Se  Se244  1  0.09615802  0.57881289  0.69820511  1
  Se  Se245  1  0.08525178  0.91854212  0.19980487  1
  Se  Se246  1  0.08079561  0.91771891  0.69639276  1
  Se  Se247  1  0.41406161  0.25316378  0.19357563  1
  Se  Se248  1  0.41305670  0.25264639  0.70024790  1
  Se  Se249  1  0.40824839  0.58398829  0.19667298  1
  Se  Se250  1  0.42050712  0.57684518  0.68722689  1
  Se  Se251  1  0.41738891  0.91633511  0.19782477  1
  Se  Se252  1  0.41821862  0.90563728  0.69152176  1
  Se  Se253  1  0.75868353  0.24105288  0.18750095  1
  Se  Se254  1  0.75026115  0.25632263  0.70101238  1
  Se  Se255  1  0.75587619  0.57739570  0.19792104  1
  Se  Se256  1  0.75456469  0.58577869  0.69664882  1
  Se  Se257  1  0.76266591  0.90892590  0.19227677  1
  Se  Se258  1  0.75134954  0.90980907  0.68505200  1
