# generated using pymatgen
data_In86Cu29Se144
_symmetry_space_group_name_H-M   'P 1'
_cell_length_a   17.57506841
_cell_length_b   17.57861695
_cell_length_c   23.43775571
_cell_angle_alpha   90.01967544
_cell_angle_beta   90.00027673
_cell_angle_gamma   89.97869393
_symmetry_Int_Tables_number   1
_chemical_formula_structural   In86Cu29Se144
_chemical_formula_sum   'In86 Cu29 Se144'
_cell_volume   7240.98578061
_cell_formula_units_Z   1
loop_
 _symmetry_equiv_pos_site_id
 _symmetry_equiv_pos_as_xyz
  1  'x, y, z'
loop_
 _atom_site_type_symbol
 _atom_site_label
 _atom_site_symmetry_multiplicity
 _atom_site_fract_x
 _atom_site_fract_y
 _atom_site_fract_z
 _atom_site_occupancy
  In  In0  1  0.00548731  0.17975032  0.12301346  1
  In  In1  1  -0.01191650  0.17568051  0.63121550  1
  In  In2  1  -0.00413989  0.49762301  0.12727402  1
  In  In3  1  -0.01395116  0.48984289  0.61641801  1
  In  In4  1  -0.01446805  0.82977475  0.13141677  1
  In  In5  1  0.00600398  0.84079784  0.62672299  1
  In  In6  1  0.32735928  0.17183380  0.12546717  1
  In  In7  1  0.34569133  0.15757857  0.62365060  1
  In  In8  1  0.33015326  0.49120426  0.11443165  1
  In  In9  1  0.34654925  0.51005636  0.61721195  1
  In  In10  1  0.34597979  0.83405050  0.12861318  1
  In  In11  1  0.33459011  0.82269898  0.62783258  1
  In  In12  1  0.68233024  0.16285467  0.12364436  1
  In  In13  1  0.66602704  0.15398412  0.61510836  1
  In  In14  1  0.66795441  0.49801653  0.12889249  1
  In  In15  1  0.67799354  0.51140417  0.62071474  1
  In  In16  1  0.65621251  0.82989907  0.13035835  1
  In  In17  1  0.66708728  0.83003388  0.61974692  1
  In  In18  1  0.17567759  -0.00733439  0.37315072  1
  In  In19  1  0.16987710  0.01941409  0.87818678  1
  In  In20  1  0.16724743  0.34972656  0.37405952  1
  In  In21  1  0.15523181  0.33991850  0.88034274  1
  In  In22  1  0.14548797  0.66649132  0.37752834  1
  In  In23  1  0.15996052  0.64854147  0.87245146  1
  In  In24  1  0.50252373  0.00609610  0.38794101  1
  In  In25  1  0.49653666  -0.00736498  0.86814361  1
  In  In26  1  0.51392342  0.32511954  0.38080666  1
  In  In27  1  0.51672260  0.33903631  0.87518772  1
  In  In28  1  0.51222732  0.64987642  0.38259142  1
  In  In29  1  0.49480630  0.66445513  0.86584972  1
  In  In30  1  0.80595528  0.01867905  0.40616616  1
  In  In31  1  0.84139445  0.01209306  0.86157114  1
  In  In32  1  0.83415524  0.33539560  0.37273220  1
  In  In33  1  0.83955208  0.32889134  0.87862308  1
  In  In34  1  0.83487427  0.66447996  0.38225226  1
  In  In35  1  0.82114283  0.66411520  0.87122881  1
  In  In36  1  -0.01375057  0.16852307  0.37476402  1
  In  In37  1  -0.00328320  0.17284066  0.87427271  1
  In  In38  1  -0.00270521  0.50295024  0.37701869  1
  In  In39  1  0.00289351  0.49161883  0.87903793  1
  In  In40  1  -0.01371900  0.82135404  0.37655265  1
  In  In41  1  -0.01390065  0.83229762  0.86743338  1
  In  In42  1  0.35803581  0.16626946  0.36869098  1
  In  In43  1  0.31785178  0.15277634  0.87978869  1
  In  In44  1  0.32719485  0.50431814  0.38299380  1
  In  In45  1  0.32843949  0.50219720  0.87560429  1
  In  In46  1  0.33534411  0.84962483  0.37275351  1
  In  In47  1  0.34359358  0.83459011  0.87018610  1
  In  In48  1  0.65411877  0.18060791  0.38092909  1
  In  In49  1  0.67925574  0.17527465  0.86873350  1
  In  In50  1  0.66980595  0.49735547  0.37425289  1
  In  In51  1  0.66289010  0.50650539  0.87850232  1
  In  In52  1  0.67956356  0.82280243  0.39339537  1
  In  In53  1  0.65944546  0.83037522  0.86128509  1
  In  In54  1  0.17017927  0.01513444  0.12066550  1
  In  In55  1  0.15936209  -0.01820306  0.63488606  1
  In  In56  1  0.15998398  0.32594892  0.12085992  1
  In  In57  1  0.14801061  0.33311382  0.62803183  1
  In  In58  1  0.16460150  0.64927513  0.12253933  1
  In  In59  1  0.17945846  0.67308019  0.62690702  1
  In  In60  1  0.50063792  -0.00630249  0.12855473  1
  In  In61  1  0.52726320  0.01384422  0.60290827  1
  In  In62  1  0.49452923  0.34285376  0.12630070  1
  In  In63  1  0.50250611  0.33025232  0.61595471  1
  In  In64  1  0.51452887  0.66765242  0.13027216  1
  In  In65  1  0.50167532  0.66830616  0.62308811  1
  In  In66  1  0.82309932  0.00665429  0.12168487  1
  In  In67  1  0.83091065  -0.00082440  0.62044125  1
  In  In68  1  0.83298885  0.33697710  0.12745603  1
  In  In69  1  0.84499318  0.34620934  0.61935948  1
  In  In70  1  0.84458192  0.65657960  0.13888799  1
  In  In71  1  0.82556577  0.64408653  0.61829319  1
  In  In72  1  -0.00078238  0.66811520  0.74645822  1
  In  In73  1  0.16740042  0.83371184  -0.00374427  1
  In  In74  1  0.66442072  0.00146609  0.25880035  1
  In  In75  1  0.49862586  0.83275525  -0.00610688  1
  In  In76  1  -0.00511665  -0.00900657  0.25803022  1
  In  In77  1  0.33293481  0.33603869  0.74285661  1
  In  In78  1  0.33271792  -0.00513440  0.74861878  1
  In  In79  1  0.33512591  0.66665966  0.24656964  1
  In  In80  1  0.16509140  0.82860219  0.50170829  1
  In  In81  1  0.16883169  0.16890514  0.50876768  1
  In  In82  1  0.67272110  0.33543550  0.74686594  1
  In  In83  1  0.82809915  0.83265261  -0.00214612  1
  In  In84  1  0.33445082  0.33161367  0.24790848  1
  In  In85  1  0.49721129  0.17093866  0.00117025  1
  Cu  Cu86  1  0.16755452  0.16762800  0.24545082  1
  Cu  Cu87  1  0.50226332  0.50979737  0.74623468  1
  Cu  Cu88  1  -0.00138841  0.01058565  -0.00564648  1
  Cu  Cu89  1  0.16729132  0.50451055  0.75259945  1
  Cu  Cu90  1  0.82913391  0.83120393  0.26347077  1
  Cu  Cu91  1  0.67095540  0.65853505  0.00461571  1
  Cu  Cu92  1  0.67277865  0.00695682  -0.00874251  1
  Cu  Cu93  1  0.33513909  0.66865013  0.49997442  1
  Cu  Cu94  1  0.34010996  0.00324470  0.49874148  1
  Cu  Cu95  1  0.67367712  0.34032693  0.00073551  1
  Cu  Cu96  1  0.67293770  0.33657850  0.49903087  1
  Cu  Cu97  1  0.15891941  0.16844543  0.75247472  1
  Cu  Cu98  1  0.50324488  0.49313595  0.25331856  1
  Cu  Cu99  1  0.33532038  0.33530983  0.49576959  1
  Cu  Cu100  1  0.83618368  0.17393534  0.24946263  1
  Cu  Cu101  1  0.50307005  0.83824186  0.73905296  1
  Cu  Cu102  1  0.00153559  0.65576336  0.00339733  1
  Cu  Cu103  1  0.82572286  0.83475701  0.74235861  1
  Cu  Cu104  1  0.33547508  0.65614098  -0.00566006  1
  Cu  Cu105  1  0.33227839  0.33488097  -0.00250563  1
  Cu  Cu106  1  -0.00353608  0.33359370  0.00268253  1
  Cu  Cu107  1  0.83031808  0.49879511  0.25409067  1
  Cu  Cu108  1  -0.00318676  -0.00119292  0.50438211  1
  Cu  Cu109  1  0.16473533  0.83444612  0.25351179  1
  Cu  Cu110  1  0.66433833  0.66083180  0.50127418  1
  Cu  Cu111  1  0.15189435  0.50255085  0.25032458  1
  Cu  Cu112  1  0.50400805  0.83093028  0.25648945  1
  Cu  Cu113  1  -0.00158050  0.33579064  0.49800737  1
  Cu  Cu114  1  0.83122447  0.16226629  0.74555276  1
  Se  Se115  1  0.07944539  0.08827873  0.05400173  1
  Se  Se116  1  0.07968688  0.07494742  0.56587308  1
  Se  Se117  1  0.08058254  0.41695921  0.05705521  1
  Se  Se118  1  0.08445864  0.41622739  0.55109102  1
  Se  Se119  1  0.07445606  0.74721248  0.06019622  1
  Se  Se120  1  0.07502302  0.73892508  0.55909966  1
  Se  Se121  1  0.41272415  0.07578688  0.06031189  1
  Se  Se122  1  0.42440085  0.09150058  0.54552827  1
  Se  Se123  1  0.42093414  0.41574798  0.04755035  1
  Se  Se124  1  0.42000008  0.41689285  0.55088260  1
  Se  Se125  1  0.41286972  0.73700204  0.05653534  1
  Se  Se126  1  0.41699401  0.75177725  0.55344081  1
  Se  Se127  1  0.75595205  0.08823017  0.04500053  1
  Se  Se128  1  0.76192049  0.08781936  0.54769361  1
  Se  Se129  1  0.75398657  0.42254759  0.05726157  1
  Se  Se130  1  0.75403792  0.42164157  0.55242476  1
  Se  Se131  1  0.74578528  0.74418986  0.06504519  1
  Se  Se132  1  0.75054229  0.74047608  0.55493737  1
  Se  Se133  1  0.25114940  0.25150524  0.05264901  1
  Se  Se134  1  0.26094564  0.26144435  0.56605530  1
  Se  Se135  1  0.24823998  0.57881348  0.04890325  1
  Se  Se136  1  0.25125555  0.58744951  0.55392151  1
  Se  Se137  1  0.25755199  0.91747801  0.06050952  1
  Se  Se138  1  0.25605329  0.92519518  0.55801969  1
  Se  Se139  1  0.59190679  0.25764388  0.06014664  1
  Se  Se140  1  0.58972641  0.25011135  0.55030103  1
  Se  Se141  1  0.58256080  0.58068891  0.05805558  1
  Se  Se142  1  0.57901178  0.57856514  0.55500823  1
  Se  Se143  1  0.59509597  0.92506233  0.05255661  1
  Se  Se144  1  0.58315592  0.90347437  0.54587030  1
  Se  Se145  1  0.91196716  0.25067792  0.05628324  1
  Se  Se146  1  0.91763656  0.25060979  0.55188169  1
  Se  Se147  1  0.91173482  0.58178146  0.05799776  1
  Se  Se148  1  0.91902022  0.58103964  0.54680020  1
  Se  Se149  1  0.92283038  0.92618727  0.05579578  1
  Se  Se150  1  0.91777134  0.91113073  0.55550554  1
  Se  Se151  1  0.08267997  0.25348972  0.44079042  1
  Se  Se152  1  0.07989440  0.24969564  0.94764924  1
  Se  Se153  1  0.08820351  0.57341125  0.44789691  1
  Se  Se154  1  0.08579938  0.57510931  0.94942820  1
  Se  Se155  1  0.07716548  0.92298045  0.44075270  1
  Se  Se156  1  0.07113112  0.92047567  0.93759095  1
  Se  Se157  1  0.41956254  0.24923422  0.44701271  1
  Se  Se158  1  0.41004120  0.25714571  0.93378793  1
  Se  Se159  1  0.41723732  0.57960978  0.44991735  1
  Se  Se160  1  0.42348228  0.57993380  0.93984015  1
  Se  Se161  1  0.41925710  0.91243265  0.44984011  1
  Se  Se162  1  0.40410805  0.93034992  0.94575128  1
  Se  Se163  1  0.75362824  0.25220757  0.44351958  1
  Se  Se164  1  0.74957074  0.25079988  0.94685770  1
  Se  Se165  1  0.74843168  0.57851343  0.44662486  1
  Se  Se166  1  0.75488863  0.58092027  0.94797316  1
  Se  Se167  1  0.74746354  0.91183799  0.46500739  1
  Se  Se168  1  0.74478867  0.91970805  0.93116162  1
  Se  Se169  1  0.25605839  0.08394048  0.44124438  1
  Se  Se170  1  0.24517594  0.08349531  0.95888873  1
  Se  Se171  1  0.24596756  0.41927886  0.45109607  1
  Se  Se172  1  0.24794275  0.41853367  0.94432266  1
  Se  Se173  1  0.25617665  0.74534234  0.43475881  1
  Se  Se174  1  0.25809126  0.74152059  0.93645276  1
  Se  Se175  1  0.60658671  0.07217393  0.44666521  1
  Se  Se176  1  0.58410124  0.08233780  0.93524182  1
  Se  Se177  1  0.58532200  0.41882526  0.44675831  1
  Se  Se178  1  0.58523330  0.42109342  0.95013288  1
  Se  Se179  1  0.57818244  0.74524896  0.45103121  1
  Se  Se180  1  0.59398952  0.74093631  0.94157954  1
  Se  Se181  1  0.92022679  0.08941518  0.45305101  1
  Se  Se182  1  0.91000176  0.08780495  0.94139034  1
  Se  Se183  1  0.91374261  0.41745575  0.44432072  1
  Se  Se184  1  0.91417604  0.41742662  0.94883288  1
  Se  Se185  1  0.91085070  0.75187807  0.45260847  1
  Se  Se186  1  0.92296818  0.73848016  0.94350084  1
  Se  Se187  1  0.24565238  0.24317211  0.31274297  1
  Se  Se188  1  0.24453251  0.24866639  0.80860007  1
  Se  Se189  1  0.24077224  0.58044773  0.30634823  1
  Se  Se190  1  0.25553098  0.58595727  0.80140434  1
  Se  Se191  1  0.25348819  0.92011413  0.29646960  1
  Se  Se192  1  0.24006005  0.91431424  0.81321313  1
  Se  Se193  1  0.57555257  0.24413808  0.30200083  1
  Se  Se194  1  0.57636303  0.24337066  0.80201304  1
  Se  Se195  1  0.58592544  0.58036971  0.30285168  1
  Se  Se196  1  0.58890971  0.58663474  0.80246227  1
  Se  Se197  1  0.58551131  0.90499041  0.31981517  1
  Se  Se198  1  0.58223781  0.92193257  0.79611791  1
  Se  Se199  1  0.92127224  0.25584038  0.30124178  1
  Se  Se200  1  0.91058012  0.24782260  0.80202232  1
  Se  Se201  1  0.91313084  0.58391570  0.30738723  1
  Se  Se202  1  0.91519281  0.57853074  0.81039862  1
  Se  Se203  1  0.89556240  0.92273948  0.32368115  1
  Se  Se204  1  0.91200566  0.91536710  0.79595122  1
  Se  Se205  1  0.08968009  0.08896116  0.31047393  1
  Se  Se206  1  0.07850449  0.08392168  0.80654583  1
  Se  Se207  1  0.07526831  0.41555591  0.30423382  1
  Se  Se208  1  0.08406455  0.41843843  0.80288791  1
  Se  Se209  1  0.07764539  0.75481025  0.30422840  1
  Se  Se210  1  0.09020348  0.75403440  0.81043592  1
  Se  Se211  1  0.42202932  0.06620871  0.30661918  1
  Se  Se212  1  0.41695870  0.09390928  0.80737561  1
  Se  Se213  1  0.41713766  0.42112247  0.31381430  1
  Se  Se214  1  0.42668509  0.42277762  0.80533477  1
  Se  Se215  1  0.42147820  0.74865343  0.31420426  1
  Se  Se216  1  0.42135723  0.75664676  0.79757351  1
  Se  Se217  1  0.75917066  0.09261907  0.31238765  1
  Se  Se218  1  0.74268741  0.08219748  0.79703544  1
  Se  Se219  1  0.74614348  0.41163108  0.30284007  1
  Se  Se220  1  0.75573100  0.42224632  0.81233764  1
  Se  Se221  1  0.74598625  0.74538993  0.31317548  1
  Se  Se222  1  0.74896499  0.74815844  0.79837369  1
  Se  Se223  1  0.25322992  0.08390440  0.19660299  1
  Se  Se224  1  0.24037470  0.09161849  0.69047534  1
  Se  Se225  1  0.24034145  0.42507963  0.19240367  1
  Se  Se226  1  0.24331945  0.42739284  0.68534739  1
  Se  Se227  1  0.24003414  0.75545983  0.18735945  1
  Se  Se228  1  0.24098934  0.76480789  0.69922598  1
  Se  Se229  1  0.58252506  0.08836609  0.19031041  1
  Se  Se230  1  0.58154998  0.08511897  0.68938787  1
  Se  Se231  1  0.58450623  0.41156997  0.19697767  1
  Se  Se232  1  0.57803272  0.42360812  0.68746040  1
  Se  Se233  1  0.58804365  0.74662227  0.20570358  1
  Se  Se234  1  0.58651757  0.74809193  0.69269205  1
  Se  Se235  1  0.91313346  0.08490106  0.19192443  1
  Se  Se236  1  0.91575938  0.07733082  0.69358270  1
  Se  Se237  1  0.91529880  0.41696938  0.19883671  1
  Se  Se238  1  0.92302067  0.41430221  0.69733224  1
  Se  Se239  1  0.91464697  0.75177786  0.20738634  1
  Se  Se240  1  0.90621493  0.75177885  0.68433411  1
  Se  Se241  1  0.08260569  0.25463127  0.19945969  1
  Se  Se242  1  0.07465682  0.25287640  0.70165015  1
  Se  Se243  1  0.07409715  0.58929634  0.19631879  1
  Se  Se244  1  0.08825123  0.57804689  0.68617229  1
  Se  Se245  1  0.08834652  0.91499334  0.18781161  1
  Se  Se246  1  0.07823704  0.91015371  0.70697277  1
  Se  Se247  1  0.42783292  0.23940695  0.19374341  1
  Se  Se248  1  0.42896472  0.24281057  0.69284754  1
  Se  Se249  1  0.42138162  0.56934159  0.18913959  1
  Se  Se250  1  0.41398685  0.59044373  0.69503204  1
  Se  Se251  1  0.42250147  0.91358287  0.20161161  1
  Se  Se252  1  0.42570655  0.92241697  0.68015334  1
  Se  Se253  1  0.74862062  0.25149296  0.19587612  1
  Se  Se254  1  0.75720209  0.24619941  0.68298999  1
  Se  Se255  1  0.74655405  0.58319777  0.20026616  1
  Se  Se256  1  0.75655964  0.57499603  0.70014209  1
  Se  Se257  1  0.75716016  0.90979880  0.19494388  1
  Se  Se258  1  0.74393708  0.91958175  0.68941901  1
