# generated using pymatgen
data_In86Cu29Se144
_symmetry_space_group_name_H-M   'P 1'
_cell_length_a   17.57620833
_cell_length_b   17.57601108
_cell_length_c   23.43667618
_cell_angle_alpha   90.01680591
_cell_angle_beta   90.00481852
_cell_angle_gamma   90.02119008
_symmetry_Int_Tables_number   1
_chemical_formula_structural   In86Cu29Se144
_chemical_formula_sum   'In86 Cu29 Se144'
_cell_volume   7240.04855894
_cell_formula_units_Z   1
loop_
 _symmetry_equiv_pos_site_id
 _symmetry_equiv_pos_as_xyz
  1  'x, y, z'
loop_
 _atom_site_type_symbol
 _atom_site_label
 _atom_site_symmetry_multiplicity
 _atom_site_fract_x
 _atom_site_fract_y
 _atom_site_fract_z
 _atom_site_occupancy
  In  In0  1  0.00109084  0.18661553  0.12082210  1
  In  In1  1  -0.00700820  0.16483484  0.63439034  1
  In  In2  1  0.00105625  0.49247239  0.12062151  1
  In  In3  1  -0.01435873  0.51617884  0.64244786  1
  In  In4  1  0.00632798  0.82271670  0.11923049  1
  In  In5  1  -0.00014920  0.83003246  0.62755962  1
  In  In6  1  0.32336587  0.15667284  0.12839956  1
  In  In7  1  0.34234661  0.14457048  0.62549827  1
  In  In8  1  0.33466486  0.49396085  0.10891261  1
  In  In9  1  0.33183713  0.50831126  0.63336236  1
  In  In10  1  0.33477392  0.83397578  0.11954062  1
  In  In11  1  0.32925006  0.83905673  0.62294285  1
  In  In12  1  0.68335593  0.16766938  0.11993878  1
  In  In13  1  0.65215534  0.17425892  0.62539509  1
  In  In14  1  0.66488696  0.50973076  0.13590578  1
  In  In15  1  0.67513339  0.48951539  0.63087269  1
  In  In16  1  0.65310467  0.83086643  0.12256641  1
  In  In17  1  0.66756772  0.83037821  0.62984026  1
  In  In18  1  0.16867778  -0.01380454  0.37831725  1
  In  In19  1  0.16115987  -0.00873344  0.86766598  1
  In  In20  1  0.15571951  0.34293991  0.37075290  1
  In  In21  1  0.16460606  0.37120482  0.87394158  1
  In  In22  1  0.17186763  0.67092602  0.37609682  1
  In  In23  1  0.17360143  0.66328997  0.87412494  1
  In  In24  1  0.49446930  0.00314814  0.38465340  1
  In  In25  1  0.48982343  -0.00992735  0.86369778  1
  In  In26  1  0.50650935  0.31751328  0.37652027  1
  In  In27  1  0.50760394  0.33649045  0.87479164  1
  In  In28  1  0.50846193  0.66355418  0.38040214  1
  In  In29  1  0.50177398  0.67020244  0.87394277  1
  In  In30  1  0.82315774  -0.00281299  0.38328491  1
  In  In31  1  0.84147189  0.00974081  0.86551039  1
  In  In32  1  0.83806604  0.34506862  0.36680541  1
  In  In33  1  0.83213779  0.33159781  0.87211820  1
  In  In34  1  0.82391784  0.67377514  0.38668062  1
  In  In35  1  0.83801547  0.66928699  0.86780959  1
  In  In36  1  -0.01120022  0.17988782  0.37664542  1
  In  In37  1  -0.00502975  0.16352005  0.86871812  1
  In  In38  1  -0.00242803  0.48651520  0.36787451  1
  In  In39  1  0.02625049  0.51880943  0.85097622  1
  In  In40  1  -0.00033117  0.82691103  0.38886722  1
  In  In41  1  0.00784492  0.83294480  0.87204788  1
  In  In42  1  0.35110070  0.16161665  0.37641007  1
  In  In43  1  0.33965002  0.16494434  0.86990074  1
  In  In44  1  0.32802469  0.50548225  0.37382851  1
  In  In45  1  0.31590125  0.51960073  0.89095512  1
  In  In46  1  0.32739534  0.84374028  0.38903329  1
  In  In47  1  0.33644139  0.83312694  0.87248041  1
  In  In48  1  0.66148193  0.16886602  0.37461925  1
  In  In49  1  0.67607824  0.17862296  0.86547370  1
  In  In50  1  0.67584279  0.51038417  0.36490544  1
  In  In51  1  0.66353731  0.49701236  0.86961274  1
  In  In52  1  0.66444056  0.82787087  0.38684706  1
  In  In53  1  0.65641762  0.82478026  0.86468701  1
  In  In54  1  0.18004177  0.00361555  0.12498013  1
  In  In55  1  0.18371241  -0.01923435  0.63936867  1
  In  In56  1  0.15989048  0.33392184  0.12246754  1
  In  In57  1  0.15696731  0.33402336  0.62967735  1
  In  In58  1  0.15974027  0.66753162  0.10680621  1
  In  In59  1  0.15024283  0.67823860  0.64130469  1
  In  In60  1  0.49707907  -0.01759533  0.12190236  1
  In  In61  1  0.49804699  0.00007740  0.62300063  1
  In  In62  1  0.49880240  0.35061411  0.12117821  1
  In  In63  1  0.52004686  0.32939624  0.62339275  1
  In  In64  1  0.50244592  0.66770371  0.11978960  1
  In  In65  1  0.48760123  0.68031601  0.63480820  1
  In  In66  1  0.81904418  0.00392557  0.12043462  1
  In  In67  1  0.84226192  -0.01396182  0.63312587  1
  In  In68  1  0.84275741  0.33929403  0.12750207  1
  In  In69  1  0.81525235  0.34688255  0.62608715  1
  In  In70  1  0.82773858  0.65065709  0.12618850  1
  In  In71  1  0.83023428  0.66398425  0.62817901  1
  In  In72  1  0.50618077  0.49705594  0.50304301  1
  In  In73  1  0.50173264  0.16781497  -0.01080408  1
  In  In74  1  0.33430213  0.33639408  0.75648717  1
  In  In75  1  0.17304981  0.15776354  0.50696943  1
  In  In76  1  0.83748326  0.83441346  -0.01233723  1
  In  In77  1  0.33579085  0.32950794  0.24494501  1
  In  In78  1  -0.00026335  0.00430558  0.25561983  1
  In  In79  1  0.84008503  0.49897920  0.00073237  1
  In  In80  1  0.16485332  0.17124443  0.00158528  1
  In  In81  1  -0.00493286  0.66045142  0.24189480  1
  In  In82  1  0.82871879  0.16262691  0.50159075  1
  In  In83  1  0.33190964  0.66502463  0.25143081  1
  In  In84  1  0.66216389  0.00363346  0.25748038  1
  In  In85  1  0.16318093  0.50258796  0.49659322  1
  Cu  Cu86  1  -0.00229115  0.00143924  -0.00873249  1
  Cu  Cu87  1  0.50117864  0.50602941  0.75087353  1
  Cu  Cu88  1  0.00626661  -0.00672701  0.51008200  1
  Cu  Cu89  1  0.82987456  0.49501643  0.75159910  1
  Cu  Cu90  1  0.49851174  0.83437435  0.74580420  1
  Cu  Cu91  1  0.82708188  0.16427773  0.74496430  1
  Cu  Cu92  1  -0.00639385  0.33766626  0.50075696  1
  Cu  Cu93  1  0.34017651  0.67439321  -0.00408021  1
  Cu  Cu94  1  -0.00516178  0.66412901  0.51037930  1
  Cu  Cu95  1  0.49531878  0.82698603  0.24698916  1
  Cu  Cu96  1  0.66917907  0.33519508  -0.00616774  1
  Cu  Cu97  1  0.16937613  0.16569613  0.24865302  1
  Cu  Cu98  1  0.50274392  0.49912925  0.25011997  1
  Cu  Cu99  1  0.50414654  0.15999281  0.25188115  1
  Cu  Cu100  1  0.83488877  0.82873386  0.74995090  1
  Cu  Cu101  1  0.16343966  0.16629044  0.75067784  1
  Cu  Cu102  1  0.32766827  0.67452970  0.50718675  1
  Cu  Cu103  1  0.66399513  0.66763957  -0.00009880  1
  Cu  Cu104  1  0.17027711  0.83462224  0.25168165  1
  Cu  Cu105  1  0.50035314  0.16371963  0.74909939  1
  Cu  Cu106  1  -0.00209372  0.33717643  -0.00450106  1
  Cu  Cu107  1  0.66676804  -0.00784090  0.50627750  1
  Cu  Cu108  1  0.84138236  0.17976216  0.24553411  1
  Cu  Cu109  1  0.33341351  -0.00672672  -0.00418904  1
  Cu  Cu110  1  0.82379366  0.82818161  0.25921092  1
  Cu  Cu111  1  0.17128337  0.83118359  0.75167250  1
  Cu  Cu112  1  0.66395379  0.66498445  0.50764057  1
  Cu  Cu113  1  0.34022885  0.32578429  0.50332943  1
  Cu  Cu114  1  0.66587667  0.00159029  -0.00450484  1
  Se  Se115  1  0.07386953  0.07724883  0.06056252  1
  Se  Se116  1  0.08156633  0.07518314  0.57008744  1
  Se  Se117  1  0.08519572  0.41637437  0.04899658  1
  Se  Se118  1  0.07311936  0.41871750  0.56065946  1
  Se  Se119  1  0.08957819  0.76307808  0.04260371  1
  Se  Se120  1  0.08408288  0.74742376  0.55728503  1
  Se  Se121  1  0.41241658  0.07801096  0.05474756  1
  Se  Se122  1  0.42622129  0.08565276  0.54907637  1
  Se  Se123  1  0.42521452  0.41950860  0.04341800  1
  Se  Se124  1  0.40988290  0.41284456  0.56476496  1
  Se  Se125  1  0.42246302  0.75484471  0.05307094  1
  Se  Se126  1  0.41680848  0.75478974  0.55588429  1
  Se  Se127  1  0.75269900  0.08541989  0.04347135  1
  Se  Se128  1  0.74672880  0.07293022  0.56667830  1
  Se  Se129  1  0.74267297  0.41567671  0.05940719  1
  Se  Se130  1  0.74160802  0.41875826  0.54860440  1
  Se  Se131  1  0.74995189  0.74773067  0.05689521  1
  Se  Se132  1  0.75021168  0.74883181  0.55858958  1
  Se  Se133  1  0.26216170  0.25698336  0.05942870  1
  Se  Se134  1  0.25743950  0.25470046  0.56672933  1
  Se  Se135  1  0.25584192  0.58831730  0.04743453  1
  Se  Se136  1  0.24646275  0.59083332  0.56282972  1
  Se  Se137  1  0.24742043  0.91625799  0.05233738  1
  Se  Se138  1  0.24954530  0.92308961  0.55314038  1
  Se  Se139  1  0.58921051  0.25370632  0.05591345  1
  Se  Se140  1  0.58794309  0.25307933  0.54571302  1
  Se  Se141  1  0.58833434  0.58037056  0.05646314  1
  Se  Se142  1  0.58232295  0.58930312  0.57007276  1
  Se  Se143  1  0.58506302  0.91625338  0.04796777  1
  Se  Se144  1  0.58331837  0.91035742  0.55951799  1
  Se  Se145  1  0.91300542  0.25662706  0.04983510  1
  Se  Se146  1  0.91816635  0.25423526  0.56081896  1
  Se  Se147  1  0.93001802  0.59654651  0.05506964  1
  Se  Se148  1  0.91187500  0.57692128  0.55849760  1
  Se  Se149  1  0.91984584  0.92412357  0.05820679  1
  Se  Se150  1  0.91596157  0.91038282  0.55581866  1
  Se  Se151  1  0.08175153  0.25589572  0.44851026  1
  Se  Se152  1  0.08049858  0.25709120  0.93555397  1
  Se  Se153  1  0.06989377  0.59231299  0.43855698  1
  Se  Se154  1  0.09240408  0.57244055  0.93894965  1
  Se  Se155  1  0.08634088  0.91291613  0.45122974  1
  Se  Se156  1  0.08434633  0.91737232  0.94480704  1
  Se  Se157  1  0.42343004  0.24447305  0.45024205  1
  Se  Se158  1  0.40550890  0.26140020  0.94053101  1
  Se  Se159  1  0.40497766  0.58849108  0.44828644  1
  Se  Se160  1  0.42444270  0.58702871  0.94687393  1
  Se  Se161  1  0.43327749  0.90263113  0.44945828  1
  Se  Se162  1  0.42146492  0.91441612  0.94371631  1
  Se  Se163  1  0.75133962  0.25571793  0.43716700  1
  Se  Se164  1  0.75232401  0.24954425  0.94462015  1
  Se  Se165  1  0.74189751  0.58188507  0.44935296  1
  Se  Se166  1  0.74785398  0.59011317  0.94078235  1
  Se  Se167  1  0.75213630  0.91028051  0.45346160  1
  Se  Se168  1  0.74367659  0.92277676  0.93139324  1
  Se  Se169  1  0.26034319  0.07435441  0.44156465  1
  Se  Se170  1  0.25328964  0.07893663  0.94011688  1
  Se  Se171  1  0.25866942  0.40450912  0.44342743  1
  Se  Se172  1  0.25684190  0.41087766  0.95160618  1
  Se  Se173  1  0.24245988  0.75220423  0.45022255  1
  Se  Se174  1  0.25270913  0.75277673  0.94207009  1
  Se  Se175  1  0.59503938  0.07725102  0.44485900  1
  Se  Se176  1  0.58900285  0.07733698  0.92956731  1
  Se  Se177  1  0.58922245  0.41626056  0.43425574  1
  Se  Se178  1  0.58529679  0.42096647  0.94552248  1
  Se  Se179  1  0.57815396  0.74694698  0.45505712  1
  Se  Se180  1  0.58466025  0.75330854  0.94543773  1
  Se  Se181  1  0.92964710  0.07334238  0.44527368  1
  Se  Se182  1  0.91397564  0.08729603  0.94368631  1
  Se  Se183  1  0.91473086  0.42003100  0.44451322  1
  Se  Se184  1  0.92650539  0.42056603  0.93160271  1
  Se  Se185  1  0.91243922  0.74982750  0.45565810  1
  Se  Se186  1  0.93065912  0.73644217  0.94152362  1
  Se  Se187  1  0.24853910  0.24400659  0.31341571  1
  Se  Se188  1  0.23778353  0.24862658  0.81464801  1
  Se  Se189  1  0.23300543  0.57186911  0.30306811  1
  Se  Se190  1  0.25312765  0.57837156  0.80377686  1
  Se  Se191  1  0.25445658  0.91357490  0.30621291  1
  Se  Se192  1  0.25525612  0.91803141  0.80230713  1
  Se  Se193  1  0.58706580  0.24806448  0.29877344  1
  Se  Se194  1  0.57950740  0.25245942  0.80133883  1
  Se  Se195  1  0.57968516  0.58892122  0.30224671  1
  Se  Se196  1  0.58674526  0.58841049  0.80409081  1
  Se  Se197  1  0.57512792  0.90636619  0.31066344  1
  Se  Se198  1  0.58440556  0.91849740  0.79725048  1
  Se  Se199  1  0.92575811  0.26087217  0.29910660  1
  Se  Se200  1  0.91006870  0.24603546  0.80155061  1
  Se  Se201  1  0.90928870  0.58712719  0.31427317  1
  Se  Se202  1  0.91508296  0.58448249  0.79731251  1
  Se  Se203  1  0.90873907  0.90975218  0.31308146  1
  Se  Se204  1  0.91798798  0.91134237  0.80541615  1
  Se  Se205  1  0.09052943  0.09413559  0.31671532  1
  Se  Se206  1  0.08050178  0.07996164  0.80253117  1
  Se  Se207  1  0.08532363  0.41962192  0.29557067  1
  Se  Se208  1  0.06484083  0.39627187  0.79742441  1
  Se  Se209  1  0.08280490  0.75598111  0.30679463  1
  Se  Se210  1  0.08830813  0.74709557  0.80469441  1
  Se  Se211  1  0.42161415  0.07574819  0.30317483  1
  Se  Se212  1  0.41199256  0.08171969  0.79760560  1
  Se  Se213  1  0.42192960  0.42039327  0.31125917  1
  Se  Se214  1  0.42009410  0.43048404  0.81470778  1
  Se  Se215  1  0.41814111  0.75291012  0.31443114  1
  Se  Se216  1  0.41852127  0.75040755  0.80298700  1
  Se  Se217  1  0.76566286  0.09477301  0.30671937  1
  Se  Se218  1  0.74490734  0.08095363  0.79964219  1
  Se  Se219  1  0.73934615  0.40855412  0.30142096  1
  Se  Se220  1  0.74570605  0.41106528  0.80352626  1
  Se  Se221  1  0.74071296  0.74763611  0.31211578  1
  Se  Se222  1  0.74878539  0.74554204  0.80091117  1
  Se  Se223  1  0.25343017  0.07601960  0.20466426  1
  Se  Se224  1  0.25169942  0.08491205  0.70058661  1
  Se  Se225  1  0.24929565  0.42352476  0.18766632  1
  Se  Se226  1  0.24005353  0.42309763  0.69644218  1
  Se  Se227  1  0.24086703  0.75057466  0.18837889  1
  Se  Se228  1  0.25606651  0.75088932  0.69611249  1
  Se  Se229  1  0.58059298  0.08498178  0.18333920  1
  Se  Se230  1  0.58257783  0.08134020  0.69413442  1
  Se  Se231  1  0.58363559  0.41357474  0.19714758  1
  Se  Se232  1  0.58129304  0.41700481  0.69963691  1
  Se  Se233  1  0.58146236  0.74610499  0.19515681  1
  Se  Se234  1  0.58649309  0.74708987  0.70060862  1
  Se  Se235  1  0.91266582  0.08875965  0.18731493  1
  Se  Se236  1  0.91633993  0.07668729  0.70176884  1
  Se  Se237  1  0.90878903  0.43660514  0.19363034  1
  Se  Se238  1  0.91119210  0.41010348  0.69641315  1
  Se  Se239  1  0.90374795  0.76097316  0.18978814  1
  Se  Se240  1  0.91819074  0.74501681  0.69586909  1
  Se  Se241  1  0.08718169  0.25029275  0.19677026  1
  Se  Se242  1  0.07964277  0.24939028  0.69861398  1
  Se  Se243  1  0.09523797  0.57992193  0.18533388  1
  Se  Se244  1  0.09252923  0.57269440  0.70354839  1
  Se  Se245  1  0.08632318  0.91305438  0.19188667  1
  Se  Se246  1  0.08098303  0.91224909  0.69984425  1
  Se  Se247  1  0.42806747  0.23897685  0.18553287  1
  Se  Se248  1  0.42032729  0.24868421  0.68941759  1
  Se  Se249  1  0.41804915  0.57394683  0.18924962  1
  Se  Se250  1  0.41275033  0.58841730  0.70256544  1
  Se  Se251  1  0.41250458  0.91242367  0.19563862  1
  Se  Se252  1  0.41479499  0.91861888  0.69353311  1
  Se  Se253  1  0.75218256  0.25503534  0.19160596  1
  Se  Se254  1  0.74516390  0.24944666  0.69185941  1
  Se  Se255  1  0.75133450  0.58628908  0.20434255  1
  Se  Se256  1  0.74766652  0.58143945  0.69872619  1
  Se  Se257  1  0.75024188  0.91103647  0.19480390  1
  Se  Se258  1  0.74924346  0.91395187  0.70048721  1
