# generated using pymatgen
data_In86Cu29Se144
_symmetry_space_group_name_H-M   'P 1'
_cell_length_a   17.59217564
_cell_length_b   17.58571058
_cell_length_c   23.44885221
_cell_angle_alpha   90.02529491
_cell_angle_beta   90.00293984
_cell_angle_gamma   89.97344346
_symmetry_Int_Tables_number   1
_chemical_formula_structural   In86Cu29Se144
_chemical_formula_sum   'In86 Cu29 Se144'
_cell_volume   7254.39123176
_cell_formula_units_Z   1
loop_
 _symmetry_equiv_pos_site_id
 _symmetry_equiv_pos_as_xyz
  1  'x, y, z'
loop_
 _atom_site_type_symbol
 _atom_site_label
 _atom_site_symmetry_multiplicity
 _atom_site_fract_x
 _atom_site_fract_y
 _atom_site_fract_z
 _atom_site_occupancy
  In  In0  1  -0.00065619  0.16953642  0.12534169  1
  In  In1  1  0.00100177  0.18105000  0.62682091  1
  In  In2  1  0.01429928  0.52346119  0.11844515  1
  In  In3  1  0.00602080  0.48728796  0.63108336  1
  In  In4  1  -0.01924568  0.81256669  0.11480482  1
  In  In5  1  0.00128830  0.82715339  0.61625586  1
  In  In6  1  0.34278695  0.15481506  0.12556180  1
  In  In7  1  0.32677036  0.16911936  0.63537716  1
  In  In8  1  0.33322799  0.50660732  0.11556894  1
  In  In9  1  0.33825861  0.50213884  0.61917511  1
  In  In10  1  0.33660731  0.84506169  0.12560776  1
  In  In11  1  0.34336214  0.82607633  0.61666410  1
  In  In12  1  0.65373402  0.17318840  0.12497061  1
  In  In13  1  0.66301476  0.14991750  0.62570441  1
  In  In14  1  0.66731337  0.51088485  0.10912614  1
  In  In15  1  0.66654561  0.52415888  0.63383429  1
  In  In16  1  0.69425242  0.80754873  0.15065504  1
  In  In17  1  0.66435789  0.83248153  0.62394977  1
  In  In18  1  0.16945167  -0.01584850  0.37629226  1
  In  In19  1  0.17119324  -0.01724928  0.87281224  1
  In  In20  1  0.17171460  0.35830635  0.38152900  1
  In  In21  1  0.17656274  0.34633861  0.86420343  1
  In  In22  1  0.16716446  0.67206898  0.38339927  1
  In  In23  1  0.17309068  0.65869643  0.87733265  1
  In  In24  1  0.48860146  -0.01002871  0.36795832  1
  In  In25  1  0.50333108  0.00093447  0.87186118  1
  In  In26  1  0.49908288  0.34477339  0.38526639  1
  In  In27  1  0.48507654  0.34324179  0.87852172  1
  In  In28  1  0.51421315  0.65925283  0.38326870  1
  In  In29  1  0.49554214  0.66544784  0.86896761  1
  In  In30  1  0.82808674  -0.00040246  0.37905240  1
  In  In31  1  0.81850486  -0.00380413  0.87515109  1
  In  In32  1  0.81845623  0.33126942  0.38034716  1
  In  In33  1  0.84799863  0.34155231  0.86665200  1
  In  In34  1  0.84055191  0.67941697  0.35692053  1
  In  In35  1  0.82088737  0.67036692  0.88198579  1
  In  In36  1  -0.00030945  0.14856567  0.38058303  1
  In  In37  1  -0.00998124  0.17661756  0.87374623  1
  In  In38  1  0.00074274  0.51554847  0.36824658  1
  In  In39  1  0.00579003  0.49737623  0.87787247  1
  In  In40  1  0.00232539  0.82714272  0.38084340  1
  In  In41  1  0.00470983  0.82301190  0.88130137  1
  In  In42  1  0.34432686  0.16734492  0.37676427  1
  In  In43  1  0.33946964  0.17226445  0.86886377  1
  In  In44  1  0.33815430  0.51508937  0.39463061  1
  In  In45  1  0.33160296  0.50264026  0.87005169  1
  In  In46  1  0.32638497  0.83306283  0.38388354  1
  In  In47  1  0.33180044  0.82338894  0.86515633  1
  In  In48  1  0.67643439  0.16761374  0.38026116  1
  In  In49  1  0.66525768  0.14817527  0.87520530  1
  In  In50  1  0.65604347  0.51731119  0.37659130  1
  In  In51  1  0.65856603  0.51129951  0.88171078  1
  In  In52  1  0.66830459  0.83177239  0.37119930  1
  In  In53  1  0.66443143  0.83356794  0.87272007  1
  In  In54  1  0.18217220  -0.00631805  0.12891689  1
  In  In55  1  0.18226688  -0.00443780  0.62601665  1
  In  In56  1  0.16354394  0.34791761  0.12229039  1
  In  In57  1  0.16832808  0.34414069  0.62837056  1
  In  In58  1  0.15685741  0.65946998  0.11837816  1
  In  In59  1  0.18935189  0.67790133  0.60108205  1
  In  In60  1  0.50202905  -0.00008758  0.12896733  1
  In  In61  1  0.51020511  -0.00788784  0.63078707  1
  In  In62  1  0.50703306  0.33908472  0.11232429  1
  In  In63  1  0.47525673  0.34079141  0.62555391  1
  In  In64  1  0.50871456  0.65983032  0.12334961  1
  In  In65  1  0.50030956  0.66870280  0.61975162  1
  In  In66  1  0.82902810  -0.02532150  0.12959464  1
  In  In67  1  0.82332530  -0.01413138  0.61858795  1
  In  In68  1  0.81606627  0.33874897  0.12225104  1
  In  In69  1  0.85020958  0.34031048  0.62793269  1
  In  In70  1  0.83307058  0.66904591  0.12478182  1
  In  In71  1  0.82182159  0.66597870  0.62734692  1
  In  In72  1  0.33730934  0.34062179  0.25445394  1
  In  In73  1  0.66241826  0.33101861  0.75453025  1
  In  In74  1  -0.00524278  0.33677176  0.25456604  1
  In  In75  1  0.33705368  0.66779761  0.25480220  1
  In  In76  1  0.50571214  0.82997944  0.00533002  1
  In  In77  1  0.50216746  0.16704850  0.50279967  1
  In  In78  1  0.66030758  0.33904666  0.25258089  1
  In  In79  1  0.83424872  0.50069664  0.50467360  1
  In  In80  1  0.00109832  0.65813027  0.75004832  1
  In  In81  1  0.16975080  0.16781152  0.00329776  1
  In  In82  1  0.00062384  0.00492184  0.75309513  1
  In  In83  1  0.00160953  -0.01287342  0.25290480  1
  In  In84  1  0.82717451  0.16557220  -0.00331892  1
  In  In85  1  0.16020289  0.16705513  0.50921499  1
  Cu  Cu86  1  0.00048815  0.66562309  0.49597500  1
  Cu  Cu87  1  0.17449847  0.50748414  0.74546665  1
  Cu  Cu88  1  0.00240928  0.34110020  -0.00222668  1
  Cu  Cu89  1  0.83349996  0.50524283  0.24193186  1
  Cu  Cu90  1  0.49986450  0.83813181  0.25094794  1
  Cu  Cu91  1  0.16694153  0.17181815  0.74810577  1
  Cu  Cu92  1  0.83275483  0.15598854  0.25512444  1
  Cu  Cu93  1  -0.00577672  0.66720261  -0.00209256  1
  Cu  Cu94  1  0.17843058  0.83002153  0.74269049  1
  Cu  Cu95  1  0.66275122  0.33482471  -0.00682687  1
  Cu  Cu96  1  0.66404382  -0.01011622  0.50047038  1
  Cu  Cu97  1  0.82487249  0.83512909  0.75103491  1
  Cu  Cu98  1  0.83310665  0.16861965  0.75090031  1
  Cu  Cu99  1  0.00277321  -0.01033705  -0.00002206  1
  Cu  Cu100  1  0.49585946  0.16176943  0.74992663  1
  Cu  Cu101  1  0.16978156  0.82847355  0.25442725  1
  Cu  Cu102  1  0.33736608  -0.00285469  0.00184827  1
  Cu  Cu103  1  0.50014921  0.16306562  0.25090427  1
  Cu  Cu104  1  0.33095742  0.33709861  -0.00759971  1
  Cu  Cu105  1  0.17758311  0.16758871  0.24849315  1
  Cu  Cu106  1  0.32889134  0.66716582  -0.00877789  1
  Cu  Cu107  1  0.66483395  -0.00709958  0.00202092  1
  Cu  Cu108  1  -0.00873131  -0.00437243  0.49971735  1
  Cu  Cu109  1  0.33561283  -0.00088757  0.50193552  1
  Cu  Cu110  1  0.66589449  0.33583079  0.50418015  1
  Cu  Cu111  1  0.49713136  0.50277223  0.74949943  1
  Cu  Cu112  1  0.67206066  0.67649632  0.50041132  1
  Cu  Cu113  1  0.50026686  0.83115733  0.74599795  1
  Cu  Cu114  1  -0.00480966  0.32835624  0.50148697  1
  Se  Se115  1  0.07753039  0.07338158  0.06084644  1
  Se  Se116  1  0.07158671  0.07049292  0.56547714  1
  Se  Se117  1  0.08420361  0.42529926  0.05123717  1
  Se  Se118  1  0.07928238  0.41093418  0.55377518  1
  Se  Se119  1  0.08268960  0.75005821  0.04975459  1
  Se  Se120  1  0.08541561  0.75275320  0.54482826  1
  Se  Se121  1  0.42348301  0.07906256  0.05306580  1
  Se  Se122  1  0.41049022  0.08085032  0.56429139  1
  Se  Se123  1  0.41383882  0.41804420  0.04991528  1
  Se  Se124  1  0.43061457  0.43176835  0.54852380  1
  Se  Se125  1  0.40554953  0.74111570  0.05958240  1
  Se  Se126  1  0.40517692  0.72844539  0.54557698  1
  Se  Se127  1  0.74513780  0.07714640  0.06294466  1
  Se  Se128  1  0.74563703  0.07776076  0.55199225  1
  Se  Se129  1  0.74801520  0.41669173  0.04579781  1
  Se  Se130  1  0.74286824  0.41549062  0.56760395  1
  Se  Se131  1  0.74988201  0.75549646  0.05856599  1
  Se  Se132  1  0.75607380  0.75582506  0.55549101  1
  Se  Se133  1  0.26088932  0.25867301  0.06292281  1
  Se  Se134  1  0.25718882  0.25698949  0.55941217  1
  Se  Se135  1  0.24618244  0.58529267  0.04829222  1
  Se  Se136  1  0.22929723  0.55327660  0.55250338  1
  Se  Se137  1  0.25042026  0.91404202  0.05083031  1
  Se  Se138  1  0.25241199  0.91312538  0.55270562  1
  Se  Se139  1  0.58302516  0.24692904  0.04572171  1
  Se  Se140  1  0.58646914  0.25814333  0.56707211  1
  Se  Se141  1  0.56822902  0.57763304  0.04503265  1
  Se  Se142  1  0.59194976  0.58841959  0.55262566  1
  Se  Se143  1  0.59532020  0.91262924  0.06886756  1
  Se  Se144  1  0.57718933  0.91103436  0.55338702  1
  Se  Se145  1  0.92120452  0.25834763  0.05579563  1
  Se  Se146  1  0.91105330  0.24745396  0.55375956  1
  Se  Se147  1  0.91280045  0.58366275  0.05306568  1
  Se  Se148  1  0.92683814  0.58936349  0.56404671  1
  Se  Se149  1  0.91180065  0.91352029  0.05096003  1
  Se  Se150  1  0.91186359  0.90800589  0.55195006  1
  Se  Se151  1  0.07864835  0.25513534  0.43750275  1
  Se  Se152  1  0.08255222  0.25803061  0.94001493  1
  Se  Se153  1  0.08257379  0.57911857  0.44559743  1
  Se  Se154  1  0.08259288  0.58614228  0.94573633  1
  Se  Se155  1  0.08074562  0.91750898  0.44783176  1
  Se  Se156  1  0.08780901  0.91107632  0.94586951  1
  Se  Se157  1  0.40709720  0.26109185  0.45035983  1
  Se  Se158  1  0.41425375  0.24733381  0.94609294  1
  Se  Se159  1  0.41370446  0.60961869  0.45663207  1
  Se  Se160  1  0.41441995  0.58481835  0.94003891  1
  Se  Se161  1  0.41758423  0.91705938  0.44731917  1
  Se  Se162  1  0.41446798  0.91415735  0.94048417  1
  Se  Se163  1  0.74923667  0.24884827  0.45549644  1
  Se  Se164  1  0.74510143  0.25682197  0.93146563  1
  Se  Se165  1  0.75401490  0.59378082  0.44087894  1
  Se  Se166  1  0.75394306  0.57603664  0.95034890  1
  Se  Se167  1  0.74961419  0.91082571  0.44527541  1
  Se  Se168  1  0.74702531  0.91137379  0.94689166  1
  Se  Se169  1  0.25289429  0.08111754  0.44393357  1
  Se  Se170  1  0.25529636  0.07651609  0.94076111  1
  Se  Se171  1  0.25880231  0.41918741  0.45461252  1
  Se  Se172  1  0.24738010  0.42221217  0.94248916  1
  Se  Se173  1  0.25465417  0.74450329  0.45292723  1
  Se  Se174  1  0.24825255  0.75572133  0.94128888  1
  Se  Se175  1  0.58515593  0.07408254  0.44025759  1
  Se  Se176  1  0.58207054  0.07636583  0.94896190  1
  Se  Se177  1  0.59200485  0.42238363  0.44777839  1
  Se  Se178  1  0.57655540  0.41883672  0.94384054  1
  Se  Se179  1  0.58626698  0.75689985  0.44672857  1
  Se  Se180  1  0.58805080  0.73983859  0.94164228  1
  Se  Se181  1  0.90901569  0.08311361  0.45070576  1
  Se  Se182  1  0.92418288  0.07315631  0.94085665  1
  Se  Se183  1  0.92162765  0.41245955  0.43769576  1
  Se  Se184  1  0.91469123  0.41968580  0.94550220  1
  Se  Se185  1  0.91107109  0.74282309  0.44268784  1
  Se  Se186  1  0.91068303  0.75271540  0.94698287  1
  Se  Se187  1  0.24344276  0.25071526  0.31521253  1
  Se  Se188  1  0.25353340  0.25292947  0.80138239  1
  Se  Se189  1  0.24956314  0.57863905  0.31580176  1
  Se  Se190  1  0.25487685  0.59174592  0.80021238  1
  Se  Se191  1  0.25523426  0.91267264  0.30457008  1
  Se  Se192  1  0.25617501  0.91670461  0.79767974  1
  Se  Se193  1  0.57282946  0.24570141  0.31524500  1
  Se  Se194  1  0.57311974  0.24052101  0.81469377  1
  Se  Se195  1  0.57696998  0.58466643  0.30056965  1
  Se  Se196  1  0.58315009  0.58318460  0.80231508  1
  Se  Se197  1  0.58569597  0.92017900  0.30367685  1
  Se  Se198  1  0.58147328  0.91432631  0.80306493  1
  Se  Se199  1  0.90900854  0.23942379  0.31407937  1
  Se  Se200  1  0.92148876  0.25375581  0.79543855  1
  Se  Se201  1  0.92012268  0.58661101  0.29361513  1
  Se  Se202  1  0.91020392  0.58088468  0.81494523  1
  Se  Se203  1  0.90708592  0.90425703  0.31090651  1
  Se  Se204  1  0.91347689  0.90864610  0.81049840  1
  Se  Se205  1  0.09545884  0.08591561  0.30654436  1
  Se  Se206  1  0.09254214  0.09362277  0.81448015  1
  Se  Se207  1  0.09278603  0.42918162  0.30176172  1
  Se  Se208  1  0.08708910  0.42746579  0.79977300  1
  Se  Se209  1  0.08596141  0.74918799  0.30954490  1
  Se  Se210  1  0.09359017  0.75564249  0.80402844  1
  Se  Se211  1  0.41171472  0.08372884  0.30231625  1
  Se  Se212  1  0.41328449  0.07709308  0.80382786  1
  Se  Se213  1  0.42170756  0.43259746  0.31585916  1
  Se  Se214  1  0.41284007  0.41731873  0.80003053  1
  Se  Se215  1  0.42518744  0.75743936  0.31552350  1
  Se  Se216  1  0.41641308  0.74551361  0.79620734  1
  Se  Se217  1  0.74494075  0.07966907  0.30785984  1
  Se  Se218  1  0.75095874  0.08094218  0.80010303  1
  Se  Se219  1  0.75688883  0.42959165  0.30852593  1
  Se  Se220  1  0.74887678  0.42480719  0.81058775  1
  Se  Se221  1  0.72615607  0.73126458  0.30170106  1
  Se  Se222  1  0.74692184  0.74837611  0.80478210  1
  Se  Se223  1  0.25807992  0.08128109  0.19776605  1
  Se  Se224  1  0.24808211  0.08032571  0.70163612  1
  Se  Se225  1  0.24737699  0.42891795  0.19272858  1
  Se  Se226  1  0.25831649  0.42082760  0.69460632  1
  Se  Se227  1  0.24841181  0.75279075  0.18896404  1
  Se  Se228  1  0.25500490  0.74602621  0.68592433  1
  Se  Se229  1  0.58628723  0.08501604  0.19701865  1
  Se  Se230  1  0.58437107  0.07923214  0.70216601  1
  Se  Se231  1  0.57902373  0.42541843  0.18650130  1
  Se  Se232  1  0.57769909  0.42081316  0.68959922  1
  Se  Se233  1  0.57425241  0.74871834  0.19682424  1
  Se  Se234  1  0.58332989  0.74722473  0.69187941  1
  Se  Se235  1  0.91369395  0.08356723  0.19150358  1
  Se  Se236  1  0.91012311  0.08634800  0.68771101  1
  Se  Se237  1  0.91107856  0.41928394  0.18496464  1
  Se  Se238  1  0.91400704  0.42530583  0.70232468  1
  Se  Se239  1  0.91384945  0.74891045  0.19762852  1
  Se  Se240  1  0.91358637  0.75876822  0.69413205  1
  Se  Se241  1  0.09318368  0.24660454  0.19347459  1
  Se  Se242  1  0.08564402  0.25687502  0.69613006  1
  Se  Se243  1  0.08568683  0.58979486  0.19905946  1
  Se  Se244  1  0.09717658  0.58784237  0.68283180  1
  Se  Se245  1  0.08980618  0.90346800  0.18808180  1
  Se  Se246  1  0.08608588  0.91003826  0.69133888  1
  Se  Se247  1  0.42644002  0.25071023  0.19101735  1
  Se  Se248  1  0.41493381  0.25052565  0.70060332  1
  Se  Se249  1  0.42070745  0.57519725  0.19215241  1
  Se  Se250  1  0.41866587  0.58514019  0.69018125  1
  Se  Se251  1  0.41532224  0.92157190  0.19905019  1
  Se  Se252  1  0.41561533  0.91132876  0.69010643  1
  Se  Se253  1  0.75520541  0.24248004  0.19720153  1
  Se  Se254  1  0.75165608  0.24567209  0.68827215  1
  Se  Se255  1  0.74464500  0.58008785  0.18784828  1
  Se  Se256  1  0.75923676  0.58459967  0.70450156  1
  Se  Se257  1  0.74266569  0.92361720  0.20767652  1
  Se  Se258  1  0.74363037  0.91804701  0.69620545  1
