# generated using pymatgen
data_In86Cu29Se144
_symmetry_space_group_name_H-M   'P 1'
_cell_length_a   17.58885935
_cell_length_b   17.58914344
_cell_length_c   23.44156351
_cell_angle_alpha   89.98466585
_cell_angle_beta   89.99382185
_cell_angle_gamma   90.00489850
_symmetry_Int_Tables_number   1
_chemical_formula_structural   In86Cu29Se144
_chemical_formula_sum   'In86 Cu29 Se144'
_cell_volume   7252.18579458
_cell_formula_units_Z   1
loop_
 _symmetry_equiv_pos_site_id
 _symmetry_equiv_pos_as_xyz
  1  'x, y, z'
loop_
 _atom_site_type_symbol
 _atom_site_label
 _atom_site_symmetry_multiplicity
 _atom_site_fract_x
 _atom_site_fract_y
 _atom_site_fract_z
 _atom_site_occupancy
  In  In0  1  0.01681651  0.17999695  0.13475815  1
  In  In1  1  -0.00129798  0.16773046  0.63299346  1
  In  In2  1  -0.01036612  0.50978537  0.13725757  1
  In  In3  1  -0.01012343  0.49470512  0.61682487  1
  In  In4  1  -0.00126825  0.82083377  0.12281893  1
  In  In5  1  0.00637512  0.84460943  0.61226825  1
  In  In6  1  0.31639603  0.16108299  0.13275346  1
  In  In7  1  0.33773686  0.15346477  0.62384315  1
  In  In8  1  0.34436348  0.50210562  0.12931202  1
  In  In9  1  0.34397540  0.51014579  0.61546112  1
  In  In10  1  0.32814975  0.83801582  0.13020061  1
  In  In11  1  0.33292707  0.83218786  0.62632590  1
  In  In12  1  0.65483996  0.17313506  0.14291111  1
  In  In13  1  0.66810871  0.18099804  0.62182415  1
  In  In14  1  0.68073787  0.48796352  0.14598306  1
  In  In15  1  0.66845770  0.49797902  0.61939480  1
  In  In16  1  0.66735690  0.83331268  0.14084340  1
  In  In17  1  0.66117316  0.82514190  0.61577656  1
  In  In18  1  0.16273415  -0.01782110  0.37914646  1
  In  In19  1  0.15504145  -0.01348227  0.86004960  1
  In  In20  1  0.16778306  0.34807465  0.37675420  1
  In  In21  1  0.15885024  0.34440813  0.87059811  1
  In  In22  1  0.16436554  0.66833021  0.37594428  1
  In  In23  1  0.17849704  0.66513501  0.87083800  1
  In  In24  1  0.49759709  -0.00056938  0.37552163  1
  In  In25  1  0.49106022  0.00795027  0.86794102  1
  In  In26  1  0.51195417  0.32516830  0.37737443  1
  In  In27  1  0.50367308  0.32093974  0.87232555  1
  In  In28  1  0.49656337  0.66849844  0.38034367  1
  In  In29  1  0.50444128  0.66900591  0.86475314  1
  In  In30  1  0.82646278  0.00351240  0.38204178  1
  In  In31  1  0.84201131  -0.01712447  0.86851838  1
  In  In32  1  0.83613443  0.34983265  0.36122751  1
  In  In33  1  0.84260729  0.34493277  0.87212843  1
  In  In34  1  0.83771824  0.66000302  0.37309401  1
  In  In35  1  0.82167241  0.66970820  0.86927382  1
  In  In36  1  -0.01067922  0.16690733  0.37522478  1
  In  In37  1  0.00467764  0.16805902  0.86804333  1
  In  In38  1  -0.00439169  0.50548465  0.37150023  1
  In  In39  1  -0.00274960  0.48884531  0.87246382  1
  In  In40  1  0.01700364  0.82446330  0.39261267  1
  In  In41  1  0.00149014  0.84172701  0.86582802  1
  In  In42  1  0.35497935  0.16435148  0.36936997  1
  In  In43  1  0.34190438  0.15394621  0.87252607  1
  In  In44  1  0.31851306  0.51206006  0.38398223  1
  In  In45  1  0.32590385  0.50400354  0.87059176  1
  In  In46  1  0.33238379  0.83353065  0.37789227  1
  In  In47  1  0.32066784  0.82142460  0.86044814  1
  In  In48  1  0.65213337  0.16143538  0.36019063  1
  In  In49  1  0.65190687  0.17015522  0.87274434  1
  In  In50  1  0.66883902  0.49878351  0.37172558  1
  In  In51  1  0.67778049  0.51143267  0.86888596  1
  In  In52  1  0.66649520  0.82981234  0.38209432  1
  In  In53  1  0.67816231  0.81822825  0.86892620  1
  In  In54  1  0.18015460  -0.00107067  0.12793316  1
  In  In55  1  0.17019880  -0.01182012  0.63237852  1
  In  In56  1  0.15550661  0.32417191  0.13229395  1
  In  In57  1  0.15298877  0.33357150  0.62322216  1
  In  In58  1  0.15775471  0.67461413  0.12829156  1
  In  In59  1  0.17926965  0.68193746  0.61848488  1
  In  In60  1  0.49059984  0.00853233  0.14821071  1
  In  In61  1  0.49034561  -0.01340508  0.61150456  1
  In  In62  1  0.49687946  0.34335674  0.12815801  1
  In  In63  1  0.51174851  0.34522601  0.61124682  1
  In  In64  1  0.50407824  0.66340447  0.13955875  1
  In  In65  1  0.50130413  0.66650619  0.62072832  1
  In  In66  1  0.83193498  -0.01159076  0.13224975  1
  In  In67  1  0.84542182  -0.00740479  0.62393364  1
  In  In68  1  0.82872715  0.34637452  0.13349650  1
  In  In69  1  0.82560910  0.33708541  0.62867768  1
  In  In70  1  0.83983998  0.65713354  0.14268783  1
  In  In71  1  0.82590036  0.65627281  0.61372112  1
  In  In72  1  0.83419177  0.82400900  -0.00449786  1
  In  In73  1  0.16960177  0.50073170  -0.00077926  1
  In  In74  1  -0.00120959  0.00073146  0.25676158  1
  In  In75  1  0.50654346  0.50267940  0.00534654  1
  In  In76  1  0.82990790  0.16835016  0.00282949  1
  In  In77  1  0.16744535  0.16608378  0.00655385  1
  In  In78  1  0.50118192  0.83498451  0.00260948  1
  In  In79  1  0.00083703  0.66936201  0.73684932  1
  In  In80  1  0.33208338  0.33322902  0.75199798  1
  In  In81  1  0.33418414  0.33297472  0.25125674  1
  In  In82  1  0.66436630  0.00208041  0.74789855  1
  In  In83  1  0.49302115  0.16896946  0.00580312  1
  In  In84  1  0.17221335  0.16300145  0.50435540  1
  In  In85  1  0.82803287  0.17037685  0.49201504  1
  Cu  Cu86  1  0.33791185  0.33532003  0.49458125  1
  Cu  Cu87  1  0.50642418  0.50106446  0.74004351  1
  Cu  Cu88  1  0.67711630  0.66089790  0.00369229  1
  Cu  Cu89  1  0.49335613  0.50501327  0.25972335  1
  Cu  Cu90  1  -0.00597295  0.34215921  0.00268306  1
  Cu  Cu91  1  0.66467754  0.66174167  0.49549531  1
  Cu  Cu92  1  0.83229362  0.17000056  0.74880437  1
  Cu  Cu93  1  0.50024943  0.83207864  0.74097662  1
  Cu  Cu94  1  0.67477883  0.34454717  0.00294320  1
  Cu  Cu95  1  0.83271430  0.49726137  0.74276857  1
  Cu  Cu96  1  -0.00084442  0.66143709  0.00645831  1
  Cu  Cu97  1  -0.00423920  0.33612193  0.49658858  1
  Cu  Cu98  1  0.50532291  0.17461541  0.74233258  1
  Cu  Cu99  1  0.66558494  0.00009684  0.49598785  1
  Cu  Cu100  1  0.67103537  0.33598919  0.49362506  1
  Cu  Cu101  1  0.32480112  -0.00980352  0.00170601  1
  Cu  Cu102  1  -0.00049074  0.66082213  0.49911443  1
  Cu  Cu103  1  0.83407227  0.83229266  0.26025212  1
  Cu  Cu104  1  0.32996980  0.67208062  0.50056531  1
  Cu  Cu105  1  0.66630453  -0.00332739  0.01065502  1
  Cu  Cu106  1  0.49925748  0.83096204  0.25986720  1
  Cu  Cu107  1  0.16226049  0.50824946  0.25552566  1
  Cu  Cu108  1  0.16340343  0.16467233  0.74432778  1
  Cu  Cu109  1  0.83151804  0.17378219  0.25242122  1
  Cu  Cu110  1  0.16840601  0.50325005  0.74615881  1
  Cu  Cu111  1  0.33391571  0.67121235  -0.00338647  1
  Cu  Cu112  1  0.33709437  -0.00213275  0.49933643  1
  Cu  Cu113  1  0.16601269  0.82860525  0.25461849  1
  Cu  Cu114  1  0.00509694  -0.00281939  -0.00822620  1
  Se  Se115  1  0.07300677  0.07444327  0.06217839  1
  Se  Se116  1  0.07983800  0.07970583  0.56496251  1
  Se  Se117  1  0.07940188  0.41591939  0.06213993  1
  Se  Se118  1  0.08208736  0.41662677  0.54955774  1
  Se  Se119  1  0.08470598  0.75043333  0.04944805  1
  Se  Se120  1  0.08179868  0.74688162  0.55039648  1
  Se  Se121  1  0.40489058  0.07161430  0.06227289  1
  Se  Se122  1  0.42048679  0.08729429  0.54758249  1
  Se  Se123  1  0.40639728  0.40890784  0.05231052  1
  Se  Se124  1  0.42027330  0.42156431  0.54675347  1
  Se  Se125  1  0.41611348  0.74060434  0.06246697  1
  Se  Se126  1  0.41505301  0.75165159  0.55537033  1
  Se  Se127  1  0.74296103  0.08064959  0.06784454  1
  Se  Se128  1  0.74475020  0.07952435  0.55856403  1
  Se  Se129  1  0.75191211  0.42649804  0.05981216  1
  Se  Se130  1  0.75403286  0.41398735  0.55124929  1
  Se  Se131  1  0.74787675  0.74693779  0.06590577  1
  Se  Se132  1  0.74817419  0.74697606  0.54719967  1
  Se  Se133  1  0.25770461  0.26231890  0.06011272  1
  Se  Se134  1  0.26126954  0.25913085  0.56224201  1
  Se  Se135  1  0.25907895  0.59030924  0.06016916  1
  Se  Se136  1  0.24726174  0.58419189  0.55217393  1
  Se  Se137  1  0.24304096  0.90717178  0.05431551  1
  Se  Se138  1  0.25364472  0.91978727  0.55633719  1
  Se  Se139  1  0.59168902  0.26129010  0.05917013  1
  Se  Se140  1  0.58685917  0.25004949  0.54580865  1
  Se  Se141  1  0.59549107  0.58848205  0.06668694  1
  Se  Se142  1  0.58269679  0.58057979  0.55266335  1
  Se  Se143  1  0.58255984  0.92234562  0.07037182  1
  Se  Se144  1  0.58298610  0.91268921  0.54681671  1
  Se  Se145  1  0.92344101  0.25323764  0.06249019  1
  Se  Se146  1  0.92016075  0.25370497  0.55758631  1
  Se  Se147  1  0.91269035  0.58640081  0.06129239  1
  Se  Se148  1  0.91144774  0.57558840  0.54539739  1
  Se  Se149  1  0.92191547  0.92184174  0.05409211  1
  Se  Se150  1  0.90778875  0.91208465  0.54612506  1
  Se  Se151  1  0.07998266  0.25236748  0.44284429  1
  Se  Se152  1  0.07550967  0.25983845  0.94467032  1
  Se  Se153  1  0.08316749  0.57984597  0.44267030  1
  Se  Se154  1  0.07734703  0.58824121  0.93847560  1
  Se  Se155  1  0.08699226  0.91913969  0.45898978  1
  Se  Se156  1  0.08587286  0.91220790  0.94077042  1
  Se  Se157  1  0.42076934  0.24872841  0.44567401  1
  Se  Se158  1  0.40428182  0.25687394  0.94247572  1
  Se  Se159  1  0.41306849  0.58538185  0.44993370  1
  Se  Se160  1  0.41499784  0.58981656  0.93952305  1
  Se  Se161  1  0.41922798  0.91416749  0.44623510  1
  Se  Se162  1  0.41249774  0.92110745  0.93946460  1
  Se  Se163  1  0.74265767  0.25630119  0.42755021  1
  Se  Se164  1  0.74175212  0.25627242  0.93988188  1
  Se  Se165  1  0.75040316  0.58015683  0.44304615  1
  Se  Se166  1  0.75834697  0.58243695  0.94593805  1
  Se  Se167  1  0.75220412  0.91447736  0.45004649  1
  Se  Se168  1  0.73932120  0.92115419  0.94254763  1
  Se  Se169  1  0.25915647  0.07961529  0.43752310  1
  Se  Se170  1  0.25059748  0.07667025  0.94136493  1
  Se  Se171  1  0.24610722  0.41899809  0.45299503  1
  Se  Se172  1  0.25864463  0.40660318  0.94128239  1
  Se  Se173  1  0.24532793  0.75250568  0.44590094  1
  Se  Se174  1  0.25059341  0.75205621  0.94331781  1
  Se  Se175  1  0.58577167  0.08534549  0.44152089  1
  Se  Se176  1  0.58568396  0.07345554  0.94726785  1
  Se  Se177  1  0.58416640  0.41902526  0.44384434  1
  Se  Se178  1  0.58952425  0.41258075  0.93845315  1
  Se  Se179  1  0.57911210  0.75041605  0.45045086  1
  Se  Se180  1  0.59343011  0.73948190  0.94516695  1
  Se  Se181  1  0.92823755  0.07370741  0.44992019  1
  Se  Se182  1  0.91992174  0.07795863  0.93900630  1
  Se  Se183  1  0.91471076  0.41663345  0.44070836  1
  Se  Se184  1  0.91182123  0.42483777  0.94987376  1
  Se  Se185  1  0.91527993  0.74425767  0.44627229  1
  Se  Se186  1  0.92876871  0.73873476  0.93567937  1
  Se  Se187  1  0.24740061  0.24653267  0.31636895  1
  Se  Se188  1  0.24114021  0.23999256  0.81141732  1
  Se  Se189  1  0.25052858  0.58990071  0.30451442  1
  Se  Se190  1  0.25486228  0.58526249  0.79646697  1
  Se  Se191  1  0.24874873  0.91432386  0.30545317  1
  Se  Se192  1  0.27539929  0.94206539  0.80896770  1
  Se  Se193  1  0.57614538  0.25285395  0.29481940  1
  Se  Se194  1  0.58843892  0.25596963  0.79638529  1
  Se  Se195  1  0.57933191  0.58706772  0.30985868  1
  Se  Se196  1  0.58627558  0.58286204  0.80002074  1
  Se  Se197  1  0.58521285  0.91280785  0.31131992  1
  Se  Se198  1  0.57624143  0.90718800  0.81074459  1
  Se  Se199  1  0.92019738  0.25314175  0.30317259  1
  Se  Se200  1  0.91547802  0.25109777  0.80581322  1
  Se  Se201  1  0.90762067  0.57470193  0.29894709  1
  Se  Se202  1  0.91411029  0.57879223  0.80375029  1
  Se  Se203  1  0.91579343  0.91083641  0.32015038  1
  Se  Se204  1  0.90823343  0.90187127  0.79422762  1
  Se  Se205  1  0.09122993  0.08762361  0.31557758  1
  Se  Se206  1  0.07777935  0.08146053  0.79784504  1
  Se  Se207  1  0.08223440  0.41866939  0.30449491  1
  Se  Se208  1  0.08189495  0.42013274  0.79676865  1
  Se  Se209  1  0.07732281  0.75129585  0.30768704  1
  Se  Se210  1  0.09126741  0.75052264  0.80373433  1
  Se  Se211  1  0.42641869  0.08066828  0.29820722  1
  Se  Se212  1  0.42042671  0.08989304  0.79256300  1
  Se  Se213  1  0.41315333  0.42333743  0.31864130  1
  Se  Se214  1  0.42859207  0.42491687  0.80778718  1
  Se  Se215  1  0.41221522  0.74754181  0.30881880  1
  Se  Se216  1  0.41854608  0.74846194  0.79797061  1
  Se  Se217  1  0.75663798  0.08374277  0.30581033  1
  Se  Se218  1  0.75553009  0.08980934  0.81353006  1
  Se  Se219  1  0.73741521  0.41414727  0.29598054  1
  Se  Se220  1  0.75168417  0.41730785  0.80305794  1
  Se  Se221  1  0.74956933  0.74957760  0.31130224  1
  Se  Se222  1  0.75446315  0.74872531  0.79284130  1
  Se  Se223  1  0.24493883  0.07912662  0.20479825  1
  Se  Se224  1  0.25072106  0.08340134  0.69471798  1
  Se  Se225  1  0.24110825  0.42716614  0.19175741  1
  Se  Se226  1  0.24902982  0.42119952  0.68567655  1
  Se  Se227  1  0.24821886  0.74878924  0.19617659  1
  Se  Se228  1  0.24802095  0.75563049  0.69728092  1
  Se  Se229  1  0.59952625  0.06723388  0.20445740  1
  Se  Se230  1  0.57780015  0.08666252  0.68220425  1
  Se  Se231  1  0.57204982  0.42019575  0.20216389  1
  Se  Se232  1  0.58775115  0.41309724  0.69117666  1
  Se  Se233  1  0.58492874  0.74863138  0.20655325  1
  Se  Se234  1  0.58528032  0.74794940  0.69190862  1
  Se  Se235  1  0.91193430  0.09254928  0.19063038  1
  Se  Se236  1  0.91140308  0.08332623  0.69662072  1
  Se  Se237  1  0.93683292  0.39843533  0.19581632  1
  Se  Se238  1  0.91933152  0.41366772  0.69399166  1
  Se  Se239  1  0.91797331  0.75678532  0.20084247  1
  Se  Se240  1  0.91120163  0.75200818  0.67517247  1
  Se  Se241  1  0.09828543  0.24243952  0.21183711  1
  Se  Se242  1  0.08016963  0.25528443  0.69937983  1
  Se  Se243  1  0.08061236  0.59152877  0.19931752  1
  Se  Se244  1  0.09053430  0.57643817  0.67976590  1
  Se  Se245  1  0.08556656  0.90954438  0.19161082  1
  Se  Se246  1  0.07340475  0.91531664  0.69486424  1
  Se  Se247  1  0.42228316  0.24107772  0.18921740  1
  Se  Se248  1  0.42220034  0.25479240  0.68392464  1
  Se  Se249  1  0.41036160  0.58676861  0.20390987  1
  Se  Se250  1  0.41862079  0.58457342  0.69295997  1
  Se  Se251  1  0.41285171  0.90946922  0.20369121  1
  Se  Se252  1  0.41794453  0.92057818  0.69378063  1
  Se  Se253  1  0.74844002  0.25736143  0.19958801  1
  Se  Se254  1  0.74634095  0.25216932  0.69875223  1
  Se  Se255  1  0.73545058  0.59781144  0.20491502  1
  Se  Se256  1  0.74928005  0.58059457  0.69089682  1
  Se  Se257  1  0.75199680  0.91766269  0.20711055  1
  Se  Se258  1  0.74808243  0.91181042  0.68647083  1
