# generated using pymatgen
data_In86Cu29Se144
_symmetry_space_group_name_H-M   'P 1'
_cell_length_a   17.57449873
_cell_length_b   17.57425898
_cell_length_c   23.42510254
_cell_angle_alpha   89.99779671
_cell_angle_beta   90.00062356
_cell_angle_gamma   89.99425408
_symmetry_Int_Tables_number   1
_chemical_formula_structural   In86Cu29Se144
_chemical_formula_sum   'In86 Cu29 Se144'
_cell_volume   7235.04883328
_cell_formula_units_Z   1
loop_
 _symmetry_equiv_pos_site_id
 _symmetry_equiv_pos_as_xyz
  1  'x, y, z'
loop_
 _atom_site_type_symbol
 _atom_site_label
 _atom_site_symmetry_multiplicity
 _atom_site_fract_x
 _atom_site_fract_y
 _atom_site_fract_z
 _atom_site_occupancy
  In  In0  1  0.00810200  0.17926756  0.11936392  1
  In  In1  1  0.00784344  0.16098021  0.62997113  1
  In  In2  1  -0.00870646  0.50432611  0.13055915  1
  In  In3  1  -0.00581204  0.48992471  0.62188641  1
  In  In4  1  0.00063515  0.82034007  0.12985815  1
  In  In5  1  0.00924848  0.84516258  0.62930709  1
  In  In6  1  0.32683696  0.17929376  0.12627518  1
  In  In7  1  0.33267111  0.18768079  0.63093835  1
  In  In8  1  0.34127170  0.50572778  0.13502322  1
  In  In9  1  0.32693906  0.50393273  0.62564681  1
  In  In10  1  0.33066772  0.82824103  0.12372721  1
  In  In11  1  0.33507759  0.81682915  0.62436322  1
  In  In12  1  0.67070944  0.14927169  0.11773335  1
  In  In13  1  0.65686321  0.15772301  0.63371997  1
  In  In14  1  0.67242524  0.51031504  0.12101139  1
  In  In15  1  0.68140690  0.50178810  0.62297639  1
  In  In16  1  0.65685138  0.84466179  0.14367037  1
  In  In17  1  0.65698736  0.84052777  0.63125951  1
  In  In18  1  0.17313378  0.00176505  0.37828116  1
  In  In19  1  0.15920684  0.01095385  0.88656676  1
  In  In20  1  0.16982177  0.33524272  0.37387262  1
  In  In21  1  0.15645709  0.32715623  0.86773196  1
  In  In22  1  0.15402954  0.65801711  0.36340561  1
  In  In23  1  0.18334948  0.66456986  0.87640135  1
  In  In24  1  0.49933396  -0.01743560  0.37203270  1
  In  In25  1  0.50055486  -0.01548084  0.87989646  1
  In  In26  1  0.48312374  0.34154682  0.36747304  1
  In  In27  1  0.50425847  0.34881023  0.87645746  1
  In  In28  1  0.49643253  0.66800818  0.35574244  1
  In  In29  1  0.49952137  0.66518930  0.87809877  1
  In  In30  1  0.82201695  0.00409746  0.37080406  1
  In  In31  1  0.83967544  0.00379672  0.87187205  1
  In  In32  1  0.85138322  0.33155765  0.37419170  1
  In  In33  1  0.83760042  0.32526698  0.88319839  1
  In  In34  1  0.82352425  0.65883724  0.36354471  1
  In  In35  1  0.81784851  0.67247494  0.87850242  1
  In  In36  1  0.00810514  0.18290769  0.36717636  1
  In  In37  1  0.00159767  0.16812656  0.87575208  1
  In  In38  1  0.00415044  0.49865007  0.37599849  1
  In  In39  1  0.00255388  0.48580862  0.87477274  1
  In  In40  1  0.00781679  0.81798081  0.36693177  1
  In  In41  1  -0.00282376  0.84823931  0.87867535  1
  In  In42  1  0.31576446  0.16805977  0.37441600  1
  In  In43  1  0.32029481  0.16607422  0.87786403  1
  In  In44  1  0.32814843  0.48365101  0.36142281  1
  In  In45  1  0.34086829  0.50980379  0.86770672  1
  In  In46  1  0.34632929  0.82913603  0.36625698  1
  In  In47  1  0.34616990  0.82568067  0.88658304  1
  In  In48  1  0.67264144  0.15436904  0.36791491  1
  In  In49  1  0.67853223  0.16528787  0.87875090  1
  In  In50  1  0.66471328  0.52019687  0.37188644  1
  In  In51  1  0.65676557  0.50757644  0.88577064  1
  In  In52  1  0.64094153  0.80157510  0.33993253  1
  In  In53  1  0.66106855  0.82329233  0.87145705  1
  In  In54  1  0.16811051  0.00406632  0.11797277  1
  In  In55  1  0.15355441  0.00023889  0.62692024  1
  In  In56  1  0.16752487  0.32306024  0.13275257  1
  In  In57  1  0.16690319  0.33465243  0.62413261  1
  In  In58  1  0.16665058  0.67707562  0.13759217  1
  In  In59  1  0.18204328  0.66660718  0.62372615  1
  In  In60  1  0.51821579  -0.00846085  0.12202351  1
  In  In61  1  0.51276916  -0.00041001  0.62972519  1
  In  In62  1  0.48200221  0.33766556  0.12710636  1
  In  In63  1  0.48808194  0.32805180  0.63299217  1
  In  In64  1  0.50241185  0.67265138  0.12859743  1
  In  In65  1  0.49145584  0.67431614  0.62668618  1
  In  In66  1  0.80803155  -0.00040842  0.11816512  1
  In  In67  1  0.83080086  0.00393994  0.63395909  1
  In  In68  1  0.84189492  0.34350473  0.11766597  1
  In  In69  1  0.83289149  0.35095404  0.62422384  1
  In  In70  1  0.84175991  0.66464639  0.13470927  1
  In  In71  1  0.82887690  0.65462191  0.62395540  1
  In  In72  1  0.83143027  0.83102346  0.00492466  1
  In  In73  1  -0.00129009  0.66894223  0.74746266  1
  In  In74  1  0.16683831  0.50073916  0.00213139  1
  In  In75  1  0.16918953  0.83027740  0.49706998  1
  In  In76  1  -0.00303415  -0.00175837  0.24363967  1
  In  In77  1  0.82791425  0.83361137  0.48983129  1
  In  In78  1  0.50337553  0.50560228  0.49410944  1
  In  In79  1  0.83710312  0.16912530  0.50417921  1
  In  In80  1  0.49877347  0.16689371  0.51354809  1
  In  In81  1  0.66237259  0.33471204  0.24531663  1
  In  In82  1  0.49786634  0.16734669  0.00009018  1
  In  In83  1  0.33430423  -0.00228543  0.24331809  1
  In  In84  1  0.66792451  0.33311776  0.75041530  1
  In  In85  1  0.33457438  -0.00086085  0.76006899  1
  Cu  Cu86  1  0.32634559  0.33365116  0.49827585  1
  Cu  Cu87  1  0.16877941  0.83727706  0.75295286  1
  Cu  Cu88  1  0.32507269  0.34178974  0.00486416  1
  Cu  Cu89  1  0.33512098  0.66309633  0.49670949  1
  Cu  Cu90  1  0.16142347  0.49323662  0.24670147  1
  Cu  Cu91  1  0.84041946  0.16832797  0.75614715  1
  Cu  Cu92  1  0.49832597  0.50704225  0.75254575  1
  Cu  Cu93  1  -0.00120273  0.33114056  -0.00242342  1
  Cu  Cu94  1  0.83088384  0.50151772  0.75150226  1
  Cu  Cu95  1  0.49874258  0.82533743  0.75521916  1
  Cu  Cu96  1  0.83250357  0.16400927  0.24434888  1
  Cu  Cu97  1  -0.00129870  0.00344349  0.00102792  1
  Cu  Cu98  1  0.65713489  -0.00943222  0.50007631  1
  Cu  Cu99  1  0.33548479  -0.00138889  0.49562123  1
  Cu  Cu100  1  0.49691490  0.16152257  0.24387744  1
  Cu  Cu101  1  0.01086798  0.33845339  0.49667090  1
  Cu  Cu102  1  0.16527733  0.16913137  0.75229327  1
  Cu  Cu103  1  0.00178600  0.65658690  0.49918424  1
  Cu  Cu104  1  0.17187507  0.49456645  0.74861550  1
  Cu  Cu105  1  0.82928559  0.83649234  0.75423521  1
  Cu  Cu106  1  0.83905463  0.49222721  0.25066276  1
  Cu  Cu107  1  0.66461713  0.33833487  0.00255587  1
  Cu  Cu108  1  0.33417914  -0.00340573  0.00216824  1
  Cu  Cu109  1  0.33946375  0.66867537  0.00199180  1
  Cu  Cu110  1  0.66293797  0.66879436  0.00438458  1
  Cu  Cu111  1  -0.00298127  0.00690037  0.50160880  1
  Cu  Cu112  1  0.00271674  0.66435771  0.01047335  1
  Cu  Cu113  1  0.67189560  0.33988808  0.49867381  1
  Cu  Cu114  1  0.66533102  0.67454050  0.48945122  1
  Se  Se115  1  0.08414948  0.08813046  0.05183762  1
  Se  Se116  1  0.08514280  0.08625649  0.55259652  1
  Se  Se117  1  0.07667514  0.41142447  0.06131952  1
  Se  Se118  1  0.08973397  0.42229153  0.55415072  1
  Se  Se119  1  0.08875117  0.74877274  0.05811576  1
  Se  Se120  1  0.07546944  0.74294777  0.55993456  1
  Se  Se121  1  0.41165218  0.07809841  0.06553189  1
  Se  Se122  1  0.40524581  0.07422454  0.56751400  1
  Se  Se123  1  0.41014699  0.42486772  0.05546819  1
  Se  Se124  1  0.41562811  0.41131736  0.55483395  1
  Se  Se125  1  0.42144072  0.75330866  0.05546819  1
  Se  Se126  1  0.41759858  0.74878706  0.54768807  1
  Se  Se127  1  0.75225822  0.08611442  0.04024840  1
  Se  Se128  1  0.73885565  0.07493272  0.55672306  1
  Se  Se129  1  0.75104444  0.42204870  0.05303895  1
  Se  Se130  1  0.75681726  0.42483404  0.54689069  1
  Se  Se131  1  0.74474986  0.74354610  0.06735864  1
  Se  Se132  1  0.74279701  0.74807269  0.55786186  1
  Se  Se133  1  0.24376850  0.25230092  0.05234222  1
  Se  Se134  1  0.24783962  0.24849674  0.55371761  1
  Se  Se135  1  0.25404549  0.59179370  0.06214919  1
  Se  Se136  1  0.25075323  0.58150243  0.54937785  1
  Se  Se137  1  0.24988478  0.91349017  0.05503653  1
  Se  Se138  1  0.25530084  0.92069995  0.56149615  1
  Se  Se139  1  0.58495026  0.25780739  0.06426612  1
  Se  Se140  1  0.59606924  0.26368303  0.56364069  1
  Se  Se141  1  0.57753320  0.58512836  0.05635389  1
  Se  Se142  1  0.59210734  0.59305534  0.55698945  1
  Se  Se143  1  0.60005489  0.91060237  0.05489174  1
  Se  Se144  1  0.57404547  0.90966841  0.55430162  1
  Se  Se145  1  0.91364226  0.24859981  0.05059710  1
  Se  Se146  1  0.92753314  0.26191935  0.56033445  1
  Se  Se147  1  0.91303174  0.58311346  0.05673400  1
  Se  Se148  1  0.91552732  0.58001799  0.55505361  1
  Se  Se149  1  0.92356727  0.92204700  0.06383414  1
  Se  Se150  1  0.91670961  0.92290721  0.55740818  1
  Se  Se151  1  0.08863124  0.24926998  0.44487167  1
  Se  Se152  1  0.08620700  0.24987392  0.94583436  1
  Se  Se153  1  0.08995558  0.58104164  0.44507393  1
  Se  Se154  1  0.07669025  0.59052183  0.93986211  1
  Se  Se155  1  0.07189872  0.92050636  0.44125842  1
  Se  Se156  1  0.08355179  0.91625896  0.95212818  1
  Se  Se157  1  0.41410983  0.25271108  0.44433529  1
  Se  Se158  1  0.40808073  0.26209782  0.94266762  1
  Se  Se159  1  0.41094195  0.58594965  0.43091463  1
  Se  Se160  1  0.41593424  0.58045168  0.94678284  1
  Se  Se161  1  0.41450928  0.91053473  0.44473798  1
  Se  Se162  1  0.42263795  0.91251697  0.95643034  1
  Se  Se163  1  0.74408264  0.25227820  0.43880442  1
  Se  Se164  1  0.74701147  0.25187414  0.95202193  1
  Se  Se165  1  0.75284759  0.58672379  0.44548233  1
  Se  Se166  1  0.74892426  0.58616921  0.95132206  1
  Se  Se167  1  0.73204124  0.91762878  0.43309277  1
  Se  Se168  1  0.74919561  0.91489726  0.93599829  1
  Se  Se169  1  0.24793019  0.08438654  0.45106967  1
  Se  Se170  1  0.25120041  0.08565768  0.95427150  1
  Se  Se171  1  0.25094447  0.42120923  0.44368000  1
  Se  Se172  1  0.25137740  0.41551438  0.93482421  1
  Se  Se173  1  0.25504143  0.74243759  0.43397224  1
  Se  Se174  1  0.25028919  0.74949244  0.95099823  1
  Se  Se175  1  0.58231017  0.08139850  0.44321587  1
  Se  Se176  1  0.58869977  0.07649284  0.94374823  1
  Se  Se177  1  0.58954775  0.40976874  0.43416205  1
  Se  Se178  1  0.57706494  0.42182446  0.95482804  1
  Se  Se179  1  0.57753201  0.74594704  0.43100710  1
  Se  Se180  1  0.58148300  0.75018152  0.94714812  1
  Se  Se181  1  0.92150590  0.08330236  0.43610464  1
  Se  Se182  1  0.91731162  0.08470962  0.94430345  1
  Se  Se183  1  0.91929162  0.41749737  0.44739193  1
  Se  Se184  1  0.91569481  0.41918724  0.94829545  1
  Se  Se185  1  0.92334823  0.73847847  0.43992399  1
  Se  Se186  1  0.92526688  0.74224338  0.94326046  1
  Se  Se187  1  0.25911893  0.26169887  0.30355908  1
  Se  Se188  1  0.25199005  0.25117032  0.80316894  1
  Se  Se189  1  0.24430562  0.57539747  0.30083033  1
  Se  Se190  1  0.25092069  0.58487968  0.79862675  1
  Se  Se191  1  0.24373607  0.91029984  0.30751738  1
  Se  Se192  1  0.24493243  0.91096874  0.82108518  1
  Se  Se193  1  0.57488261  0.24143731  0.30913217  1
  Se  Se194  1  0.58099317  0.24653062  0.81422777  1
  Se  Se195  1  0.58647716  0.58399465  0.29450969  1
  Se  Se196  1  0.58463570  0.58425245  0.80764506  1
  Se  Se197  1  0.58842298  0.92626998  0.29739633  1
  Se  Se198  1  0.58167793  0.91320612  0.80407638  1
  Se  Se199  1  0.91467597  0.24826075  0.29642995  1
  Se  Se200  1  0.92009612  0.25585220  0.80720032  1
  Se  Se201  1  0.92014906  0.57826469  0.30494681  1
  Se  Se202  1  0.91127783  0.58203137  0.81259429  1
  Se  Se203  1  0.91483632  0.91361671  0.31310011  1
  Se  Se204  1  0.91896102  0.91819402  0.80152767  1
  Se  Se205  1  0.08972313  0.08473492  0.30680261  1
  Se  Se206  1  0.08546996  0.08340627  0.80725054  1
  Se  Se207  1  0.08039306  0.41243695  0.30521883  1
  Se  Se208  1  0.08129016  0.41588779  0.79791111  1
  Se  Se209  1  0.08969706  0.75165658  0.29270474  1
  Se  Se210  1  0.08712771  0.75478977  0.81278301  1
  Se  Se211  1  0.41901505  0.08738834  0.31206733  1
  Se  Se212  1  0.42457496  0.08877678  0.81858669  1
  Se  Se213  1  0.42593010  0.42544185  0.29051990  1
  Se  Se214  1  0.41824970  0.41678098  0.80190424  1
  Se  Se215  1  0.39721799  0.73547814  0.28851070  1
  Se  Se216  1  0.41212982  0.74515574  0.80796892  1
  Se  Se217  1  0.74740439  0.07840212  0.29213470  1
  Se  Se218  1  0.75217318  0.08495295  0.80363269  1
  Se  Se219  1  0.75356198  0.41703700  0.31191067  1
  Se  Se220  1  0.75207301  0.42231346  0.81512124  1
  Se  Se221  1  0.76830930  0.76072595  0.29693523  1
  Se  Se222  1  0.74680202  0.74651208  0.79977217  1
  Se  Se223  1  0.23963510  0.09301067  0.19420168  1
  Se  Se224  1  0.24606896  0.08545141  0.69322960  1
  Se  Se225  1  0.25011779  0.41690849  0.19242436  1
  Se  Se226  1  0.25576383  0.41165823  0.69417300  1
  Se  Se227  1  0.26745722  0.74399225  0.20241198  1
  Se  Se228  1  0.24859055  0.75146995  0.69969367  1
  Se  Se229  1  0.58567033  0.08289908  0.19399248  1
  Se  Se230  1  0.58246310  0.07818444  0.70556312  1
  Se  Se231  1  0.57597821  0.42643343  0.18693855  1
  Se  Se232  1  0.57795375  0.42769144  0.68902601  1
  Se  Se233  1  0.59625331  0.73612474  0.20146789  1
  Se  Se234  1  0.58181396  0.74630742  0.69644099  1
  Se  Se235  1  0.91027308  0.08659914  0.18005977  1
  Se  Se236  1  0.91992868  0.08367626  0.69815791  1
  Se  Se237  1  0.92115244  0.40803753  0.19805666  1
  Se  Se238  1  0.91618129  0.41810175  0.70043725  1
  Se  Se239  1  0.92020357  0.74968396  0.20379011  1
  Se  Se240  1  0.90702328  0.76039544  0.68703635  1
  Se  Se241  1  0.07590660  0.25091806  0.20027773  1
  Se  Se242  1  0.08468408  0.25239418  0.69518377  1
  Se  Se243  1  0.08180404  0.58304857  0.19569294  1
  Se  Se244  1  0.09067448  0.57865298  0.68918848  1
  Se  Se245  1  0.09549607  0.91121654  0.18979547  1
  Se  Se246  1  0.08257879  0.92254739  0.70524354  1
  Se  Se247  1  0.41219577  0.25017279  0.19967952  1
  Se  Se248  1  0.43141053  0.23324978  0.70354637  1
  Se  Se249  1  0.40082264  0.61162161  0.19853254  1
  Se  Se250  1  0.41400853  0.58411311  0.69281952  1
  Se  Se251  1  0.42935014  0.90844648  0.19025429  1
  Se  Se252  1  0.41825136  0.90733218  0.69404362  1
  Se  Se253  1  0.75269573  0.24634418  0.18387662  1
  Se  Se254  1  0.76157967  0.24376618  0.68880853  1
  Se  Se255  1  0.75563845  0.57629189  0.19839266  1
  Se  Se256  1  0.74643558  0.58536933  0.70043837  1
  Se  Se257  1  0.76977701  0.90679688  0.19695595  1
  Se  Se258  1  0.74611032  0.91888566  0.69786862  1
