# generated using pymatgen
data_In86Cu29Se144
_symmetry_space_group_name_H-M   'P 1'
_cell_length_a   17.57836964
_cell_length_b   17.57807347
_cell_length_c   23.44222784
_cell_angle_alpha   89.99401965
_cell_angle_beta   89.98799471
_cell_angle_gamma   90.01712013
_symmetry_Int_Tables_number   1
_chemical_formula_structural   In86Cu29Se144
_chemical_formula_sum   'In86 Cu29 Se144'
_cell_volume   7243.50425157
_cell_formula_units_Z   1
loop_
 _symmetry_equiv_pos_site_id
 _symmetry_equiv_pos_as_xyz
  1  'x, y, z'
loop_
 _atom_site_type_symbol
 _atom_site_label
 _atom_site_symmetry_multiplicity
 _atom_site_fract_x
 _atom_site_fract_y
 _atom_site_fract_z
 _atom_site_occupancy
  In  In0  1  -0.00189113  0.16750295  0.12143286  1
  In  In1  1  -0.00047030  0.17026276  0.62561021  1
  In  In2  1  0.00856372  0.48764422  0.13517023  1
  In  In3  1  -0.01400780  0.48453464  0.61654545  1
  In  In4  1  -0.00866416  0.84256833  0.13548333  1
  In  In5  1  0.00314475  0.84200967  0.62428329  1
  In  In6  1  0.33005915  0.18212101  0.12274032  1
  In  In7  1  0.33354808  0.18308823  0.62434258  1
  In  In8  1  0.32404056  0.51061190  0.13506944  1
  In  In9  1  0.33240419  0.49708662  0.62470492  1
  In  In10  1  0.33794139  0.81913395  0.12759963  1
  In  In11  1  0.32506465  0.80955529  0.62416926  1
  In  In12  1  0.67698085  0.15483463  0.12132244  1
  In  In13  1  0.68912901  0.17256794  0.62124943  1
  In  In14  1  0.67906632  0.49994647  0.13326989  1
  In  In15  1  0.66614227  0.49883080  0.62259713  1
  In  In16  1  0.66064516  0.83037142  0.11453590  1
  In  In17  1  0.66327722  0.82582416  0.61736873  1
  In  In18  1  0.15990860  0.01650430  0.37663153  1
  In  In19  1  0.16979426  0.01505375  0.87758861  1
  In  In20  1  0.15634373  0.32967599  0.37275118  1
  In  In21  1  0.16347838  0.33406359  0.87210877  1
  In  In22  1  0.16912355  0.66836706  0.37015672  1
  In  In23  1  0.16261267  0.64970247  0.87703490  1
  In  In24  1  0.49453189  -0.00981265  0.37644266  1
  In  In25  1  0.49272576  -0.00791598  0.87701250  1
  In  In26  1  0.49898022  0.36734794  0.37423921  1
  In  In27  1  0.50070823  0.33559798  0.86503693  1
  In  In28  1  0.50279772  0.65811769  0.37246431  1
  In  In29  1  0.49945567  0.67775605  0.87443832  1
  In  In30  1  0.84412996  -0.01052398  0.37908432  1
  In  In31  1  0.84439322  -0.00921586  0.87903117  1
  In  In32  1  0.85269526  0.32892139  0.39222434  1
  In  In33  1  0.82560385  0.32705070  0.86116030  1
  In  In34  1  0.83698870  0.66944046  0.37651317  1
  In  In35  1  0.84338226  0.67541507  0.87866304  1
  In  In36  1  0.00200840  0.16781246  0.37371444  1
  In  In37  1  0.00257875  0.16780332  0.87231225  1
  In  In38  1  -0.00315250  0.49675376  0.37632954  1
  In  In39  1  0.01071547  0.50445469  0.87340141  1
  In  In40  1  -0.01155454  0.82279710  0.36443144  1
  In  In41  1  -0.01403464  0.83052646  0.87532342  1
  In  In42  1  0.30695282  0.17692407  0.38126773  1
  In  In43  1  0.32116568  0.16895553  0.87578476  1
  In  In44  1  0.34730369  0.51208761  0.36267039  1
  In  In45  1  0.32486230  0.49115462  0.86667528  1
  In  In46  1  0.34719245  0.82427688  0.37907110  1
  In  In47  1  0.34210838  0.83354163  0.87593661  1
  In  In48  1  0.67824332  0.17983657  0.37708429  1
  In  In49  1  0.66712874  0.17599225  0.87258625  1
  In  In50  1  0.66111555  0.51233489  0.38244016  1
  In  In51  1  0.67664705  0.48493366  0.87099519  1
  In  In52  1  0.68072365  0.81829801  0.38151081  1
  In  In53  1  0.66748893  0.83791623  0.88427342  1
  In  In54  1  0.14973982  0.00245935  0.12470091  1
  In  In55  1  0.14460996  -0.00426884  0.63103212  1
  In  In56  1  0.16132607  0.33310713  0.12147201  1
  In  In57  1  0.16976665  0.33111288  0.62378373  1
  In  In58  1  0.17537347  0.65630351  0.13514149  1
  In  In59  1  0.17399088  0.67521508  0.62789723  1
  In  In60  1  0.51493419  -0.01239768  0.12369480  1
  In  In61  1  0.50923454  -0.00823125  0.62206854  1
  In  In62  1  0.49274153  0.33178534  0.12994702  1
  In  In63  1  0.49085358  0.34728965  0.62776943  1
  In  In64  1  0.49106205  0.67259361  0.13524448  1
  In  In65  1  0.48077862  0.64822398  0.60610236  1
  In  In66  1  0.83791058  0.01214370  0.11381138  1
  In  In67  1  0.84851030  0.01173011  0.61840807  1
  In  In68  1  0.84717574  0.33458691  0.12487739  1
  In  In69  1  0.84154279  0.33366562  0.62962879  1
  In  In70  1  0.82566369  0.67141372  0.13650942  1
  In  In71  1  0.83424943  0.65599671  0.60847369  1
  In  In72  1  0.16133980  0.49701709  0.49997501  1
  In  In73  1  0.66810416  0.00263507  0.74874202  1
  In  In74  1  0.84180169  0.50228190  -0.00326849  1
  In  In75  1  0.32655246  0.00097843  0.25705754  1
  In  In76  1  0.50340637  0.16101823  -0.00340562  1
  In  In77  1  0.66515501  0.66242807  0.74230445  1
  In  In78  1  0.66687121  0.34216265  0.25728808  1
  In  In79  1  0.49620979  0.50745798  0.00940617  1
  In  In80  1  0.16265408  0.83328583  0.50128651  1
  In  In81  1  0.67075663  -0.00025819  0.24352754  1
  In  In82  1  0.50109187  0.16789511  0.49790157  1
  In  In83  1  0.00124494  0.66204337  0.74524338  1
  In  In84  1  0.16545279  0.83212044  0.00731456  1
  In  In85  1  0.32911854  0.00197726  0.75743359  1
  Cu  Cu86  1  0.16740681  0.49510371  0.74706602  1
  Cu  Cu87  1  0.16315519  0.49634527  0.25432701  1
  Cu  Cu88  1  0.66559101  0.67101049  0.49659120  1
  Cu  Cu89  1  0.33380778  0.66433403  0.00713729  1
  Cu  Cu90  1  0.16517329  0.17116905  0.75055803  1
  Cu  Cu91  1  0.15737545  0.17217336  0.24907108  1
  Cu  Cu92  1  0.33681191  -0.00197355  -0.00102064  1
  Cu  Cu93  1  0.83405049  0.83220128  0.25233227  1
  Cu  Cu94  1  0.67439563  0.33496110  0.50253349  1
  Cu  Cu95  1  0.33197341  0.34027978  0.49860815  1
  Cu  Cu96  1  0.00010266  0.00552144  -0.00062624  1
  Cu  Cu97  1  0.32916785  -0.00344721  0.49954199  1
  Cu  Cu98  1  0.50576894  0.17822794  0.74766595  1
  Cu  Cu99  1  0.31969263  0.33654332  -0.00369213  1
  Cu  Cu100  1  -0.00367867  0.00384894  0.50077712  1
  Cu  Cu101  1  0.66891159  0.67342980  0.00280004  1
  Cu  Cu102  1  0.50545045  0.82556557  0.25270262  1
  Cu  Cu103  1  0.48922781  0.82594551  0.74685476  1
  Cu  Cu104  1  0.84039927  0.16944454  0.24975768  1
  Cu  Cu105  1  0.66854812  -0.00598933  0.49937173  1
  Cu  Cu106  1  0.48922532  0.17291476  0.25358189  1
  Cu  Cu107  1  0.00023139  0.66610709  0.00508672  1
  Cu  Cu108  1  0.83551789  0.50216086  0.25866237  1
  Cu  Cu109  1  0.83172588  0.83551318  0.74743157  1
  Cu  Cu110  1  0.00073211  0.32669802  -0.00149304  1
  Cu  Cu111  1  0.84351505  0.16765179  0.74589949  1
  Cu  Cu112  1  0.16729494  0.83287479  0.24881491  1
  Cu  Cu113  1  0.49774069  0.50577126  0.74316022  1
  Cu  Cu114  1  0.66906601  0.32915353  -0.00535697  1
  Se  Se115  1  0.08509813  0.08886231  0.05031993  1
  Se  Se116  1  0.08181702  0.08268648  0.55621151  1
  Se  Se117  1  0.07688129  0.41658309  0.05260054  1
  Se  Se118  1  0.07333251  0.39664417  0.55017136  1
  Se  Se119  1  0.07851393  0.74355021  0.06942551  1
  Se  Se120  1  0.07315438  0.73917274  0.55839244  1
  Se  Se121  1  0.41410953  0.07698816  0.06422897  1
  Se  Se122  1  0.41109145  0.07787969  0.56035731  1
  Se  Se123  1  0.40338313  0.41018028  0.05910263  1
  Se  Se124  1  0.41671847  0.42274626  0.55052068  1
  Se  Se125  1  0.42229064  0.74830609  0.05394017  1
  Se  Se126  1  0.42539257  0.76418518  0.55320196  1
  Se  Se127  1  0.74504451  0.08004951  0.04457154  1
  Se  Se128  1  0.75139451  0.07910834  0.55059499  1
  Se  Se129  1  0.74638531  0.41120655  0.05562638  1
  Se  Se130  1  0.75540235  0.41560214  0.55978397  1
  Se  Se131  1  0.75901466  0.74888141  0.05619029  1
  Se  Se132  1  0.75270832  0.75108675  0.54951555  1
  Se  Se133  1  0.24248825  0.24847989  0.04999438  1
  Se  Se134  1  0.25130526  0.25269152  0.54946598  1
  Se  Se135  1  0.24730792  0.58080254  0.05582235  1
  Se  Se136  1  0.25383637  0.59030643  0.55560597  1
  Se  Se137  1  0.25858216  0.92324086  0.06604753  1
  Se  Se138  1  0.25125856  0.92218614  0.56586087  1
  Se  Se139  1  0.58839465  0.25599586  0.05969955  1
  Se  Se140  1  0.58737485  0.25669652  0.56151447  1
  Se  Se141  1  0.59605293  0.59044721  0.06494095  1
  Se  Se142  1  0.58812828  0.58149157  0.55076783  1
  Se  Se143  1  0.59141906  0.92319753  0.04596082  1
  Se  Se144  1  0.58203271  0.91116377  0.54843131  1
  Se  Se145  1  0.91213842  0.24792613  0.05076845  1
  Se  Se146  1  0.89867683  0.23307471  0.56023392  1
  Se  Se147  1  0.92142605  0.58580639  0.06768171  1
  Se  Se148  1  0.91988423  0.57267181  0.54371358  1
  Se  Se149  1  0.92374163  0.91819056  0.05510777  1
  Se  Se150  1  0.91703283  0.91392017  0.55204539  1
  Se  Se151  1  0.09613461  0.23469619  0.44319360  1
  Se  Se152  1  0.08694827  0.24796766  0.94297451  1
  Se  Se153  1  0.07894781  0.59426037  0.44114208  1
  Se  Se154  1  0.08088483  0.58028627  0.95315929  1
  Se  Se155  1  0.07452426  0.92161645  0.43871354  1
  Se  Se156  1  0.08013355  0.91968543  0.94116112  1
  Se  Se157  1  0.41380649  0.25926136  0.43716953  1
  Se  Se158  1  0.41262372  0.25999383  0.94167402  1
  Se  Se159  1  0.42066344  0.57737770  0.44315039  1
  Se  Se160  1  0.40951615  0.58710764  0.93971113  1
  Se  Se161  1  0.41611599  0.91491305  0.45057291  1
  Se  Se162  1  0.41929442  0.91069171  0.95108777  1
  Se  Se163  1  0.75732379  0.24779776  0.45363258  1
  Se  Se164  1  0.75553990  0.25109488  0.94171593  1
  Se  Se165  1  0.75349407  0.58779342  0.44733853  1
  Se  Se166  1  0.74219352  0.59017057  0.93949264  1
  Se  Se167  1  0.75409432  0.91333777  0.44587177  1
  Se  Se168  1  0.76341840  0.90754769  0.94626594  1
  Se  Se169  1  0.24436826  0.08329679  0.45295098  1
  Se  Se170  1  0.25345686  0.08573178  0.95187136  1
  Se  Se171  1  0.25380729  0.41733986  0.43408336  1
  Se  Se172  1  0.24182209  0.42274274  0.94241835  1
  Se  Se173  1  0.25689242  0.74177045  0.44607455  1
  Se  Se174  1  0.25278006  0.74297476  0.94390702  1
  Se  Se175  1  0.59285614  0.07683022  0.43679796  1
  Se  Se176  1  0.59343158  0.07268097  0.93610005  1
  Se  Se177  1  0.58866995  0.41867067  0.45180574  1
  Se  Se178  1  0.58292455  0.41387405  0.94466555  1
  Se  Se179  1  0.57856223  0.74972169  0.44237593  1
  Se  Se180  1  0.58203798  0.75054109  0.94760977  1
  Se  Se181  1  0.91560734  0.08607222  0.44339400  1
  Se  Se182  1  0.91860168  0.08683415  0.94264886  1
  Se  Se183  1  0.91274152  0.43456133  0.45511984  1
  Se  Se184  1  0.92273374  0.40753962  0.93541192  1
  Se  Se185  1  0.91018457  0.76277010  0.44429652  1
  Se  Se186  1  0.91773993  0.75193985  0.95455670  1
  Se  Se187  1  0.24433441  0.25353065  0.30034266  1
  Se  Se188  1  0.25165285  0.25356663  0.80266387  1
  Se  Se189  1  0.24837844  0.58488270  0.30041533  1
  Se  Se190  1  0.24657267  0.58269615  0.80097971  1
  Se  Se191  1  0.24202408  0.90795858  0.31825346  1
  Se  Se192  1  0.23998189  0.90922704  0.81442298  1
  Se  Se193  1  0.57313042  0.24842239  0.31442972  1
  Se  Se194  1  0.59229723  0.25830573  0.80002515  1
  Se  Se195  1  0.58437617  0.57567079  0.30296220  1
  Se  Se196  1  0.57823633  0.57569673  0.81135497  1
  Se  Se197  1  0.58547085  0.91047804  0.30917682  1
  Se  Se198  1  0.57501339  0.90567721  0.80419159  1
  Se  Se199  1  0.91559396  0.25432732  0.30798913  1
  Se  Se200  1  0.92460496  0.25183787  0.80088362  1
  Se  Se201  1  0.92127511  0.58702257  0.30767559  1
  Se  Se202  1  0.90758043  0.57821601  0.80869953  1
  Se  Se203  1  0.91861974  0.92156148  0.29824098  1
  Se  Se204  1  0.91779696  0.91548436  0.80011684  1
  Se  Se205  1  0.07794716  0.08273991  0.29949417  1
  Se  Se206  1  0.08588137  0.08306331  0.80282008  1
  Se  Se207  1  0.07611949  0.41492185  0.30462322  1
  Se  Se208  1  0.08120154  0.41705539  0.80174015  1
  Se  Se209  1  0.08400738  0.74813516  0.30124550  1
  Se  Se210  1  0.08388958  0.74870732  0.81342531  1
  Se  Se211  1  0.41523981  0.09376446  0.31749906  1
  Se  Se212  1  0.42829891  0.09631838  0.80938331  1
  Se  Se213  1  0.40293221  0.40508225  0.29845743  1
  Se  Se214  1  0.41746590  0.41911543  0.79920235  1
  Se  Se215  1  0.41786924  0.74484726  0.30321724  1
  Se  Se216  1  0.40852264  0.74408816  0.80228670  1
  Se  Se217  1  0.75724255  0.08901982  0.30792113  1
  Se  Se218  1  0.76115165  0.08856916  0.80818650  1
  Se  Se219  1  0.76062173  0.41944531  0.32155746  1
  Se  Se220  1  0.75462624  0.42059631  0.79414268  1
  Se  Se221  1  0.75104518  0.74586595  0.30203183  1
  Se  Se222  1  0.75149531  0.75512774  0.80681807  1
  Se  Se223  1  0.24287314  0.09047108  0.19114846  1
  Se  Se224  1  0.24639458  0.09017766  0.68977697  1
  Se  Se225  1  0.24181618  0.41526459  0.19346661  1
  Se  Se226  1  0.25263352  0.41269850  0.69347008  1
  Se  Se227  1  0.25437647  0.74884025  0.20049160  1
  Se  Se228  1  0.24084356  0.75607735  0.70383633  1
  Se  Se229  1  0.57179706  0.09621392  0.19333632  1
  Se  Se230  1  0.57997780  0.09506620  0.68688650  1
  Se  Se231  1  0.57450731  0.42519683  0.19379904  1
  Se  Se232  1  0.58375826  0.42056344  0.69495889  1
  Se  Se233  1  0.59057815  0.75240362  0.19287652  1
  Se  Se234  1  0.56985966  0.74873501  0.68568278  1
  Se  Se235  1  0.91549792  0.08374891  0.19159451  1
  Se  Se236  1  0.92551127  0.07876673  0.69754513  1
  Se  Se237  1  0.91280783  0.41567937  0.20198617  1
  Se  Se238  1  0.92476798  0.41389018  0.69973262  1
  Se  Se239  1  0.92017449  0.74694620  0.20127624  1
  Se  Se240  1  0.90530889  0.74945675  0.68635922  1
  Se  Se241  1  0.07579525  0.25338858  0.19164844  1
  Se  Se242  1  0.08421110  0.25293615  0.69386115  1
  Se  Se243  1  0.08084259  0.58293903  0.20072508  1
  Se  Se244  1  0.08833420  0.57142124  0.68285613  1
  Se  Se245  1  0.08387102  0.92038378  0.20117220  1
  Se  Se246  1  0.08266576  0.90513450  0.70268339  1
  Se  Se247  1  0.40736410  0.25471649  0.19962603  1
  Se  Se248  1  0.41600438  0.25653175  0.69693402  1
  Se  Se249  1  0.42339947  0.57602037  0.19872566  1
  Se  Se250  1  0.41176873  0.58758872  0.69236624  1
  Se  Se251  1  0.42408503  0.91395213  0.19741742  1
  Se  Se252  1  0.41524528  0.91546152  0.69012077  1
  Se  Se253  1  0.75151429  0.24663670  0.19326215  1
  Se  Se254  1  0.75351177  0.25096258  0.69982004  1
  Se  Se255  1  0.74962031  0.58321045  0.20629297  1
  Se  Se256  1  0.76407832  0.57665462  0.69006182  1
  Se  Se257  1  0.75991302  0.91058798  0.18478426  1
  Se  Se258  1  0.75304533  0.91366324  0.68460833  1
