# generated using pymatgen
data_In86Cu29Se144
_symmetry_space_group_name_H-M   'P 1'
_cell_length_a   17.57712716
_cell_length_b   17.57933214
_cell_length_c   23.43461105
_cell_angle_alpha   90.00819153
_cell_angle_beta   89.99361293
_cell_angle_gamma   89.99894725
_symmetry_Int_Tables_number   1
_chemical_formula_structural   In86Cu29Se144
_chemical_formula_sum   'In86 Cu29 Se144'
_cell_volume   7241.15775015
_cell_formula_units_Z   1
loop_
 _symmetry_equiv_pos_site_id
 _symmetry_equiv_pos_as_xyz
  1  'x, y, z'
loop_
 _atom_site_type_symbol
 _atom_site_label
 _atom_site_symmetry_multiplicity
 _atom_site_fract_x
 _atom_site_fract_y
 _atom_site_fract_z
 _atom_site_occupancy
  In  In0  1  0.00767927  0.16805166  0.12037018  1
  In  In1  1  -0.00032994  0.16858631  0.62692148  1
  In  In2  1  -0.01365863  0.49420929  0.12983089  1
  In  In3  1  -0.02365012  0.50040325  0.62954919  1
  In  In4  1  0.00119201  0.83619728  0.13009515  1
  In  In5  1  0.01203642  0.83863091  0.60842209  1
  In  In6  1  0.32608351  0.17263967  0.12457101  1
  In  In7  1  0.33074246  0.16820858  0.61770336  1
  In  In8  1  0.34092585  0.49396833  0.12234698  1
  In  In9  1  0.34140762  0.48177235  0.63756598  1
  In  In10  1  0.33857790  0.83018388  0.14975276  1
  In  In11  1  0.32574759  0.84230756  0.62893948  1
  In  In12  1  0.66507590  0.15615572  0.12490098  1
  In  In13  1  0.66490270  0.16824655  0.62660159  1
  In  In14  1  0.65653258  0.51283298  0.12063795  1
  In  In15  1  0.67104333  0.50093144  0.62933522  1
  In  In16  1  0.67768923  0.84133353  0.13082917  1
  In  In17  1  0.67281665  0.82603540  0.62996378  1
  In  In18  1  0.18118337  -0.00845473  0.38343385  1
  In  In19  1  0.17582480  0.01370299  0.86819145  1
  In  In20  1  0.15235173  0.34177535  0.37728916  1
  In  In21  1  0.15408956  0.32231908  0.85576744  1
  In  In22  1  0.18400214  0.66225027  0.37643181  1
  In  In23  1  0.17382582  0.65073815  0.86565325  1
  In  In24  1  0.50786966  -0.00148870  0.37032380  1
  In  In25  1  0.49950044  0.00148437  0.86253613  1
  In  In26  1  0.48821571  0.33742710  0.39940941  1
  In  In27  1  0.50805381  0.34073888  0.86854503  1
  In  In28  1  0.48537828  0.66767551  0.37824991  1
  In  In29  1  0.48834000  0.65536622  0.86393609  1
  In  In30  1  0.83068654  0.00419607  0.38560169  1
  In  In31  1  0.84794900  0.00883530  0.86128590  1
  In  In32  1  0.84587107  0.31978540  0.38885616  1
  In  In33  1  0.82349330  0.32554666  0.86092358  1
  In  In34  1  0.84420690  0.65916169  0.39765969  1
  In  In35  1  0.82769405  0.67542139  0.86829204  1
  In  In36  1  -0.00192441  0.17211999  0.38360439  1
  In  In37  1  0.00151364  0.16588174  0.86983434  1
  In  In38  1  0.01024437  0.48209478  0.37983629  1
  In  In39  1  0.00337333  0.47570642  0.85129565  1
  In  In40  1  0.00683087  0.82271031  0.39693471  1
  In  In41  1  -0.01665896  0.83604821  0.87067442  1
  In  In42  1  0.34466050  0.16058225  0.39156677  1
  In  In43  1  0.32419337  0.15637446  0.86916914  1
  In  In44  1  0.32885344  0.51051458  0.37993355  1
  In  In45  1  0.33512188  0.50839768  0.85905558  1
  In  In46  1  0.33123123  0.82690445  0.36292845  1
  In  In47  1  0.33174129  0.83468666  0.86492015  1
  In  In48  1  0.67133384  0.16064190  0.38554524  1
  In  In49  1  0.67654803  0.17694515  0.86482857  1
  In  In50  1  0.66583298  0.50009857  0.38653205  1
  In  In51  1  0.65464885  0.48168583  0.85601211  1
  In  In52  1  0.66599659  0.84702376  0.37756787  1
  In  In53  1  0.66700261  0.83505405  0.86121880  1
  In  In54  1  0.16598141  0.00626716  0.12960852  1
  In  In55  1  0.16537487  0.00056469  0.61995856  1
  In  In56  1  0.16904551  0.31740591  0.12533380  1
  In  In57  1  0.17780717  0.31988150  0.63322459  1
  In  In58  1  0.18096075  0.67603844  0.12874287  1
  In  In59  1  0.15904325  0.68376403  0.61770100  1
  In  In60  1  0.50573474  -0.00610579  0.13959344  1
  In  In61  1  0.48890585  0.01061615  0.63213163  1
  In  In62  1  0.48722896  0.33899662  0.11977661  1
  In  In63  1  0.49704510  0.33541167  0.61865549  1
  In  In64  1  0.49443120  0.65868398  0.12301323  1
  In  In65  1  0.51085392  0.65652219  0.63063166  1
  In  In66  1  0.82372367  0.00360733  0.12744130  1
  In  In67  1  0.83182413  0.00482515  0.62463305  1
  In  In68  1  0.84869518  0.33041737  0.12565454  1
  In  In69  1  0.83699976  0.33466367  0.63241169  1
  In  In70  1  0.83130685  0.67134434  0.12812851  1
  In  In71  1  0.82895035  0.65583251  0.60863885  1
  In  In72  1  0.50137530  0.17154032  -0.00149519  1
  In  In73  1  0.16540726  0.84124149  0.00491383  1
  In  In74  1  0.66418313  0.67712410  0.25115245  1
  In  In75  1  0.01470546  0.65826452  0.26427295  1
  In  In76  1  0.50105348  0.83343412  0.49814698  1
  In  In77  1  0.82134850  0.48899758  -0.01746784  1
  In  In78  1  0.00544324  -0.00271979  0.25436914  1
  In  In79  1  0.32573680  0.33371854  0.25390984  1
  In  In80  1  0.49842657  0.83639631  0.00771010  1
  In  In81  1  -0.00299198  0.67396364  0.74396669  1
  In  In82  1  0.82715613  0.83945028  0.00819404  1
  In  In83  1  0.16283041  0.49035258  -0.01168227  1
  In  In84  1  0.16679737  0.50210664  0.50787594  1
  In  In85  1  0.66487255  0.32444076  0.25409172  1
  Cu  Cu86  1  0.83455863  0.16516751  0.74512592  1
  Cu  Cu87  1  0.67078130  0.33476462  0.50932974  1
  Cu  Cu88  1  0.49570755  0.50153000  0.25088311  1
  Cu  Cu89  1  0.83470893  0.16372059  0.26273703  1
  Cu  Cu90  1  0.66816564  0.66007590  0.50756490  1
  Cu  Cu91  1  0.32909982  -0.00180624  0.50316223  1
  Cu  Cu92  1  0.50371825  0.16537345  0.25921524  1
  Cu  Cu93  1  0.16197082  0.84005014  0.74419502  1
  Cu  Cu94  1  0.33452995  0.00526792  0.00021142  1
  Cu  Cu95  1  0.50124994  0.49708857  0.74461277  1
  Cu  Cu96  1  0.16664287  0.15930790  0.74214688  1
  Cu  Cu97  1  0.67665093  0.00999861  -0.00643610  1
  Cu  Cu98  1  -0.00126921  0.33566638  0.50939240  1
  Cu  Cu99  1  0.00429800  0.32094295  -0.00283477  1
  Cu  Cu100  1  -0.00161144  0.65341723  0.00093996  1
  Cu  Cu101  1  0.66354070  0.00202865  0.50464258  1
  Cu  Cu102  1  0.83271449  0.48731884  0.25689639  1
  Cu  Cu103  1  0.16841620  0.16791910  0.25262969  1
  Cu  Cu104  1  0.83421869  0.83728700  0.26053552  1
  Cu  Cu105  1  0.67181211  0.33546073  -0.00955229  1
  Cu  Cu106  1  -0.00255382  0.01149101  0.50356387  1
  Cu  Cu107  1  0.64495630  0.66143561  -0.00849120  1
  Cu  Cu108  1  0.33066244  0.33682752  -0.00641968  1
  Cu  Cu109  1  0.83438359  0.83734539  0.74038194  1
  Cu  Cu110  1  0.49793736  0.83254284  0.74451552  1
  Cu  Cu111  1  0.00676522  0.01236095  -0.00729314  1
  Cu  Cu112  1  0.33661950  0.66581941  0.50419584  1
  Cu  Cu113  1  0.49693274  0.17205822  0.74522298  1
  Cu  Cu114  1  0.33215335  0.66111716  -0.00972967  1
  Se  Se115  1  0.09220968  0.08465778  0.05324646  1
  Se  Se116  1  0.08482495  0.09154005  0.55534528  1
  Se  Se117  1  0.07418056  0.40959851  0.05856265  1
  Se  Se118  1  0.07919598  0.41254154  0.57065431  1
  Se  Se119  1  0.07425817  0.73914075  0.05921092  1
  Se  Se120  1  0.08924607  0.75495759  0.53798441  1
  Se  Se121  1  0.41901456  0.07870928  0.06255944  1
  Se  Se122  1  0.41693017  0.08078412  0.55176437  1
  Se  Se123  1  0.41599159  0.41919609  0.04470505  1
  Se  Se124  1  0.41067219  0.42076041  0.55351700  1
  Se  Se125  1  0.39953603  0.74520416  0.05844514  1
  Se  Se126  1  0.41680288  0.74701171  0.56472417  1
  Se  Se127  1  0.75648058  0.08983492  0.05229695  1
  Se  Se128  1  0.74753337  0.08662886  0.55544893  1
  Se  Se129  1  0.74371273  0.41227335  0.06324188  1
  Se  Se130  1  0.75580042  0.41753821  0.56080214  1
  Se  Se131  1  0.73014349  0.73691894  0.05544663  1
  Se  Se132  1  0.74796182  0.75508224  0.55103566  1
  Se  Se133  1  0.25272306  0.25156962  0.04867300  1
  Se  Se134  1  0.24747755  0.25401278  0.55113038  1
  Se  Se135  1  0.25022732  0.58359314  0.05238167  1
  Se  Se136  1  0.26028762  0.58913419  0.56791883  1
  Se  Se137  1  0.26412702  0.92075730  0.06503655  1
  Se  Se138  1  0.24570397  0.91110288  0.55150702  1
  Se  Se139  1  0.59356834  0.26240519  0.05958763  1
  Se  Se140  1  0.58321145  0.24802991  0.55452849  1
  Se  Se141  1  0.56717287  0.57679114  0.04737980  1
  Se  Se142  1  0.58242160  0.57568325  0.55580360  1
  Se  Se143  1  0.59738018  0.93155191  0.05728723  1
  Se  Se144  1  0.58323719  0.92098930  0.56524761  1
  Se  Se145  1  0.91661722  0.24418605  0.05211912  1
  Se  Se146  1  0.91352754  0.25068452  0.55911841  1
  Se  Se147  1  0.90694465  0.57951499  0.05459362  1
  Se  Se148  1  0.93199165  0.58896174  0.54850593  1
  Se  Se149  1  0.92923191  0.93239765  0.05823522  1
  Se  Se150  1  0.91487500  0.92408370  0.55323677  1
  Se  Se151  1  0.08191661  0.25638744  0.45083654  1
  Se  Se152  1  0.08930728  0.24712350  0.93850276  1
  Se  Se153  1  0.08087715  0.58872491  0.44120114  1
  Se  Se154  1  0.06862724  0.58094927  0.93069853  1
  Se  Se155  1  0.08139943  0.92775159  0.45056059  1
  Se  Se156  1  0.07724312  0.92093036  0.93512661  1
  Se  Se157  1  0.40943132  0.25125194  0.46389597  1
  Se  Se158  1  0.41182447  0.25477556  0.93427877  1
  Se  Se159  1  0.41895850  0.58016830  0.45194125  1
  Se  Se160  1  0.41412008  0.57606531  0.93950743  1
  Se  Se161  1  0.40816145  0.91955270  0.43912050  1
  Se  Se162  1  0.41193420  0.92360382  0.93992480  1
  Se  Se163  1  0.74912488  0.24901155  0.45272360  1
  Se  Se164  1  0.75524587  0.25010993  0.94195089  1
  Se  Se165  1  0.75320398  0.57382128  0.45664087  1
  Se  Se166  1  0.73491270  0.59132392  0.93269323  1
  Se  Se167  1  0.74721683  0.91792635  0.45240275  1
  Se  Se168  1  0.74973037  0.92190875  0.93458603  1
  Se  Se169  1  0.24543151  0.08657427  0.45339207  1
  Se  Se170  1  0.24792667  0.08580169  0.94896094  1
  Se  Se171  1  0.25299770  0.41225900  0.44472197  1
  Se  Se172  1  0.25381223  0.40745196  0.92536868  1
  Se  Se173  1  0.26296633  0.74919981  0.44397701  1
  Se  Se174  1  0.24881039  0.74678913  0.93902520  1
  Se  Se175  1  0.57837417  0.07891979  0.44743041  1
  Se  Se176  1  0.58801663  0.08207091  0.93563592  1
  Se  Se177  1  0.58535926  0.41829411  0.45593507  1
  Se  Se178  1  0.58618939  0.42028220  0.94287950  1
  Se  Se179  1  0.59287338  0.73918465  0.44064298  1
  Se  Se180  1  0.57688853  0.75319917  0.93383371  1
  Se  Se181  1  0.91116524  0.09234248  0.45087264  1
  Se  Se182  1  0.91497517  0.08649113  0.94110143  1
  Se  Se183  1  0.91861966  0.41780148  0.45229411  1
  Se  Se184  1  0.92744524  0.40374557  0.93459719  1
  Se  Se185  1  0.90587983  0.76086068  0.46027322  1
  Se  Se186  1  0.91684997  0.74345569  0.94856265  1
  Se  Se187  1  0.24615837  0.24286636  0.31866236  1
  Se  Se188  1  0.25083296  0.24204048  0.79716518  1
  Se  Se189  1  0.24315706  0.56944718  0.30368308  1
  Se  Se190  1  0.25558351  0.59021762  0.78857668  1
  Se  Se191  1  0.25323945  0.92357540  0.30311095  1
  Se  Se192  1  0.24776095  0.91997523  0.80076539  1
  Se  Se193  1  0.57292825  0.25009940  0.32199771  1
  Se  Se194  1  0.58348861  0.25192549  0.79986510  1
  Se  Se195  1  0.58098955  0.57722190  0.30994441  1
  Se  Se196  1  0.58401668  0.58552123  0.79720255  1
  Se  Se197  1  0.57941181  0.90622776  0.30241548  1
  Se  Se198  1  0.58294161  0.91876298  0.79598490  1
  Se  Se199  1  0.92034548  0.25053132  0.30792030  1
  Se  Se200  1  0.91928962  0.24775445  0.79960721  1
  Se  Se201  1  0.90934557  0.57441720  0.31539610  1
  Se  Se202  1  0.91174263  0.58067545  0.80716634  1
  Se  Se203  1  0.92002766  0.91013315  0.32050983  1
  Se  Se204  1  0.92186049  0.91781296  0.79238333  1
  Se  Se205  1  0.09061982  0.08873506  0.31580219  1
  Se  Se206  1  0.08119061  0.08070895  0.79948004  1
  Se  Se207  1  0.08700709  0.42131551  0.29882867  1
  Se  Se208  1  0.11328400  0.43269282  0.78738971  1
  Se  Se209  1  0.09501667  0.76159554  0.31646319  1
  Se  Se210  1  0.08947261  0.75874572  0.81101120  1
  Se  Se211  1  0.41565091  0.08704560  0.31185732  1
  Se  Se212  1  0.41457999  0.08543587  0.79885639  1
  Se  Se213  1  0.42340391  0.41766604  0.31311668  1
  Se  Se214  1  0.41807744  0.41428068  0.79925614  1
  Se  Se215  1  0.42546043  0.74924626  0.30086800  1
  Se  Se216  1  0.41366147  0.74991039  0.79929464  1
  Se  Se217  1  0.74907928  0.08039500  0.31109752  1
  Se  Se218  1  0.74938669  0.08180002  0.79908932  1
  Se  Se219  1  0.75198236  0.41198270  0.31757431  1
  Se  Se220  1  0.76113647  0.42459209  0.79536619  1
  Se  Se221  1  0.76128561  0.74745086  0.31891656  1
  Se  Se222  1  0.75184513  0.75250917  0.79403162  1
  Se  Se223  1  0.25162746  0.08890358  0.19637095  1
  Se  Se224  1  0.25301054  0.08032377  0.68833877  1
  Se  Se225  1  0.24155257  0.42115248  0.18767348  1
  Se  Se226  1  0.23781458  0.42070069  0.70181103  1
  Se  Se227  1  0.25399010  0.74064846  0.20883594  1
  Se  Se228  1  0.24356423  0.75279255  0.69372664  1
  Se  Se229  1  0.58733935  0.08663663  0.20206667  1
  Se  Se230  1  0.58279534  0.08505382  0.69729308  1
  Se  Se231  1  0.57684347  0.42047599  0.19216760  1
  Se  Se232  1  0.58266506  0.41304351  0.69070337  1
  Se  Se233  1  0.57431759  0.75961038  0.18509615  1
  Se  Se234  1  0.58519630  0.74802858  0.69807441  1
  Se  Se235  1  0.91353210  0.08799321  0.19538224  1
  Se  Se236  1  0.91919878  0.08114167  0.69499101  1
  Se  Se237  1  0.91918622  0.40764875  0.20402709  1
  Se  Se238  1  0.91388509  0.41650477  0.70629298  1
  Se  Se239  1  0.91452181  0.75319054  0.20128751  1
  Se  Se240  1  0.91362165  0.75855996  0.67736386  1
  Se  Se241  1  0.08281968  0.24562258  0.19705980  1
  Se  Se242  1  0.08068572  0.24954291  0.69883965  1
  Se  Se243  1  0.08562229  0.58032928  0.18417039  1
  Se  Se244  1  0.08406732  0.58491022  0.68335631  1
  Se  Se245  1  0.09872448  0.90327956  0.19794526  1
  Se  Se246  1  0.07828545  0.91815430  0.68863236  1
  Se  Se247  1  0.42603021  0.24514072  0.19552823  1
  Se  Se248  1  0.41397763  0.25087447  0.68847361  1
  Se  Se249  1  0.41231269  0.58062355  0.19511617  1
  Se  Se250  1  0.41557476  0.58422094  0.69642688  1
  Se  Se251  1  0.40556911  0.93505866  0.20503710  1
  Se  Se252  1  0.41206672  0.91908337  0.69822337  1
  Se  Se253  1  0.75963322  0.23992947  0.19334151  1
  Se  Se254  1  0.74816176  0.24980265  0.69672331  1
  Se  Se255  1  0.75589629  0.57329422  0.19655830  1
  Se  Se256  1  0.75136634  0.59615056  0.68998094  1
  Se  Se257  1  0.75431037  0.92046141  0.20421481  1
  Se  Se258  1  0.74668979  0.92258751  0.69406988  1
