# generated using pymatgen
data_In86Cu29Se144
_symmetry_space_group_name_H-M   'P 1'
_cell_length_a   17.58026199
_cell_length_b   17.58763723
_cell_length_c   23.44537587
_cell_angle_alpha   90.01676935
_cell_angle_beta   89.98872175
_cell_angle_gamma   90.00166257
_symmetry_Int_Tables_number   1
_chemical_formula_structural   In86Cu29Se144
_chemical_formula_sum   'In86 Cu29 Se144'
_cell_volume   7249.19887403
_cell_formula_units_Z   1
loop_
 _symmetry_equiv_pos_site_id
 _symmetry_equiv_pos_as_xyz
  1  'x, y, z'
loop_
 _atom_site_type_symbol
 _atom_site_label
 _atom_site_symmetry_multiplicity
 _atom_site_fract_x
 _atom_site_fract_y
 _atom_site_fract_z
 _atom_site_occupancy
  In  In0  1  -0.02909857  0.16592629  0.13555098  1
  In  In1  1  -0.00223822  0.17929388  0.62426822  1
  In  In2  1  0.00629617  0.50881782  0.12068413  1
  In  In3  1  -0.00183189  0.49654281  0.61684173  1
  In  In4  1  -0.00272786  0.82897530  0.12877563  1
  In  In5  1  -0.00015120  0.83238669  0.61878303  1
  In  In6  1  0.34775082  0.16774258  0.11717822  1
  In  In7  1  0.34197774  0.16048524  0.62757180  1
  In  In8  1  0.33499974  0.50950941  0.12369801  1
  In  In9  1  0.31784380  0.49962854  0.62492759  1
  In  In10  1  0.31625407  0.83364822  0.12338084  1
  In  In11  1  0.33253303  0.84006901  0.62432163  1
  In  In12  1  0.66572426  0.17217713  0.14213357  1
  In  In13  1  0.67675080  0.17414345  0.61570908  1
  In  In14  1  0.67645670  0.48980107  0.12988273  1
  In  In15  1  0.67185649  0.49411025  0.62803598  1
  In  In16  1  0.67627687  0.82292627  0.13283416  1
  In  In17  1  0.66817176  0.82246298  0.62511188  1
  In  In18  1  0.15016053  -0.00614614  0.37263074  1
  In  In19  1  0.17112214  -0.01272142  0.87401357  1
  In  In20  1  0.17560720  0.33591699  0.37900547  1
  In  In21  1  0.17375501  0.34451621  0.86901358  1
  In  In22  1  0.16481035  0.67075629  0.37782311  1
  In  In23  1  0.16080455  0.67351526  0.88170688  1
  In  In24  1  0.51700036  0.00981998  0.36709573  1
  In  In25  1  0.50105686  0.02317596  0.88148312  1
  In  In26  1  0.50746090  0.31824905  0.37598122  1
  In  In27  1  0.49206851  0.32640645  0.86854361  1
  In  In28  1  0.49881238  0.66889233  0.36573456  1
  In  In29  1  0.50404700  0.65143348  0.87376333  1
  In  In30  1  0.82801006  -0.00208931  0.37503556  1
  In  In31  1  0.82003904  -0.00350185  0.88392731  1
  In  In32  1  0.82232025  0.34327231  0.37863552  1
  In  In33  1  0.84288734  0.34405449  0.86618898  1
  In  In34  1  0.83521040  0.66588470  0.37375050  1
  In  In35  1  0.82937730  0.67319187  0.88159825  1
  In  In36  1  -0.00627099  0.14636963  0.36748088  1
  In  In37  1  -0.01433590  0.17461249  0.87217602  1
  In  In38  1  -0.01135629  0.50918267  0.38058123  1
  In  In39  1  0.00737278  0.49911072  0.87937293  1
  In  In40  1  -0.00111803  0.83020410  0.37718838  1
  In  In41  1  0.00168608  0.83266456  0.88373609  1
  In  In42  1  0.33858570  0.17576834  0.37732884  1
  In  In43  1  0.34447444  0.17966948  0.86770535  1
  In  In44  1  0.31934738  0.50745759  0.38322828  1
  In  In45  1  0.33094317  0.48246892  0.87697197  1
  In  In46  1  0.33316699  0.81827675  0.37895602  1
  In  In47  1  0.31760377  0.83440131  0.87070042  1
  In  In48  1  0.66894664  0.16918314  0.37366282  1
  In  In49  1  0.64674519  0.17243077  0.88358254  1
  In  In50  1  0.67763870  0.51172360  0.36524508  1
  In  In51  1  0.67569374  0.50343214  0.86921077  1
  In  In52  1  0.67886403  0.84377312  0.36614274  1
  In  In53  1  0.68200339  0.83844177  0.87991285  1
  In  In54  1  0.16280173  -0.01608813  0.12457054  1
  In  In55  1  0.17628673  -0.00146083  0.62495132  1
  In  In56  1  0.16265609  0.33966445  0.11716323  1
  In  In57  1  0.15878093  0.34264648  0.63263546  1
  In  In58  1  0.16044358  0.66685907  0.12807018  1
  In  In59  1  0.17388654  0.66473637  0.61223263  1
  In  In60  1  0.51280468  0.01872933  0.12413083  1
  In  In61  1  0.48684922  0.00248815  0.62467851  1
  In  In62  1  0.51965701  0.32934870  0.12126280  1
  In  In63  1  0.51213567  0.32357664  0.63126713  1
  In  In64  1  0.49976297  0.65756005  0.13628171  1
  In  In65  1  0.50749116  0.67970713  0.62724065  1
  In  In66  1  0.84529342  -0.00563612  0.13915076  1
  In  In67  1  0.82927354  -0.00347671  0.61481237  1
  In  In68  1  0.80315048  0.33668109  0.12017975  1
  In  In69  1  0.83453651  0.33642787  0.62138732  1
  In  In70  1  0.83423424  0.66490104  0.12661263  1
  In  In71  1  0.83018250  0.66025998  0.61573179  1
  In  In72  1  0.49980199  0.49978203  0.49606672  1
  In  In73  1  -0.00859079  0.33457426  0.25240748  1
  In  In74  1  0.66464182  0.00442605  0.75891036  1
  In  In75  1  0.49878774  0.83709853  0.50118063  1
  In  In76  1  0.82300351  0.16385064  0.00555317  1
  In  In77  1  0.50000817  0.49231778  -0.00197133  1
  In  In78  1  0.33648387  0.66469349  0.74531641  1
  In  In79  1  0.16579749  0.16543171  0.00219922  1
  In  In80  1  0.49862007  0.83503576  0.00687468  1
  In  In81  1  0.00256005  0.66579727  0.75533099  1
  In  In82  1  0.16219633  0.16528834  0.50044290  1
  In  In83  1  0.00355128  0.00533661  0.74893879  1
  In  In84  1  0.34146581  0.33902964  0.24522115  1
  In  In85  1  0.33715041  -0.00229524  0.24824166  1
  Cu  Cu86  1  0.66959319  0.33283251  0.50209410  1
  Cu  Cu87  1  0.49947860  0.16795747  0.74940657  1
  Cu  Cu88  1  0.16582738  0.16340377  0.24329989  1
  Cu  Cu89  1  -0.00434460  0.33134259  0.49904406  1
  Cu  Cu90  1  0.83355653  0.83091487  0.75440079  1
  Cu  Cu91  1  0.83847849  0.82743127  0.25361308  1
  Cu  Cu92  1  0.16156569  0.82499520  0.24974933  1
  Cu  Cu93  1  -0.00360079  0.34092805  -0.00294242  1
  Cu  Cu94  1  0.16559681  0.49915307  0.75186392  1
  Cu  Cu95  1  0.16166041  0.51073881  0.25388420  1
  Cu  Cu96  1  0.17130828  0.16828541  0.74618910  1
  Cu  Cu97  1  0.31986924  0.66657762  0.00345005  1
  Cu  Cu98  1  0.49897989  0.49627377  0.25242189  1
  Cu  Cu99  1  0.33566272  0.33281070  0.50298978  1
  Cu  Cu100  1  0.49701520  0.83057458  0.24673183  1
  Cu  Cu101  1  0.33594574  0.00179523  0.00122963  1
  Cu  Cu102  1  0.66735896  0.00371181  0.49232093  1
  Cu  Cu103  1  0.82865739  0.17791199  0.74644428  1
  Cu  Cu104  1  0.00117265  -0.00501806  0.00798615  1
  Cu  Cu105  1  0.00117449  0.66502381  0.49604541  1
  Cu  Cu106  1  -0.00648766  -0.00697416  0.49544969  1
  Cu  Cu107  1  -0.00333836  0.66974969  0.00528669  1
  Cu  Cu108  1  0.50258348  0.83531953  0.74762783  1
  Cu  Cu109  1  0.83434585  0.50166904  0.24813342  1
  Cu  Cu110  1  0.83207236  0.50046041  0.74121407  1
  Cu  Cu111  1  0.66844416  0.66717942  0.00238810  1
  Cu  Cu112  1  0.33419838  -0.00125442  0.50065941  1
  Cu  Cu113  1  0.50624599  0.49565217  0.75169364  1
  Cu  Cu114  1  0.67139423  0.66956084  0.49468715  1
  Se  Se115  1  0.07149613  0.08464572  0.06759523  1
  Se  Se116  1  0.07141800  0.07321674  0.56026213  1
  Se  Se117  1  0.08261507  0.42218489  0.04929952  1
  Se  Se118  1  0.08418514  0.41080922  0.55168764  1
  Se  Se119  1  0.08320482  0.75237902  0.05708983  1
  Se  Se120  1  0.08237787  0.74832273  0.55193384  1
  Se  Se121  1  0.42573297  0.08355971  0.04778077  1
  Se  Se122  1  0.41759805  0.08565944  0.54932438  1
  Se  Se123  1  0.41234642  0.40704469  0.06296680  1
  Se  Se124  1  0.41699990  0.41194354  0.56340886  1
  Se  Se125  1  0.40940428  0.73809731  0.06269790  1
  Se  Se126  1  0.40871459  0.74204682  0.55705928  1
  Se  Se127  1  0.74853846  0.07439668  0.07315308  1
  Se  Se128  1  0.75216196  0.08464835  0.54819584  1
  Se  Se129  1  0.74271013  0.42343964  0.04535803  1
  Se  Se130  1  0.75116050  0.42076081  0.55244064  1
  Se  Se131  1  0.75260454  0.74855662  0.05568888  1
  Se  Se132  1  0.75186796  0.75363593  0.55073848  1
  Se  Se133  1  0.26047723  0.25904147  0.05489032  1
  Se  Se134  1  0.25153396  0.25314881  0.56232127  1
  Se  Se135  1  0.24144522  0.58074178  0.05754825  1
  Se  Se136  1  0.25316978  0.57723530  0.54712289  1
  Se  Se137  1  0.24783934  0.91816679  0.04840246  1
  Se  Se138  1  0.24959001  0.91561554  0.55100487  1
  Se  Se139  1  0.60149141  0.24383623  0.05782035  1
  Se  Se140  1  0.58166840  0.24955213  0.55082586  1
  Se  Se141  1  0.58477726  0.58658396  0.05918439  1
  Se  Se142  1  0.58927649  0.59247997  0.55636475  1
  Se  Se143  1  0.59315754  0.91737697  0.06513067  1
  Se  Se144  1  0.59183971  0.92696685  0.56109461  1
  Se  Se145  1  0.91776759  0.26128536  0.05846352  1
  Se  Se146  1  0.91211602  0.24744478  0.55100235  1
  Se  Se147  1  0.91306694  0.58229124  0.05398155  1
  Se  Se148  1  0.91705836  0.58098721  0.54929136  1
  Se  Se149  1  0.91516281  0.91511485  0.06053193  1
  Se  Se150  1  0.91201002  0.90952867  0.55097873  1
  Se  Se151  1  0.07308625  0.25097196  0.43533323  1
  Se  Se152  1  0.07518866  0.25501457  0.94046304  1
  Se  Se153  1  0.08571030  0.57959500  0.44533592  1
  Se  Se154  1  0.08046811  0.58871341  0.94848364  1
  Se  Se155  1  0.08386751  0.91172056  0.44853102  1
  Se  Se156  1  0.08494690  0.91993776  0.94865425  1
  Se  Se157  1  0.41935462  0.25040204  0.45038897  1
  Se  Se158  1  0.42987521  0.23959949  0.94456757  1
  Se  Se159  1  0.41231920  0.59780707  0.44326388  1
  Se  Se160  1  0.40369070  0.58851659  0.94388777  1
  Se  Se161  1  0.41491943  0.92656258  0.43410430  1
  Se  Se162  1  0.41247953  0.91936394  0.93855825  1
  Se  Se163  1  0.75105449  0.24954851  0.44632905  1
  Se  Se164  1  0.75268341  0.25568800  0.93467696  1
  Se  Se165  1  0.75307034  0.58135487  0.44459062  1
  Se  Se166  1  0.74794545  0.58330723  0.94590283  1
  Se  Se167  1  0.75020223  0.91218865  0.44802351  1
  Se  Se168  1  0.75569527  0.90995621  0.95706057  1
  Se  Se169  1  0.25255259  0.07669161  0.43713393  1
  Se  Se170  1  0.25671058  0.08148508  0.93831991  1
  Se  Se171  1  0.24932273  0.41566398  0.45314483  1
  Se  Se172  1  0.24433029  0.41595210  0.94902548  1
  Se  Se173  1  0.24245618  0.75524581  0.44893753  1
  Se  Se174  1  0.24708118  0.75588426  0.94810479  1
  Se  Se175  1  0.58131030  0.08933686  0.44592570  1
  Se  Se176  1  0.61314102  0.05770603  0.94625501  1
  Se  Se177  1  0.59432711  0.41449405  0.43768228  1
  Se  Se178  1  0.58808900  0.41063337  0.93309433  1
  Se  Se179  1  0.58763704  0.74994281  0.43758062  1
  Se  Se180  1  0.58423860  0.74302505  0.94225995  1
  Se  Se181  1  0.91307429  0.08078356  0.44530229  1
  Se  Se182  1  0.92386793  0.07679609  0.94575446  1
  Se  Se183  1  0.91350240  0.41740309  0.44684481  1
  Se  Se184  1  0.91245256  0.42338380  0.94407216  1
  Se  Se185  1  0.91436628  0.74810764  0.44560928  1
  Se  Se186  1  0.91471238  0.75342832  0.94963338  1
  Se  Se187  1  0.24387400  0.24432597  0.30258713  1
  Se  Se188  1  0.25030705  0.25348249  0.80281912  1
  Se  Se189  1  0.25002233  0.58794930  0.30712135  1
  Se  Se190  1  0.24461842  0.58246083  0.81146718  1
  Se  Se191  1  0.24418512  0.90939346  0.30712092  1
  Se  Se192  1  0.25350123  0.92204476  0.79789379  1
  Se  Se193  1  0.59140585  0.25424748  0.30204720  1
  Se  Se194  1  0.58542095  0.24966972  0.80156020  1
  Se  Se195  1  0.58291251  0.58515792  0.30015878  1
  Se  Se196  1  0.58847700  0.58401552  0.79982199  1
  Se  Se197  1  0.58072694  0.91219620  0.30009992  1
  Se  Se198  1  0.57508841  0.91111187  0.81643977  1
  Se  Se199  1  0.90568870  0.24483879  0.31314438  1
  Se  Se200  1  0.92015643  0.25673378  0.79560439  1
  Se  Se201  1  0.91773313  0.58386531  0.30194900  1
  Se  Se202  1  0.90722912  0.57675573  0.80953040  1
  Se  Se203  1  0.91668102  0.91446052  0.30901983  1
  Se  Se204  1  0.91101805  0.91624817  0.81147621  1
  Se  Se205  1  0.08510633  0.07891167  0.29639382  1
  Se  Se206  1  0.09108071  0.09462157  0.81264396  1
  Se  Se207  1  0.08804684  0.42079343  0.31169855  1
  Se  Se208  1  0.07821195  0.41746547  0.80311633  1
  Se  Se209  1  0.07837314  0.74572594  0.30629391  1
  Se  Se210  1  0.09148340  0.76476318  0.80653619  1
  Se  Se211  1  0.42167365  0.09624098  0.30424269  1
  Se  Se212  1  0.41777626  0.08234360  0.80218711  1
  Se  Se213  1  0.41960161  0.42338386  0.31859320  1
  Se  Se214  1  0.41543338  0.41707129  0.80119782  1
  Se  Se215  1  0.41117419  0.75071419  0.29982679  1
  Se  Se216  1  0.42421530  0.75314599  0.81069936  1
  Se  Se217  1  0.72742628  0.06216524  0.31015951  1
  Se  Se218  1  0.75791153  0.09748491  0.81319360  1
  Se  Se219  1  0.74950171  0.41634519  0.29869409  1
  Se  Se220  1  0.75088823  0.41714776  0.79781863  1
  Se  Se221  1  0.74940925  0.74444787  0.30336978  1
  Se  Se222  1  0.74838074  0.74943136  0.80674827  1
  Se  Se223  1  0.24887531  0.08799331  0.18309941  1
  Se  Se224  1  0.25261929  0.08235368  0.69509304  1
  Se  Se225  1  0.23818439  0.42532480  0.19390674  1
  Se  Se226  1  0.25168018  0.41565333  0.70094524  1
  Se  Se227  1  0.24968931  0.74665576  0.19675020  1
  Se  Se228  1  0.24174614  0.75316061  0.69033329  1
  Se  Se229  1  0.58765853  0.07891301  0.20584760  1
  Se  Se230  1  0.58162031  0.08829490  0.68871725  1
  Se  Se231  1  0.58288957  0.41624862  0.19727102  1
  Se  Se232  1  0.58961361  0.41326554  0.69742744  1
  Se  Se233  1  0.58395004  0.74520562  0.19851801  1
  Se  Se234  1  0.58982773  0.75022161  0.70207891  1
  Se  Se235  1  0.92042704  0.07743546  0.21220674  1
  Se  Se236  1  0.90449812  0.08801262  0.68991829  1
  Se  Se237  1  0.91017150  0.42101066  0.18430143  1
  Se  Se238  1  0.91958768  0.41859373  0.69067711  1
  Se  Se239  1  0.91865854  0.74325120  0.19813937  1
  Se  Se240  1  0.91171761  0.75251953  0.69219210  1
  Se  Se241  1  0.08512949  0.24774312  0.18766830  1
  Se  Se242  1  0.08181846  0.24945373  0.69750168  1
  Se  Se243  1  0.07540573  0.58764732  0.19900093  1
  Se  Se244  1  0.09021208  0.58076890  0.68909142  1
  Se  Se245  1  0.08068063  0.91365537  0.19876982  1
  Se  Se246  1  0.08822637  0.90966212  0.69157437  1
  Se  Se247  1  0.43000356  0.24327932  0.19227376  1
  Se  Se248  1  0.41515592  0.25159444  0.69613533  1
  Se  Se249  1  0.41052521  0.57871438  0.20287925  1
  Se  Se250  1  0.42853127  0.57353366  0.68649167  1
  Se  Se251  1  0.42326650  0.91141706  0.18186914  1
  Se  Se252  1  0.41610922  0.91581299  0.69664284  1
  Se  Se253  1  0.77945885  0.23525502  0.19525342  1
  Se  Se254  1  0.74579189  0.25746363  0.69098296  1
  Se  Se255  1  0.74771084  0.58446354  0.19603259  1
  Se  Se256  1  0.74981518  0.58862201  0.69190944  1
  Se  Se257  1  0.75353714  0.91028674  0.20138678  1
  Se  Se258  1  0.75397938  0.91431726  0.69512221  1
