# generated using pymatgen
data_In86Cu29Se144
_symmetry_space_group_name_H-M   'P 1'
_cell_length_a   17.59063551
_cell_length_b   17.58188450
_cell_length_c   23.45069262
_cell_angle_alpha   90.02034078
_cell_angle_beta   89.97037545
_cell_angle_gamma   90.00330851
_symmetry_Int_Tables_number   1
_chemical_formula_structural   In86Cu29Se144
_chemical_formula_sum   'In86 Cu29 Se144'
_cell_volume   7252.74720940
_cell_formula_units_Z   1
loop_
 _symmetry_equiv_pos_site_id
 _symmetry_equiv_pos_as_xyz
  1  'x, y, z'
loop_
 _atom_site_type_symbol
 _atom_site_label
 _atom_site_symmetry_multiplicity
 _atom_site_fract_x
 _atom_site_fract_y
 _atom_site_fract_z
 _atom_site_occupancy
  In  In0  1  -0.00824627  0.17818211  0.11917485  1
  In  In1  1  0.00688047  0.16025480  0.63564530  1
  In  In2  1  0.00180254  0.50999363  0.12155923  1
  In  In3  1  -0.01026480  0.51763721  0.63887977  1
  In  In4  1  -0.01512404  0.82726433  0.11631294  1
  In  In5  1  0.00376849  0.82671350  0.63127176  1
  In  In6  1  0.33111869  0.15755757  0.12797568  1
  In  In7  1  0.32037049  0.16744491  0.62503731  1
  In  In8  1  0.32778376  0.52124706  0.12575974  1
  In  In9  1  0.33810178  0.49147438  0.62127022  1
  In  In10  1  0.34343156  0.82033087  0.12572167  1
  In  In11  1  0.33598136  0.84804217  0.62543417  1
  In  In12  1  0.66860033  0.15529925  0.12471202  1
  In  In13  1  0.66243771  0.16936615  0.63891775  1
  In  In14  1  0.68024478  0.49666800  0.13603142  1
  In  In15  1  0.66781650  0.50229511  0.62386330  1
  In  In16  1  0.66644691  0.83377263  0.12463652  1
  In  In17  1  0.67147455  0.82859926  0.63374409  1
  In  In18  1  0.17299832  -0.01336212  0.38499951  1
  In  In19  1  0.17031647  0.00068569  0.86853152  1
  In  In20  1  0.15596308  0.32930662  0.38160577  1
  In  In21  1  0.16217195  0.35271585  0.87087034  1
  In  In22  1  0.17883142  0.67272344  0.36363016  1
  In  In23  1  0.15087135  0.66415608  0.87096901  1
  In  In24  1  0.49874476  -0.00468245  0.36852928  1
  In  In25  1  0.49231095  -0.00512885  0.86565820  1
  In  In26  1  0.52166995  0.33780620  0.37085175  1
  In  In27  1  0.50800858  0.31923383  0.87001774  1
  In  In28  1  0.50022946  0.66379927  0.37388349  1
  In  In29  1  0.51769097  0.65985006  0.87997875  1
  In  In30  1  0.82444978  0.00518585  0.37311570  1
  In  In31  1  0.83358576  -0.00115328  0.87674130  1
  In  In32  1  0.83518398  0.35333298  0.37349035  1
  In  In33  1  0.83434227  0.33508578  0.87222613  1
  In  In34  1  0.81604011  0.63234511  0.34306729  1
  In  In35  1  0.83120070  0.66662816  0.87962461  1
  In  In36  1  0.00142882  0.18059977  0.38049597  1
  In  In37  1  -0.00888442  0.16000995  0.86748791  1
  In  In38  1  -0.00629393  0.50393078  0.37083938  1
  In  In39  1  -0.00529158  0.49832953  0.87244348  1
  In  In40  1  0.01056229  0.82669529  0.38007647  1
  In  In41  1  -0.00812285  0.82005103  0.86995822  1
  In  In42  1  0.33592698  0.15228740  0.37637770  1
  In  In43  1  0.34154584  0.14917706  0.87371162  1
  In  In44  1  0.33452034  0.52167838  0.37137437  1
  In  In45  1  0.32749565  0.49985967  0.88247120  1
  In  In46  1  0.32804706  0.82541502  0.36858354  1
  In  In47  1  0.33570884  0.84849706  0.88187150  1
  In  In48  1  0.66775347  0.16331994  0.36778646  1
  In  In49  1  0.67180566  0.17901508  0.86311482  1
  In  In50  1  0.67343909  0.50088423  0.37390873  1
  In  In51  1  0.67830144  0.50951523  0.87011964  1
  In  In52  1  0.66489499  0.82568615  0.36996180  1
  In  In53  1  0.66754609  0.83149484  0.87964964  1
  In  In54  1  0.17682455  -0.00137695  0.12752917  1
  In  In55  1  0.16600767  -0.00069202  0.62849141  1
  In  In56  1  0.15064143  0.34149875  0.12443769  1
  In  In57  1  0.17176843  0.32364292  0.62648485  1
  In  In58  1  0.17561229  0.64827427  0.14293854  1
  In  In59  1  0.14704961  0.66760100  0.62516077  1
  In  In60  1  0.50306671  -0.01193314  0.12480642  1
  In  In61  1  0.50022368  0.00308870  0.64141456  1
  In  In62  1  0.51024717  0.34958070  0.12321310  1
  In  In63  1  0.49979718  0.34957369  0.62317494  1
  In  In64  1  0.49329674  0.68194068  0.12877442  1
  In  In65  1  0.51364945  0.66101445  0.62518843  1
  In  In66  1  0.82053660  -0.01156806  0.11001647  1
  In  In67  1  0.82866893  0.00404186  0.63743612  1
  In  In68  1  0.82514990  0.32853987  0.11549130  1
  In  In69  1  0.82349843  0.34892905  0.63166671  1
  In  In70  1  0.83202004  0.66660475  0.12768379  1
  In  In71  1  0.83512313  0.66221597  0.62704502  1
  In  In72  1  0.33703939  0.32686722  0.74828900  1
  In  In73  1  0.33733292  0.33365744  0.24213316  1
  In  In74  1  0.50191635  0.16136089  -0.00304787  1
  In  In75  1  0.15835343  0.16606440  -0.01013766  1
  In  In76  1  -0.00333768  -0.00020616  0.25030004  1
  In  In77  1  -0.00427784  0.33757943  0.25197534  1
  In  In78  1  0.33052366  0.67143604  0.75725478  1
  In  In79  1  0.83919185  0.82336560  0.50411517  1
  In  In80  1  0.16651679  0.82448789  0.00138424  1
  In  In81  1  0.49924441  0.50600524  0.00484274  1
  In  In82  1  0.49774495  0.17198177  0.50685846  1
  In  In83  1  0.16705868  0.49949350  0.50182577  1
  In  In84  1  0.83726399  0.16871939  0.50528089  1
  In  In85  1  0.50000421  0.82849899  0.49380558  1
  Cu  Cu86  1  0.50508709  0.83182340  0.75288295  1
  Cu  Cu87  1  0.17069212  0.15914779  0.25538472  1
  Cu  Cu88  1  0.83080215  0.83277777  0.75566014  1
  Cu  Cu89  1  0.16581060  0.83728428  0.75116038  1
  Cu  Cu90  1  0.82403825  0.16197686  0.24334608  1
  Cu  Cu91  1  0.67594433  0.34375507  0.49838153  1
  Cu  Cu92  1  0.00074193  0.33627972  0.50487844  1
  Cu  Cu93  1  0.33060411  0.67353402  0.49425741  1
  Cu  Cu94  1  0.67091482  0.66935055  0.00471879  1
  Cu  Cu95  1  0.50601433  0.49798830  0.75058401  1
  Cu  Cu96  1  0.50611838  0.50336921  0.24968670  1
  Cu  Cu97  1  0.83036763  0.50120145  0.75395467  1
  Cu  Cu98  1  0.00676513  0.00238389  0.50907712  1
  Cu  Cu99  1  0.00067130  -0.00011199  -0.00589867  1
  Cu  Cu100  1  0.50428118  0.16116378  0.25125198  1
  Cu  Cu101  1  0.83163436  0.83517095  0.24232603  1
  Cu  Cu102  1  0.16774288  0.83659078  0.25100723  1
  Cu  Cu103  1  0.66003631  -0.00460268  0.50339056  1
  Cu  Cu104  1  0.31999848  0.33164306  -0.00011930  1
  Cu  Cu105  1  -0.00544626  0.66134667  -0.00185020  1
  Cu  Cu106  1  0.67145115  0.33863823  -0.00580923  1
  Cu  Cu107  1  0.50362825  0.83793663  0.24901285  1
  Cu  Cu108  1  0.31962678  0.00121930  0.50216068  1
  Cu  Cu109  1  0.16746994  0.16477270  0.75109121  1
  Cu  Cu110  1  0.66959777  0.00108318  -0.00334397  1
  Cu  Cu111  1  -0.01052733  0.34280279  -0.00211168  1
  Cu  Cu112  1  -0.00259827  0.66585688  0.50035977  1
  Cu  Cu113  1  0.83806454  0.16970803  0.75263324  1
  Cu  Cu114  1  0.33776275  0.33367272  0.50037681  1
  Se  Se115  1  0.07710404  0.07550765  0.06013679  1
  Se  Se116  1  0.08768008  0.08891087  0.55954171  1
  Se  Se117  1  0.07779949  0.42099260  0.05077075  1
  Se  Se118  1  0.07875228  0.41677984  0.56720906  1
  Se  Se119  1  0.07827471  0.73497944  0.06162625  1
  Se  Se120  1  0.07819371  0.75331101  0.55146284  1
  Se  Se121  1  0.41022761  0.07422724  0.05636514  1
  Se  Se122  1  0.41137861  0.07192652  0.56061020  1
  Se  Se123  1  0.40274344  0.41114252  0.05950395  1
  Se  Se124  1  0.42133530  0.42164594  0.54646816  1
  Se  Se125  1  0.41824809  0.74748327  0.04850187  1
  Se  Se126  1  0.41116285  0.74469367  0.56138990  1
  Se  Se127  1  0.75137785  0.08971455  0.04695407  1
  Se  Se128  1  0.74078411  0.07868692  0.56028098  1
  Se  Se129  1  0.74625142  0.42312017  0.05266329  1
  Se  Se130  1  0.75785392  0.42638496  0.55206448  1
  Se  Se131  1  0.75443756  0.75382560  0.05717600  1
  Se  Se132  1  0.73871902  0.73949406  0.55796820  1
  Se  Se133  1  0.24534621  0.25031527  0.06201428  1
  Se  Se134  1  0.25159702  0.25115730  0.54997691  1
  Se  Se135  1  0.24125859  0.58975746  0.05491167  1
  Se  Se136  1  0.25553346  0.59414594  0.56136157  1
  Se  Se137  1  0.25808542  0.91660009  0.05752554  1
  Se  Se138  1  0.24278821  0.91329349  0.55553635  1
  Se  Se139  1  0.58921567  0.25913569  0.05423338  1
  Se  Se140  1  0.59799195  0.26031435  0.55854846  1
  Se  Se141  1  0.59149843  0.58867362  0.06706342  1
  Se  Se142  1  0.57379702  0.56992512  0.55399642  1
  Se  Se143  1  0.58792845  0.91741224  0.05150340  1
  Se  Se144  1  0.58136828  0.91705899  0.56362816  1
  Se  Se145  1  0.91080130  0.24938079  0.04523535  1
  Se  Se146  1  0.92248364  0.25789939  0.56791847  1
  Se  Se147  1  0.90924694  0.58259395  0.05431376  1
  Se  Se148  1  0.91755676  0.58213704  0.55543592  1
  Se  Se149  1  0.91590504  0.91536332  0.04522668  1
  Se  Se150  1  0.91788152  0.92570850  0.56387461  1
  Se  Se151  1  0.08393194  0.24831209  0.45667871  1
  Se  Se152  1  0.07081425  0.26241309  0.93633555  1
  Se  Se153  1  0.08319531  0.59060561  0.43865881  1
  Se  Se154  1  0.07874176  0.58039250  0.94385270  1
  Se  Se155  1  0.08051574  0.91420112  0.45213773  1
  Se  Se156  1  0.08124693  0.91718089  0.93755030  1
  Se  Se157  1  0.41692614  0.25738359  0.43556802  1
  Se  Se158  1  0.40550399  0.25655587  0.94198708  1
  Se  Se159  1  0.41686666  0.58785695  0.44766710  1
  Se  Se160  1  0.40921858  0.59459249  0.94448876  1
  Se  Se161  1  0.40549798  0.92442295  0.44220319  1
  Se  Se162  1  0.42725128  0.92074705  0.94736855  1
  Se  Se163  1  0.74827282  0.25308614  0.43975721  1
  Se  Se164  1  0.74935820  0.25082641  0.94083623  1
  Se  Se165  1  0.76625516  0.58054173  0.43722340  1
  Se  Se166  1  0.74900022  0.58244234  0.94992042  1
  Se  Se167  1  0.74478176  0.91840600  0.44562771  1
  Se  Se168  1  0.75381119  0.91436085  0.94671726  1
  Se  Se169  1  0.24321015  0.08876872  0.44756403  1
  Se  Se170  1  0.25764063  0.07048889  0.94723950  1
  Se  Se171  1  0.25930850  0.41417815  0.43743410  1
  Se  Se172  1  0.24099934  0.42035240  0.95002261  1
  Se  Se173  1  0.24437074  0.75387105  0.44331745  1
  Se  Se174  1  0.25256745  0.74143987  0.93377225  1
  Se  Se175  1  0.58452373  0.07946764  0.44324572  1
  Se  Se176  1  0.59325738  0.08062100  0.93315691  1
  Se  Se177  1  0.58683296  0.42171766  0.44610822  1
  Se  Se178  1  0.58315257  0.41549546  0.93794219  1
  Se  Se179  1  0.59750189  0.73667740  0.44527358  1
  Se  Se180  1  0.58512407  0.74944367  0.95136778  1
  Se  Se181  1  0.92482106  0.07417492  0.44343353  1
  Se  Se182  1  0.91667610  0.08603251  0.94510456  1
  Se  Se183  1  0.92462141  0.41894469  0.44617541  1
  Se  Se184  1  0.90604308  0.42438004  0.94389152  1
  Se  Se185  1  0.91558966  0.73639276  0.43460542  1
  Se  Se186  1  0.91452283  0.75147428  0.94870673  1
  Se  Se187  1  0.24815217  0.24802579  0.31051799  1
  Se  Se188  1  0.24617216  0.24303299  0.81505872  1
  Se  Se189  1  0.25226073  0.58359672  0.29541010  1
  Se  Se190  1  0.24183611  0.57211916  0.80709816  1
  Se  Se191  1  0.24991831  0.92030356  0.30485318  1
  Se  Se192  1  0.25478170  0.91503659  0.80335290  1
  Se  Se193  1  0.58832425  0.24788529  0.29914827  1
  Se  Se194  1  0.57872107  0.24640459  0.79323839  1
  Se  Se195  1  0.58697514  0.58518595  0.30623303  1
  Se  Se196  1  0.58809538  0.58512600  0.80126611  1
  Se  Se197  1  0.58913246  0.91761422  0.30410511  1
  Se  Se198  1  0.58854913  0.91404145  0.80690372  1
  Se  Se199  1  0.90351399  0.23979878  0.30696351  1
  Se  Se200  1  0.92135835  0.25665853  0.80216967  1
  Se  Se201  1  0.93632484  0.58519655  0.28996594  1
  Se  Se202  1  0.91216731  0.58728589  0.80682223  1
  Se  Se203  1  0.90906791  0.90827741  0.31159034  1
  Se  Se204  1  0.91690406  0.91600135  0.80667747  1
  Se  Se205  1  0.08429627  0.08665685  0.31544618  1
  Se  Se206  1  0.08298915  0.08073895  0.80301668  1
  Se  Se207  1  0.09530767  0.42229397  0.30775651  1
  Se  Se208  1  0.07466264  0.41789714  0.79963202  1
  Se  Se209  1  0.08347518  0.75252477  0.30215213  1
  Se  Se210  1  0.08077685  0.74934988  0.79779554  1
  Se  Se211  1  0.41642863  0.08059913  0.30139838  1
  Se  Se212  1  0.42566157  0.09082372  0.79768029  1
  Se  Se213  1  0.42279193  0.42158366  0.30838057  1
  Se  Se214  1  0.42210367  0.42286907  0.81180205  1
  Se  Se215  1  0.42340210  0.75210973  0.30520230  1
  Se  Se216  1  0.42708360  0.75378453  0.81626660  1
  Se  Se217  1  0.74456505  0.07626516  0.29803481  1
  Se  Se218  1  0.75592473  0.08413747  0.80513820  1
  Se  Se219  1  0.74683201  0.41366944  0.30137402  1
  Se  Se220  1  0.74592595  0.41349871  0.80284952  1
  Se  Se221  1  0.75115945  0.75194502  0.29894166  1
  Se  Se222  1  0.74819024  0.74799871  0.80895946  1
  Se  Se223  1  0.25380740  0.07819552  0.20134371  1
  Se  Se224  1  0.25168867  0.08154365  0.69811555  1
  Se  Se225  1  0.24158590  0.42344797  0.19019824  1
  Se  Se226  1  0.24654878  0.42306345  0.69373796  1
  Se  Se227  1  0.25105177  0.75256108  0.19722602  1
  Se  Se228  1  0.24518220  0.75644663  0.68898954  1
  Se  Se229  1  0.58197777  0.07730142  0.19251632  1
  Se  Se230  1  0.59946117  0.07000009  0.70280531  1
  Se  Se231  1  0.58868987  0.41521421  0.20101297  1
  Se  Se232  1  0.58814313  0.41586463  0.69550568  1
  Se  Se233  1  0.58625857  0.75249790  0.19692303  1
  Se  Se234  1  0.58360497  0.74579356  0.69861767  1
  Se  Se235  1  0.90925928  0.08531155  0.18454440  1
  Se  Se236  1  0.91971616  0.08100961  0.70228416  1
  Se  Se237  1  0.91028165  0.41702158  0.18426491  1
  Se  Se238  1  0.91603956  0.41908116  0.70056660  1
  Se  Se239  1  0.91887069  0.75112973  0.19561676  1
  Se  Se240  1  0.91089757  0.75128469  0.69581162  1
  Se  Se241  1  0.08860661  0.23831418  0.19590798  1
  Se  Se242  1  0.08700454  0.25244938  0.69978050  1
  Se  Se243  1  0.06952236  0.58402725  0.20288173  1
  Se  Se244  1  0.08825217  0.58537941  0.70271726  1
  Se  Se245  1  0.08430485  0.90952462  0.18773058  1
  Se  Se246  1  0.08044548  0.91853183  0.69706559  1
  Se  Se247  1  0.43241485  0.24230813  0.18515909  1
  Se  Se248  1  0.42651036  0.24279709  0.68379542  1
  Se  Se249  1  0.42205435  0.58473074  0.19566015  1
  Se  Se250  1  0.41874551  0.57752670  0.69483248  1
  Se  Se251  1  0.41440634  0.91411863  0.19491382  1
  Se  Se252  1  0.41579705  0.91389950  0.70350480  1
  Se  Se253  1  0.74634509  0.24887027  0.18891326  1
  Se  Se254  1  0.75462428  0.25221648  0.69830898  1
  Se  Se255  1  0.74777011  0.59332851  0.20102600  1
  Se  Se256  1  0.74919681  0.58280284  0.69569637  1
  Se  Se257  1  0.74938074  0.92201546  0.19272963  1
  Se  Se258  1  0.74715670  0.91626999  0.70190118  1
