# generated using pymatgen
data_In86Cu29Se144
_symmetry_space_group_name_H-M   'P 1'
_cell_length_a   17.57557296
_cell_length_b   17.57504928
_cell_length_c   23.43655893
_cell_angle_alpha   90.01683470
_cell_angle_beta   89.97596842
_cell_angle_gamma   90.01056289
_symmetry_Int_Tables_number   1
_chemical_formula_structural   In86Cu29Se144
_chemical_formula_sum   'In86 Cu29 Se144'
_cell_volume   7239.35419997
_cell_formula_units_Z   1
loop_
 _symmetry_equiv_pos_site_id
 _symmetry_equiv_pos_as_xyz
  1  'x, y, z'
loop_
 _atom_site_type_symbol
 _atom_site_label
 _atom_site_symmetry_multiplicity
 _atom_site_fract_x
 _atom_site_fract_y
 _atom_site_fract_z
 _atom_site_occupancy
  In  In0  1  -0.00304411  0.16524110  0.12448779  1
  In  In1  1  0.01339966  0.17607881  0.60503710  1
  In  In2  1  -0.00334791  0.49680223  0.12473138  1
  In  In3  1  0.00019254  0.49463771  0.63425738  1
  In  In4  1  -0.00489409  0.83525072  0.11980345  1
  In  In5  1  -0.00521865  0.82211732  0.62420075  1
  In  In6  1  0.31604908  0.16844951  0.12631453  1
  In  In7  1  0.32302985  0.17360461  0.63407968  1
  In  In8  1  0.33121137  0.51249044  0.12166081  1
  In  In9  1  0.33263475  0.48799499  0.62919224  1
  In  In10  1  0.32932428  0.83578881  0.11248504  1
  In  In11  1  0.34166490  0.84434894  0.62634430  1
  In  In12  1  0.68411380  0.15709984  0.13230811  1
  In  In13  1  0.66913934  0.15092524  0.62417211  1
  In  In14  1  0.67275787  0.48560452  0.12936033  1
  In  In15  1  0.66232160  0.50990128  0.62388703  1
  In  In16  1  0.67815252  0.84464108  0.11341684  1
  In  In17  1  0.66756718  0.85033027  0.63211467  1
  In  In18  1  0.13365815  0.02082917  0.40442482  1
  In  In19  1  0.16311123  -0.00568556  0.88639636  1
  In  In20  1  0.15065384  0.32523100  0.37462222  1
  In  In21  1  0.16344799  0.33112184  0.87498272  1
  In  In22  1  0.15782820  0.67547434  0.37321481  1
  In  In23  1  0.15394531  0.67753102  0.88212183  1
  In  In24  1  0.49759964  -0.01056128  0.37448917  1
  In  In25  1  0.49456051  -0.01559597  0.85639473  1
  In  In26  1  0.51712703  0.32568159  0.38001694  1
  In  In27  1  0.49050635  0.34339028  0.86740126  1
  In  In28  1  0.49254281  0.67691396  0.38628467  1
  In  In29  1  0.51219078  0.67191199  0.87253749  1
  In  In30  1  0.85141518  0.01464066  0.36194288  1
  In  In31  1  0.83391776  0.00469863  0.88341902  1
  In  In32  1  0.82873746  0.32870098  0.37063362  1
  In  In33  1  0.84762603  0.32403274  0.88493168  1
  In  In34  1  0.84222717  0.65587644  0.36727989  1
  In  In35  1  0.84022239  0.65740278  0.88483548  1
  In  In36  1  -0.00441948  0.16682003  0.38110764  1
  In  In37  1  -0.01145350  0.16577778  0.88710435  1
  In  In38  1  -0.01726552  0.48848814  0.35184860  1
  In  In39  1  0.00375142  0.49813219  0.87926615  1
  In  In40  1  0.00345523  0.83751915  0.36622251  1
  In  In41  1  0.00455840  0.83482854  0.88376548  1
  In  In42  1  0.32326942  0.15370486  0.37865156  1
  In  In43  1  0.32461949  0.15730986  0.86439886  1
  In  In44  1  0.33238893  0.51241290  0.38012047  1
  In  In45  1  0.33084636  0.48359009  0.86669609  1
  In  In46  1  0.32319924  0.84234356  0.38492407  1
  In  In47  1  0.33011009  0.84024042  0.87513947  1
  In  In48  1  0.68169039  0.17201743  0.36942768  1
  In  In49  1  0.68427532  0.16098275  0.87883863  1
  In  In50  1  0.67031975  0.48767344  0.37566811  1
  In  In51  1  0.66832605  0.50917203  0.87778290  1
  In  In52  1  0.65658857  0.83740633  0.37488970  1
  In  In53  1  0.66030655  0.84079868  0.87831453  1
  In  In54  1  0.13768804  -0.01836842  0.09927658  1
  In  In55  1  0.17216158  0.01041067  0.62087325  1
  In  In56  1  0.14119876  0.31099916  0.11224140  1
  In  In57  1  0.16329154  0.32933442  0.62845721  1
  In  In58  1  0.15941527  0.65746627  0.11455783  1
  In  In59  1  0.14874142  0.66659939  0.63069198  1
  In  In60  1  0.51335227  0.00066582  0.12436093  1
  In  In61  1  0.50563223  -0.01313641  0.63993532  1
  In  In62  1  0.50861451  0.34659445  0.12945154  1
  In  In63  1  0.48786078  0.33470753  0.62505687  1
  In  In64  1  0.48843039  0.67164750  0.12112010  1
  In  In65  1  0.49915524  0.66968274  0.62001383  1
  In  In66  1  0.83760938  -0.00173033  0.11912175  1
  In  In67  1  0.83317866  0.00070629  0.62178942  1
  In  In68  1  0.84187312  0.33485795  0.12530302  1
  In  In69  1  0.85046778  0.32771557  0.62458779  1
  In  In70  1  0.83936376  0.67294745  0.11901839  1
  In  In71  1  0.84355848  0.67842360  0.63293511  1
  In  In72  1  0.33120366  0.66849088  0.75483966  1
  In  In73  1  0.49732511  0.16389959  0.50489602  1
  In  In74  1  0.33493410  0.33728738  0.24730957  1
  In  In75  1  0.50114238  0.50654639  -0.00557256  1
  In  In76  1  0.50111788  0.16439759  -0.00023064  1
  In  In77  1  0.32644229  -0.00045603  0.25547246  1
  In  In78  1  0.67189042  0.67111326  0.24824726  1
  In  In79  1  0.66591866  0.33009150  0.75098184  1
  In  In80  1  0.83261059  0.83890247  0.50419419  1
  In  In81  1  0.32681372  0.67029766  0.25197632  1
  In  In82  1  0.16370159  0.50249283  0.50173729  1
  In  In83  1  0.67129528  0.66776148  0.75329117  1
  In  In84  1  -0.00050546  -0.00059073  0.75202896  1
  In  In85  1  0.83319423  0.49640486  0.49157797  1
  Cu  Cu86  1  0.83464089  0.83929740  0.24031335  1
  Cu  Cu87  1  0.67061199  0.66967972  -0.00059869  1
  Cu  Cu88  1  0.66849357  0.33581422  0.49660797  1
  Cu  Cu89  1  0.50227610  0.16511000  0.74564378  1
  Cu  Cu90  1  0.33527091  0.00415454  -0.00921359  1
  Cu  Cu91  1  0.84310038  0.49405576  0.75767221  1
  Cu  Cu92  1  0.15772349  0.49623756  0.75190204  1
  Cu  Cu93  1  0.00020150  0.33821436  0.00173560  1
  Cu  Cu94  1  0.32943858  0.33352633  0.50687689  1
  Cu  Cu95  1  0.65764898  0.67337905  0.50127190  1
  Cu  Cu96  1  0.83908078  0.15986333  0.75504554  1
  Cu  Cu97  1  0.32782100  0.33533930  -0.00588674  1
  Cu  Cu98  1  0.15947749  0.49247044  0.23868754  1
  Cu  Cu99  1  0.33585479  -0.00566537  0.50797556  1
  Cu  Cu100  1  0.50943401  0.49808502  0.25840373  1
  Cu  Cu101  1  0.33452689  0.66920962  0.50405972  1
  Cu  Cu102  1  0.16125108  0.17008358  0.74955888  1
  Cu  Cu103  1  0.00282931  0.66456310  0.00227272  1
  Cu  Cu104  1  0.66702785  -0.00006360  0.50101541  1
  Cu  Cu105  1  0.33051096  0.67381859  -0.00553820  1
  Cu  Cu106  1  0.15835851  0.83649798  0.24656587  1
  Cu  Cu107  1  0.50396446  0.83781695  0.24781227  1
  Cu  Cu108  1  0.66470820  -0.00359797  -0.00049559  1
  Cu  Cu109  1  0.83483006  0.16723485  0.24631647  1
  Cu  Cu110  1  0.51267336  0.17184319  0.24883256  1
  Cu  Cu111  1  0.16643064  0.83904121  0.75674891  1
  Cu  Cu112  1  0.00148242  0.66240711  0.49916387  1
  Cu  Cu113  1  0.15535344  0.15975461  0.25062586  1
  Cu  Cu114  1  0.67398843  0.32726098  0.00357044  1
  Se  Se115  1  0.10681267  0.11315073  0.05967641  1
  Se  Se116  1  0.08362846  0.07423719  0.54675578  1
  Se  Se117  1  0.08640473  0.42239091  0.05283164  1
  Se  Se118  1  0.07229268  0.41065244  0.55727321  1
  Se  Se119  1  0.08488890  0.75365298  0.05243278  1
  Se  Se120  1  0.08241515  0.74703407  0.55238322  1
  Se  Se121  1  0.40743111  0.07780126  0.06195359  1
  Se  Se122  1  0.41281070  0.07682228  0.56947222  1
  Se  Se123  1  0.41186396  0.41175416  0.05526752  1
  Se  Se124  1  0.41596955  0.42020170  0.55194274  1
  Se  Se125  1  0.41772080  0.75357969  0.04712073  1
  Se  Se126  1  0.41598234  0.75570250  0.55556998  1
  Se  Se127  1  0.74873962  0.08118659  0.05152350  1
  Se  Se128  1  0.75404551  0.08326675  0.54973742  1
  Se  Se129  1  0.75423577  0.41553893  0.05467663  1
  Se  Se130  1  0.74654467  0.41287670  0.56204017  1
  Se  Se131  1  0.75650764  0.75414727  0.04935620  1
  Se  Se132  1  0.74271871  0.74409722  0.56332181  1
  Se  Se133  1  0.25029770  0.25147246  0.05039970  1
  Se  Se134  1  0.24651131  0.24894838  0.55742860  1
  Se  Se135  1  0.25276501  0.58426143  0.04650016  1
  Se  Se136  1  0.25334482  0.59052475  0.56531747  1
  Se  Se137  1  0.25060715  0.91977962  0.04407443  1
  Se  Se138  1  0.24731787  0.91210406  0.55760645  1
  Se  Se139  1  0.58906328  0.25309716  0.06365917  1
  Se  Se140  1  0.59148189  0.25640850  0.56188765  1
  Se  Se141  1  0.59100183  0.58873269  0.06265260  1
  Se  Se142  1  0.57921706  0.58295736  0.55159545  1
  Se  Se143  1  0.57678008  0.91346369  0.04942199  1
  Se  Se144  1  0.58361978  0.92168691  0.55785318  1
  Se  Se145  1  0.91760371  0.25012978  0.05314742  1
  Se  Se146  1  0.90831489  0.24480632  0.54668698  1
  Se  Se147  1  0.91727991  0.58126472  0.05390621  1
  Se  Se148  1  0.91857807  0.58536492  0.55972567  1
  Se  Se149  1  0.92990702  0.92987159  0.04820986  1
  Se  Se150  1  0.93282839  0.92551718  0.55536788  1
  Se  Se151  1  0.09293985  0.23705766  0.44844152  1
  Se  Se152  1  0.08024066  0.25266230  0.94641323  1
  Se  Se153  1  0.07095878  0.57911577  0.43403019  1
  Se  Se154  1  0.08681348  0.58096206  0.94904228  1
  Se  Se155  1  0.09378902  0.89054200  0.44340635  1
  Se  Se156  1  0.06803953  0.92925763  0.95519520  1
  Se  Se157  1  0.40729815  0.25433490  0.44148745  1
  Se  Se158  1  0.41156677  0.25409549  0.93808180  1
  Se  Se159  1  0.41706502  0.58386737  0.45199103  1
  Se  Se160  1  0.40771779  0.59097443  0.93238651  1
  Se  Se161  1  0.41866096  0.91615361  0.44989279  1
  Se  Se162  1  0.42129383  0.92122804  0.94054040  1
  Se  Se163  1  0.75211956  0.25086657  0.44665622  1
  Se  Se164  1  0.75753098  0.24407188  0.95090333  1
  Se  Se165  1  0.74062155  0.59679437  0.44057678  1
  Se  Se166  1  0.75063207  0.57761118  0.95267437  1
  Se  Se167  1  0.74796815  0.92472572  0.43719566  1
  Se  Se168  1  0.75051841  0.91398865  0.94754115  1
  Se  Se169  1  0.25243109  0.07946321  0.45588013  1
  Se  Se170  1  0.24896156  0.08994941  0.94448545  1
  Se  Se171  1  0.25273833  0.40966833  0.43958473  1
  Se  Se172  1  0.24577618  0.42030205  0.94287323  1
  Se  Se173  1  0.24921448  0.74163077  0.44439361  1
  Se  Se174  1  0.24646639  0.75905467  0.94407235  1
  Se  Se175  1  0.58730476  0.08144303  0.43884307  1
  Se  Se176  1  0.58451996  0.07426374  0.93639787  1
  Se  Se177  1  0.58167213  0.42072645  0.44984503  1
  Se  Se178  1  0.59080397  0.40420080  0.94218164  1
  Se  Se179  1  0.57844031  0.76232653  0.45022698  1
  Se  Se180  1  0.58347549  0.75050043  0.94822676  1
  Se  Se181  1  0.91447789  0.07749498  0.44707360  1
  Se  Se182  1  0.92226858  0.07228757  0.95646513  1
  Se  Se183  1  0.92874606  0.40788544  0.43847636  1
  Se  Se184  1  0.91498797  0.42238876  0.95004432  1
  Se  Se185  1  0.91735569  0.74308144  0.44117754  1
  Se  Se186  1  0.91931238  0.74847300  0.94961061  1
  Se  Se187  1  0.24645898  0.23929927  0.30399705  1
  Se  Se188  1  0.24771736  0.25305212  0.80224117  1
  Se  Se189  1  0.23552640  0.57120550  0.30445944  1
  Se  Se190  1  0.23626063  0.57966686  0.81171489  1
  Se  Se191  1  0.23323034  0.91255246  0.31265925  1
  Se  Se192  1  0.24564802  0.92510229  0.80912881  1
  Se  Se193  1  0.59358385  0.25526377  0.30307098  1
  Se  Se194  1  0.57877839  0.23909965  0.81414451  1
  Se  Se195  1  0.57912452  0.58971929  0.31561637  1
  Se  Se196  1  0.57416867  0.57001892  0.80279767  1
  Se  Se197  1  0.58559276  0.92212767  0.30034239  1
  Se  Se198  1  0.59604197  0.91532384  0.79652623  1
  Se  Se199  1  0.91632807  0.24515065  0.30652516  1
  Se  Se200  1  0.91945512  0.24545058  0.80809626  1
  Se  Se201  1  0.92311418  0.59339824  0.29020092  1
  Se  Se202  1  0.92054734  0.58294652  0.80990252  1
  Se  Se203  1  0.92106519  0.91784237  0.29666347  1
  Se  Se204  1  0.91159996  0.91189976  0.81342565  1
  Se  Se205  1  0.07933087  0.07902661  0.31192230  1
  Se  Se206  1  0.08596794  0.09040667  0.81405231  1
  Se  Se207  1  0.08486105  0.40838719  0.29817167  1
  Se  Se208  1  0.07672825  0.41129733  0.80620672  1
  Se  Se209  1  0.07842737  0.74603124  0.29695573  1
  Se  Se210  1  0.08016843  0.75625848  0.80680105  1
  Se  Se211  1  0.42632503  0.09440169  0.30714609  1
  Se  Se212  1  0.41605258  0.08277068  0.79796446  1
  Se  Se213  1  0.42211400  0.42139444  0.31559114  1
  Se  Se214  1  0.41488450  0.41733168  0.79263210  1
  Se  Se215  1  0.41894205  0.76345796  0.30838974  1
  Se  Se216  1  0.42643428  0.75978209  0.80722383  1
  Se  Se217  1  0.74980934  0.08148313  0.29842219  1
  Se  Se218  1  0.75386700  0.07686493  0.80476026  1
  Se  Se219  1  0.76958886  0.43522003  0.30766911  1
  Se  Se220  1  0.75572279  0.41716008  0.81443790  1
  Se  Se221  1  0.76039491  0.76328445  0.30929703  1
  Se  Se222  1  0.75730979  0.75059882  0.81783075  1
  Se  Se223  1  0.23421164  0.07865075  0.19065817  1
  Se  Se224  1  0.24564979  0.08267779  0.70046751  1
  Se  Se225  1  0.24587112  0.41727273  0.18079576  1
  Se  Se226  1  0.24237670  0.41590965  0.69714954  1
  Se  Se227  1  0.24216507  0.75814152  0.18704864  1
  Se  Se228  1  0.24116156  0.75602587  0.69295538  1
  Se  Se229  1  0.58853235  0.08146680  0.19667666  1
  Se  Se230  1  0.59019306  0.08008103  0.69977165  1
  Se  Se231  1  0.59097536  0.41449943  0.20553796  1
  Se  Se232  1  0.57834898  0.42193485  0.69142067  1
  Se  Se233  1  0.57949798  0.75707412  0.18577588  1
  Se  Se234  1  0.57974393  0.75453257  0.69241808  1
  Se  Se235  1  0.91514709  0.08100926  0.19270342  1
  Se  Se236  1  0.91995474  0.09249797  0.68666517  1
  Se  Se237  1  0.93126925  0.40505843  0.19611380  1
  Se  Se238  1  0.91974225  0.40777909  0.70168707  1
  Se  Se239  1  0.91774669  0.75207489  0.19230592  1
  Se  Se240  1  0.92588341  0.75000997  0.70437074  1
  Se  Se241  1  0.07622626  0.24895138  0.19899853  1
  Se  Se242  1  0.07486344  0.24489867  0.69228399  1
  Se  Se243  1  0.08204091  0.58576465  0.19107145  1
  Se  Se244  1  0.07457958  0.58410588  0.70299851  1
  Se  Se245  1  0.07944949  0.92039824  0.18946459  1
  Se  Se246  1  0.08941838  0.91275221  0.68874755  1
  Se  Se247  1  0.42535086  0.24270635  0.18783910  1
  Se  Se248  1  0.41686435  0.25142377  0.69818205  1
  Se  Se249  1  0.42665170  0.57585676  0.19844846  1
  Se  Se250  1  0.41977439  0.58135338  0.69125713  1
  Se  Se251  1  0.41609168  0.91303112  0.18919572  1
  Se  Se252  1  0.40892263  0.91907449  0.70546671  1
  Se  Se253  1  0.75306915  0.25585765  0.19564266  1
  Se  Se254  1  0.75803089  0.24017552  0.69241116  1
  Se  Se255  1  0.75877793  0.57995941  0.18954697  1
  Se  Se256  1  0.76387337  0.57243712  0.69464995  1
  Se  Se257  1  0.74848398  0.92210674  0.19074829  1
  Se  Se258  1  0.77700247  0.90252281  0.69200885  1
