# generated using pymatgen
data_In86Cu29Se144
_symmetry_space_group_name_H-M   'P 1'
_cell_length_a   17.57687228
_cell_length_b   17.57990707
_cell_length_c   23.43821770
_cell_angle_alpha   89.99302296
_cell_angle_beta   89.97068356
_cell_angle_gamma   89.99168115
_symmetry_Int_Tables_number   1
_chemical_formula_structural   In86Cu29Se144
_chemical_formula_sum   'In86 Cu29 Se144'
_cell_volume   7242.40306667
_cell_formula_units_Z   1
loop_
 _symmetry_equiv_pos_site_id
 _symmetry_equiv_pos_as_xyz
  1  'x, y, z'
loop_
 _atom_site_type_symbol
 _atom_site_label
 _atom_site_symmetry_multiplicity
 _atom_site_fract_x
 _atom_site_fract_y
 _atom_site_fract_z
 _atom_site_occupancy
  In  In0  1  -0.00017065  0.18237432  0.12420391  1
  In  In1  1  -0.00850308  0.17285580  0.62836556  1
  In  In2  1  -0.00558650  0.49800618  0.12195072  1
  In  In3  1  -0.01313262  0.51010145  0.62981826  1
  In  In4  1  -0.01501843  0.82892211  0.12727477  1
  In  In5  1  0.00264977  0.82754111  0.63159492  1
  In  In6  1  0.34254556  0.15527154  0.12138264  1
  In  In7  1  0.33568862  0.16636531  0.63951223  1
  In  In8  1  0.33396877  0.50479853  0.11208241  1
  In  In9  1  0.33787794  0.50201426  0.63616436  1
  In  In10  1  0.34772444  0.83689336  0.11728209  1
  In  In11  1  0.33798854  0.82964506  0.63814519  1
  In  In12  1  0.65724192  0.15552671  0.11126591  1
  In  In13  1  0.67438218  0.15475349  0.62505437  1
  In  In14  1  0.67295471  0.50532397  0.11473635  1
  In  In15  1  0.67054271  0.50304508  0.62716824  1
  In  In16  1  0.65687726  0.84054610  0.13309505  1
  In  In17  1  0.66414086  0.84033131  0.63128819  1
  In  In18  1  0.17200447  -0.01150288  0.37518448  1
  In  In19  1  0.17282033  0.00703933  0.86885213  1
  In  In20  1  0.15749270  0.34864941  0.37508721  1
  In  In21  1  0.17727086  0.34369152  0.86799490  1
  In  In22  1  0.16643419  0.67447846  0.37428132  1
  In  In23  1  0.15614917  0.65594551  0.86788735  1
  In  In24  1  0.49953943  -0.00003331  0.36566219  1
  In  In25  1  0.49776871  -0.00566585  0.87722984  1
  In  In26  1  0.51554695  0.33911129  0.37693794  1
  In  In27  1  0.49819218  0.34674043  0.88976491  1
  In  In28  1  0.50272152  0.65363346  0.37733590  1
  In  In29  1  0.50203457  0.66431173  0.87262101  1
  In  In30  1  0.82749415  0.01420475  0.38009278  1
  In  In31  1  0.83698840  0.00640389  0.86759793  1
  In  In32  1  0.83484002  0.32373638  0.37750246  1
  In  In33  1  0.83642210  0.32364154  0.88280622  1
  In  In34  1  0.82881206  0.66026257  0.37244203  1
  In  In35  1  0.82245337  0.65819580  0.86554879  1
  In  In36  1  -0.02077721  0.16664352  0.37377435  1
  In  In37  1  -0.00772744  0.16498205  0.86704537  1
  In  In38  1  -0.00902236  0.49387329  0.37079159  1
  In  In39  1  -0.00041944  0.49764863  0.87339705  1
  In  In40  1  0.01045081  0.82733333  0.37421666  1
  In  In41  1  -0.00179136  0.83309672  0.86542403  1
  In  In42  1  0.34739696  0.16216319  0.37299884  1
  In  In43  1  0.34143320  0.17305353  0.87273082  1
  In  In44  1  0.34650521  0.51251212  0.37959689  1
  In  In45  1  0.33547747  0.49657364  0.87247567  1
  In  In46  1  0.32408033  0.83898622  0.37357964  1
  In  In47  1  0.34866637  0.84275696  0.87062604  1
  In  In48  1  0.67613753  0.16640946  0.37344842  1
  In  In49  1  0.67961331  0.16131450  0.88463050  1
  In  In50  1  0.65995180  0.50876458  0.38075569  1
  In  In51  1  0.66098189  0.51193145  0.88633064  1
  In  In52  1  0.66975887  0.83331552  0.36741424  1
  In  In53  1  0.65309268  0.82085350  0.86679880  1
  In  In54  1  0.17441708  0.00983387  0.12449924  1
  In  In55  1  0.16462011  0.00037178  0.63481880  1
  In  In56  1  0.14942158  0.33403217  0.12618136  1
  In  In57  1  0.16455346  0.33622342  0.63546343  1
  In  In58  1  0.16502849  0.65358172  0.12188063  1
  In  In59  1  0.16703616  0.66718749  0.63338330  1
  In  In60  1  0.50184539  -0.00005661  0.11823843  1
  In  In61  1  0.50346113  -0.00079358  0.63513786  1
  In  In62  1  0.51143779  0.33563005  0.10443025  1
  In  In63  1  0.49101476  0.34163447  0.63586317  1
  In  In64  1  0.50240216  0.67499556  0.11746828  1
  In  In65  1  0.50337038  0.66114007  0.63503730  1
  In  In66  1  0.81959548  -0.00944622  0.12373797  1
  In  In67  1  0.82779378  0.00795737  0.62636683  1
  In  In68  1  0.83068035  0.34514308  0.10705777  1
  In  In69  1  0.83938079  0.34223567  0.62143738  1
  In  In70  1  0.83916406  0.65677260  0.13078437  1
  In  In71  1  0.84439332  0.65251269  0.62852489  1
  In  In72  1  0.33272553  0.67104606  0.25252134  1
  In  In73  1  0.16071550  0.50264280  0.50798726  1
  In  In74  1  0.50937907  0.17481502  0.50504548  1
  In  In75  1  0.32811220  0.32636841  0.24282271  1
  In  In76  1  0.17468357  0.17530384  -0.00720636  1
  In  In77  1  0.50564342  0.83157126  0.51250687  1
  In  In78  1  0.67180416  0.33013788  0.24099757  1
  In  In79  1  0.82849130  0.82936475  -0.00104072  1
  In  In80  1  0.83549266  0.83353970  0.49785693  1
  In  In81  1  0.16583602  0.82899350  0.50058095  1
  In  In82  1  0.66110298  0.33921900  0.75901656  1
  In  In83  1  0.17207632  0.83020936  0.00048328  1
  In  In84  1  0.16395720  0.16824950  0.51259455  1
  In  In85  1  -0.00382685  -0.00372321  0.25645131  1
  Cu  Cu86  1  0.33150012  0.33795792  -0.00494488  1
  Cu  Cu87  1  0.50103925  0.50036759  0.25144336  1
  Cu  Cu88  1  -0.00591033  0.65622807  -0.00243100  1
  Cu  Cu89  1  0.16786059  0.83125165  0.75481525  1
  Cu  Cu90  1  0.83528762  0.49856825  0.75113003  1
  Cu  Cu91  1  0.83025109  0.17119124  0.75202502  1
  Cu  Cu92  1  0.50394357  0.83479963  0.24303312  1
  Cu  Cu93  1  0.66432953  0.66954781  -0.00251172  1
  Cu  Cu94  1  0.50419253  0.16586124  0.75719659  1
  Cu  Cu95  1  0.33998020  0.34568240  0.50807583  1
  Cu  Cu96  1  0.33548249  -0.00079194  0.50300984  1
  Cu  Cu97  1  0.16868153  0.83443128  0.24965582  1
  Cu  Cu98  1  0.83315172  0.83677992  0.74634190  1
  Cu  Cu99  1  0.67099866  0.34337324  0.50239786  1
  Cu  Cu100  1  0.15227486  0.50061116  0.24701286  1
  Cu  Cu101  1  0.16810740  0.49620254  0.75098097  1
  Cu  Cu102  1  0.49952328  0.83380749  0.75233100  1
  Cu  Cu103  1  0.67207321  0.66438752  0.50418482  1
  Cu  Cu104  1  0.00129201  0.00922248  -0.00967943  1
  Cu  Cu105  1  0.82813908  0.82310441  0.25140823  1
  Cu  Cu106  1  0.82963084  0.16441622  0.24713863  1
  Cu  Cu107  1  -0.00028518  0.33948516  -0.00159768  1
  Cu  Cu108  1  0.16317051  0.16277065  0.75207785  1
  Cu  Cu109  1  0.33408499  0.66258715  -0.01010640  1
  Cu  Cu110  1  0.66412626  -0.00728181  -0.00185633  1
  Cu  Cu111  1  0.50199169  0.15507412  0.24092100  1
  Cu  Cu112  1  0.16705706  0.16667890  0.24736221  1
  Cu  Cu113  1  0.83218230  0.49530099  0.24661472  1
  Cu  Cu114  1  -0.00986976  0.32736329  0.49954834  1
  Se  Se115  1  0.07971800  0.08462041  0.05494525  1
  Se  Se116  1  0.07333133  0.07260485  0.56242432  1
  Se  Se117  1  0.08432636  0.42070476  0.05226702  1
  Se  Se118  1  0.07202127  0.40455711  0.56108912  1
  Se  Se119  1  0.07064932  0.74365103  0.05630164  1
  Se  Se120  1  0.07595073  0.73691336  0.55701254  1
  Se  Se121  1  0.42598551  0.08772264  0.04883409  1
  Se  Se122  1  0.41359889  0.08268940  0.56139610  1
  Se  Se123  1  0.41844165  0.42139382  0.04675271  1
  Se  Se124  1  0.42190640  0.42673048  0.56137174  1
  Se  Se125  1  0.41352163  0.74656026  0.04619676  1
  Se  Se126  1  0.40911831  0.74291902  0.56333027  1
  Se  Se127  1  0.75244518  0.07409378  0.04913041  1
  Se  Se128  1  0.75648306  0.08866865  0.55000587  1
  Se  Se129  1  0.72535937  0.40433727  0.04333881  1
  Se  Se130  1  0.75461423  0.42611820  0.55544152  1
  Se  Se131  1  0.74294889  0.74421117  0.06495967  1
  Se  Se132  1  0.74731895  0.74833791  0.56382797  1
  Se  Se133  1  0.25660061  0.26115902  0.06384969  1
  Se  Se134  1  0.26244026  0.25984101  0.56400496  1
  Se  Se135  1  0.24679179  0.58573777  0.04575450  1
  Se  Se136  1  0.25633179  0.58934010  0.56214380  1
  Se  Se137  1  0.25891448  0.92909114  0.05386792  1
  Se  Se138  1  0.25624869  0.91925610  0.56245641  1
  Se  Se139  1  0.57931458  0.23799691  0.04221173  1
  Se  Se140  1  0.59362593  0.26606571  0.56826940  1
  Se  Se141  1  0.58010299  0.58491574  0.05135723  1
  Se  Se142  1  0.58526250  0.58750004  0.55994666  1
  Se  Se143  1  0.58315352  0.90832966  0.05257037  1
  Se  Se144  1  0.59440932  0.93492837  0.55746415  1
  Se  Se145  1  0.91801544  0.25130438  0.04927339  1
  Se  Se146  1  0.90791934  0.24487086  0.55380163  1
  Se  Se147  1  0.90786547  0.57812694  0.05241357  1
  Se  Se148  1  0.91617144  0.57959885  0.54953735  1
  Se  Se149  1  0.92530546  0.92531459  0.05237242  1
  Se  Se150  1  0.92224004  0.91788957  0.56329119  1
  Se  Se151  1  0.07954367  0.25339691  0.44206606  1
  Se  Se152  1  0.07787565  0.25864465  0.93557273  1
  Se  Se153  1  0.07862201  0.58579265  0.43750906  1
  Se  Se154  1  0.08326979  0.57874469  0.94523969  1
  Se  Se155  1  0.07408189  0.92618459  0.44621255  1
  Se  Se156  1  0.08071354  0.92066280  0.93870906  1
  Se  Se157  1  0.41268026  0.26238674  0.44386889  1
  Se  Se158  1  0.41618717  0.25006135  0.94904299  1
  Se  Se159  1  0.42184167  0.58723134  0.45319567  1
  Se  Se160  1  0.42081786  0.57830565  0.94161049  1
  Se  Se161  1  0.41541284  0.91998177  0.44360005  1
  Se  Se162  1  0.42354992  0.90878931  0.94957951  1
  Se  Se163  1  0.74376268  0.25225436  0.44752145  1
  Se  Se164  1  0.75570697  0.24586911  0.95384084  1
  Se  Se165  1  0.75275079  0.58181910  0.44800088  1
  Se  Se166  1  0.75676452  0.58951060  0.95039952  1
  Se  Se167  1  0.73850644  0.92225532  0.44265724  1
  Se  Se168  1  0.74464473  0.91633832  0.93382794  1
  Se  Se169  1  0.25609137  0.08172894  0.44441851  1
  Se  Se170  1  0.26252856  0.07596445  0.94300235  1
  Se  Se171  1  0.25746540  0.41643059  0.44376984  1
  Se  Se172  1  0.24638363  0.42201860  0.94571300  1
  Se  Se173  1  0.26460269  0.73927350  0.44532427  1
  Se  Se174  1  0.25232682  0.74423120  0.93208266  1
  Se  Se175  1  0.58476435  0.08001338  0.43942001  1
  Se  Se176  1  0.58482942  0.07820018  0.94392933  1
  Se  Se177  1  0.58147320  0.42294792  0.45155546  1
  Se  Se178  1  0.60395479  0.40771289  0.95299869  1
  Se  Se179  1  0.59208351  0.74607277  0.44420763  1
  Se  Se180  1  0.57864226  0.75082691  0.94615067  1
  Se  Se181  1  0.92048280  0.07927588  0.44849521  1
  Se  Se182  1  0.91226201  0.08877210  0.94191095  1
  Se  Se183  1  0.91301961  0.41404645  0.44400709  1
  Se  Se184  1  0.91439194  0.42042647  0.94479089  1
  Se  Se185  1  0.92512825  0.74088604  0.44034870  1
  Se  Se186  1  0.92090399  0.74366644  0.93817352  1
  Se  Se187  1  0.24258527  0.24473913  0.31488325  1
  Se  Se188  1  0.24865669  0.24537432  0.80479431  1
  Se  Se189  1  0.24184621  0.57195034  0.30777202  1
  Se  Se190  1  0.25088877  0.58044789  0.80407377  1
  Se  Se191  1  0.25337581  0.92050939  0.29801311  1
  Se  Se192  1  0.25242094  0.91610595  0.80513692  1
  Se  Se193  1  0.57655759  0.24095924  0.30282180  1
  Se  Se194  1  0.57936696  0.24488958  0.82071335  1
  Se  Se195  1  0.58539845  0.58369788  0.30219420  1
  Se  Se196  1  0.59814484  0.59158504  0.80773798  1
  Se  Se197  1  0.58524427  0.91682804  0.30090566  1
  Se  Se198  1  0.58340991  0.91998412  0.80308133  1
  Se  Se199  1  0.91135801  0.25077961  0.29864998  1
  Se  Se200  1  0.91424642  0.25704433  0.80190152  1
  Se  Se201  1  0.91291358  0.58015965  0.30170332  1
  Se  Se202  1  0.92020396  0.58416971  0.80301988  1
  Se  Se203  1  0.90462318  0.90556435  0.31488712  1
  Se  Se204  1  0.91738105  0.92019795  0.79995735  1
  Se  Se205  1  0.08951100  0.08941137  0.31328124  1
  Se  Se206  1  0.07829776  0.07888563  0.80313614  1
  Se  Se207  1  0.07373043  0.41244713  0.29909899  1
  Se  Se208  1  0.08069510  0.41409908  0.80234744  1
  Se  Se209  1  0.08571727  0.74808704  0.29927673  1
  Se  Se210  1  0.07922630  0.74563004  0.80038005  1
  Se  Se211  1  0.41368464  0.07985786  0.29690542  1
  Se  Se212  1  0.41788743  0.08087966  0.80684002  1
  Se  Se213  1  0.41968950  0.41649933  0.30676796  1
  Se  Se214  1  0.41902230  0.40754094  0.80954056  1
  Se  Se215  1  0.42669504  0.75978843  0.31156681  1
  Se  Se216  1  0.41701752  0.74696654  0.80339465  1
  Se  Se217  1  0.74794018  0.08082356  0.30043598  1
  Se  Se218  1  0.74596858  0.08592836  0.80229917  1
  Se  Se219  1  0.75044116  0.41913903  0.30996084  1
  Se  Se220  1  0.75668288  0.42459743  0.81681435  1
  Se  Se221  1  0.74339791  0.73927094  0.30271100  1
  Se  Se222  1  0.75057497  0.75295255  0.80033625  1
  Se  Se223  1  0.25436335  0.08771978  0.19639698  1
  Se  Se224  1  0.25122646  0.07935591  0.70215083  1
  Se  Se225  1  0.24353265  0.42831247  0.18872290  1
  Se  Se226  1  0.25497641  0.41258064  0.70058764  1
  Se  Se227  1  0.24586991  0.75657440  0.18466465  1
  Se  Se228  1  0.25107010  0.74685362  0.70249213  1
  Se  Se229  1  0.59026296  0.07549377  0.19006010  1
  Se  Se230  1  0.58625136  0.08808110  0.69846007  1
  Se  Se231  1  0.57588424  0.42093818  0.18706264  1
  Se  Se232  1  0.57486495  0.43293766  0.70059812  1
  Se  Se233  1  0.58281889  0.74188993  0.19603728  1
  Se  Se234  1  0.58466446  0.75359812  0.69764545  1
  Se  Se235  1  0.91354040  0.08303777  0.18772089  1
  Se  Se236  1  0.91269325  0.08669420  0.69735445  1
  Se  Se237  1  0.90865518  0.41158054  0.18752833  1
  Se  Se238  1  0.91839396  0.41438598  0.69820226  1
  Se  Se239  1  0.91704623  0.74417269  0.20070762  1
  Se  Se240  1  0.91494113  0.74690083  0.69694577  1
  Se  Se241  1  0.07945830  0.25137922  0.20167509  1
  Se  Se242  1  0.08163518  0.24675927  0.69754518  1
  Se  Se243  1  0.07433457  0.58577874  0.19213580  1
  Se  Se244  1  0.08387954  0.57851374  0.69654677  1
  Se  Se245  1  0.08733252  0.91326747  0.18758255  1
  Se  Se246  1  0.08330213  0.91275396  0.69968864  1
  Se  Se247  1  0.43151248  0.24951848  0.18556848  1
  Se  Se248  1  0.42040545  0.25039134  0.70456185  1
  Se  Se249  1  0.41834819  0.57862392  0.19082488  1
  Se  Se250  1  0.40844095  0.59488347  0.70356589  1
  Se  Se251  1  0.41921979  0.91806116  0.19156141  1
  Se  Se252  1  0.41544045  0.92181232  0.70202839  1
  Se  Se253  1  0.75641737  0.24030673  0.17863044  1
  Se  Se254  1  0.75040523  0.25400350  0.69242940  1
  Se  Se255  1  0.74586149  0.57746068  0.19445981  1
  Se  Se256  1  0.75195784  0.58310746  0.69856491  1
  Se  Se257  1  0.74957750  0.91378603  0.20115976  1
  Se  Se258  1  0.74903131  0.92349135  0.69706995  1
