# generated using pymatgen
data_In86Cu29Se144
_symmetry_space_group_name_H-M   'P 1'
_cell_length_a   17.57942352
_cell_length_b   17.58316448
_cell_length_c   23.43781060
_cell_angle_alpha   90.00111193
_cell_angle_beta   89.97962695
_cell_angle_gamma   90.00494601
_symmetry_Int_Tables_number   1
_chemical_formula_structural   In86Cu29Se144
_chemical_formula_sum   'In86 Cu29 Se144'
_cell_volume   7244.67118822
_cell_formula_units_Z   1
loop_
 _symmetry_equiv_pos_site_id
 _symmetry_equiv_pos_as_xyz
  1  'x, y, z'
loop_
 _atom_site_type_symbol
 _atom_site_label
 _atom_site_symmetry_multiplicity
 _atom_site_fract_x
 _atom_site_fract_y
 _atom_site_fract_z
 _atom_site_occupancy
  In  In0  1  -0.01059112  0.17425284  0.13989715  1
  In  In1  1  0.00834120  0.16383252  0.63618778  1
  In  In2  1  -0.00718139  0.49904453  0.11661687  1
  In  In3  1  -0.01252886  0.49577050  0.62850421  1
  In  In4  1  0.00749121  0.83932430  0.12203977  1
  In  In5  1  0.00130996  0.84040875  0.62535824  1
  In  In6  1  0.32521544  0.15909465  0.12619650  1
  In  In7  1  0.34593671  0.15143318  0.63593210  1
  In  In8  1  0.34723648  0.51961013  0.09976010  1
  In  In9  1  0.35100246  0.49924308  0.62906160  1
  In  In10  1  0.35390512  0.84976465  0.10001013  1
  In  In11  1  0.34403168  0.82301656  0.63695823  1
  In  In12  1  0.66940997  0.16427676  0.13540763  1
  In  In13  1  0.64704387  0.15881872  0.62252371  1
  In  In14  1  0.67015190  0.49867766  0.12970303  1
  In  In15  1  0.67205373  0.50370680  0.62040211  1
  In  In16  1  0.64661552  0.84735937  0.12542923  1
  In  In17  1  0.66469942  0.83302121  0.62543581  1
  In  In18  1  0.17142859  0.00448200  0.36971851  1
  In  In19  1  0.16563471  -0.00589333  0.87715584  1
  In  In20  1  0.14963520  0.33405574  0.36797389  1
  In  In21  1  0.16464380  0.34341350  0.87457198  1
  In  In22  1  0.16978292  0.66705707  0.37350156  1
  In  In23  1  0.18765429  0.66361897  0.88891678  1
  In  In24  1  0.49987288  -0.00322090  0.37539272  1
  In  In25  1  0.49776579  -0.00616325  0.86920229  1
  In  In26  1  0.51098371  0.32387439  0.38100078  1
  In  In27  1  0.51008801  0.34631397  0.87992343  1
  In  In28  1  0.51030199  0.65817331  0.38299570  1
  In  In29  1  0.50043640  0.66811911  0.87845721  1
  In  In30  1  0.81741781  -0.00861932  0.36177627  1
  In  In31  1  0.83148586  -0.00280173  0.86611381  1
  In  In32  1  0.83727450  0.33538067  0.36944631  1
  In  In33  1  0.83916764  0.33016065  0.87594424  1
  In  In34  1  0.81517292  0.68169964  0.38439824  1
  In  In35  1  0.81406309  0.66557759  0.87272911  1
  In  In36  1  -0.01017806  0.16388398  0.36288102  1
  In  In37  1  0.00046325  0.16028871  0.86280373  1
  In  In38  1  -0.00893389  0.48195062  0.36620477  1
  In  In39  1  0.00126320  0.49455381  0.87875594  1
  In  In40  1  -0.01759124  0.82642456  0.37339600  1
  In  In41  1  0.00220787  0.85289000  0.87522589  1
  In  In42  1  0.34953193  0.16298734  0.37777131  1
  In  In43  1  0.33628159  0.14588292  0.86752648  1
  In  In44  1  0.33872505  0.51167495  0.37373516  1
  In  In45  1  0.33186628  0.51193282  0.88639886  1
  In  In46  1  0.33738968  0.84572318  0.37559154  1
  In  In47  1  0.34413610  0.83935996  0.88350879  1
  In  In48  1  0.65847390  0.15139576  0.36261745  1
  In  In49  1  0.67241807  0.16708260  0.86978765  1
  In  In50  1  0.66771158  0.50269402  0.37550983  1
  In  In51  1  0.64966849  0.50702367  0.89162472  1
  In  In52  1  0.66118411  0.83304597  0.37401985  1
  In  In53  1  0.65877637  0.82688149  0.87155882  1
  In  In54  1  0.17317270  -0.00746207  0.12815397  1
  In  In55  1  0.17061856  -0.00032618  0.63930777  1
  In  In56  1  0.15683805  0.33721346  0.12190888  1
  In  In57  1  0.16092601  0.32272850  0.63266236  1
  In  In58  1  0.18509283  0.68489118  0.09844779  1
  In  In59  1  0.17530807  0.67898482  0.63229452  1
  In  In60  1  0.50445250  -0.00634246  0.12533071  1
  In  In61  1  0.50732733  -0.00125032  0.62928155  1
  In  In62  1  0.50749247  0.34530530  0.12481158  1
  In  In63  1  0.50532174  0.33932896  0.61525340  1
  In  In64  1  0.50540137  0.67503484  0.11898501  1
  In  In65  1  0.50256427  0.66951176  0.62851331  1
  In  In66  1  0.82633917  0.00876721  0.13748910  1
  In  In67  1  0.83931525  -0.00808209  0.62625015  1
  In  In68  1  0.81719306  0.34780297  0.14577970  1
  In  In69  1  0.83329657  0.34314503  0.62323737  1
  In  In70  1  0.82857674  0.65292406  0.12308120  1
  In  In71  1  0.81907075  0.65568757  0.61870871  1
  In  In72  1  0.50167688  0.16759177  -0.00206593  1
  In  In73  1  0.82596673  0.17002568  0.00883652  1
  In  In74  1  0.32805391  0.32920732  0.75484405  1
  In  In75  1  0.83194167  0.83181805  -0.00502363  1
  In  In76  1  0.17237732  0.16615373  0.51371025  1
  In  In77  1  0.16788014  0.49879704  0.49430261  1
  In  In78  1  -0.00171574  0.66243828  0.24122140  1
  In  In79  1  0.32801754  0.33223360  0.24543791  1
  In  In80  1  0.00487738  0.67367820  0.75185658  1
  In  In81  1  0.33826780  0.67460859  0.23589134  1
  In  In82  1  0.16353602  0.16221379  -0.00674628  1
  In  In83  1  0.82992534  0.16505411  0.49384432  1
  In  In84  1  0.16775058  0.83510956  0.50735822  1
  In  In85  1  0.67092916  0.33243776  0.74979021  1
  Cu  Cu86  1  0.49685888  0.83517334  0.24863698  1
  Cu  Cu87  1  -0.00398840  0.33068230  0.49628551  1
  Cu  Cu88  1  0.66126725  0.66924121  0.50229976  1
  Cu  Cu89  1  0.16495134  0.84280627  0.24688259  1
  Cu  Cu90  1  0.50951420  0.49548410  0.25283003  1
  Cu  Cu91  1  0.82968924  0.50529105  0.25208608  1
  Cu  Cu92  1  0.33562908  0.33402939  -0.00467484  1
  Cu  Cu93  1  0.00060037  0.66593641  -0.00403749  1
  Cu  Cu94  1  0.16447818  0.16149477  0.24761181  1
  Cu  Cu95  1  0.17872481  0.83410293  0.75956850  1
  Cu  Cu96  1  -0.01140205  0.65751843  0.49918622  1
  Cu  Cu97  1  0.66251278  -0.00531887  0.49545600  1
  Cu  Cu98  1  0.66686313  0.33748823  0.49737037  1
  Cu  Cu99  1  0.16787810  0.50390466  0.23288715  1
  Cu  Cu100  1  0.83378634  0.16134400  0.74650287  1
  Cu  Cu101  1  -0.00527941  -0.00891310  0.49896972  1
  Cu  Cu102  1  0.50089231  0.51146962  0.75471072  1
  Cu  Cu103  1  0.33950448  0.33620194  0.49811352  1
  Cu  Cu104  1  -0.00190033  0.00969754  0.00195191  1
  Cu  Cu105  1  0.82410951  0.83273738  0.24969352  1
  Cu  Cu106  1  0.82931576  0.49875153  0.74794710  1
  Cu  Cu107  1  0.82833473  0.83373556  0.74819343  1
  Cu  Cu108  1  -0.00677342  0.34084875  0.00016135  1
  Cu  Cu109  1  0.34669122  -0.00145024  0.50545881  1
  Cu  Cu110  1  0.66700670  0.66352970  0.00272546  1
  Cu  Cu111  1  0.16791049  0.50395115  0.76070190  1
  Cu  Cu112  1  0.49722201  0.15826235  0.25119591  1
  Cu  Cu113  1  0.50191302  0.83459861  0.75258818  1
  Cu  Cu114  1  0.34284639  0.66674681  0.50586310  1
  Se  Se115  1  0.07532651  0.08781817  0.06548975  1
  Se  Se116  1  0.07586718  0.06783805  0.56066056  1
  Se  Se117  1  0.08344770  0.42067996  0.04951777  1
  Se  Se118  1  0.07978640  0.40849425  0.55707005  1
  Se  Se119  1  0.07660551  0.75757330  0.04626634  1
  Se  Se120  1  0.07408913  0.73501457  0.55810467  1
  Se  Se121  1  0.41052416  0.07839513  0.05721236  1
  Se  Se122  1  0.42589076  0.08544976  0.55801869  1
  Se  Se123  1  0.42263468  0.41198863  0.04921750  1
  Se  Se124  1  0.41997267  0.42394657  0.54967351  1
  Se  Se125  1  0.38843291  0.71808667  0.06049851  1
  Se  Se126  1  0.42095265  0.75454177  0.55788235  1
  Se  Se127  1  0.73600268  0.07070338  0.05860472  1
  Se  Se128  1  0.74336359  0.07531855  0.55669417  1
  Se  Se129  1  0.75754346  0.41867453  0.06234409  1
  Se  Se130  1  0.75176116  0.41789204  0.55103330  1
  Se  Se131  1  0.74272647  0.75038334  0.06227534  1
  Se  Se132  1  0.74804768  0.75171974  0.55402253  1
  Se  Se133  1  0.25472587  0.25536368  0.05494283  1
  Se  Se134  1  0.26633665  0.26015732  0.56590766  1
  Se  Se135  1  0.23456133  0.56962279  0.04231446  1
  Se  Se136  1  0.25387769  0.58796087  0.56052178  1
  Se  Se137  1  0.24048568  0.91503595  0.05054571  1
  Se  Se138  1  0.26025540  0.92336403  0.56547277  1
  Se  Se139  1  0.59240493  0.25160413  0.06212223  1
  Se  Se140  1  0.58528265  0.25093558  0.54940917  1
  Se  Se141  1  0.58652010  0.58053410  0.05922130  1
  Se  Se142  1  0.58058139  0.58402427  0.55731727  1
  Se  Se143  1  0.56045612  0.90506149  0.04569469  1
  Se  Se144  1  0.58192377  0.91537226  0.55535840  1
  Se  Se145  1  0.92001879  0.26016475  0.06353628  1
  Se  Se146  1  0.92275821  0.24734456  0.55967481  1
  Se  Se147  1  0.91374149  0.58600196  0.04830198  1
  Se  Se148  1  0.91098868  0.57350155  0.55523992  1
  Se  Se149  1  0.91353611  0.92813429  0.05867022  1
  Se  Se150  1  0.91294714  0.90812775  0.55208026  1
  Se  Se151  1  0.07924570  0.24517591  0.44384547  1
  Se  Se152  1  0.06863063  0.25585389  0.93964347  1
  Se  Se153  1  0.07169661  0.58640470  0.43524781  1
  Se  Se154  1  0.08400227  0.58334298  0.94240068  1
  Se  Se155  1  0.08117317  0.91716882  0.43833885  1
  Se  Se156  1  0.08103714  0.92272074  0.95255206  1
  Se  Se157  1  0.42168777  0.24699975  0.44952910  1
  Se  Se158  1  0.40809342  0.25185340  0.93308393  1
  Se  Se159  1  0.41898164  0.57996598  0.44984331  1
  Se  Se160  1  0.44006446  0.56690889  0.94647787  1
  Se  Se161  1  0.42280672  0.91273495  0.44931987  1
  Se  Se162  1  0.44238684  0.90969671  0.95107226  1
  Se  Se163  1  0.73984353  0.25366604  0.43445719  1
  Se  Se164  1  0.74009763  0.25836178  0.94412609  1
  Se  Se165  1  0.74613220  0.58421826  0.44941505  1
  Se  Se166  1  0.75253934  0.58201856  0.95060689  1
  Se  Se167  1  0.74932969  0.91560620  0.44163545  1
  Se  Se168  1  0.74245653  0.92357807  0.93877214  1
  Se  Se169  1  0.25874529  0.07624849  0.44841107  1
  Se  Se170  1  0.26266154  0.06978258  0.94725671  1
  Se  Se171  1  0.25624862  0.40509059  0.43343485  1
  Se  Se172  1  0.24847019  0.41672684  0.94569584  1
  Se  Se173  1  0.25812394  0.74334427  0.44523731  1
  Se  Se174  1  0.25065514  0.76545559  0.95052017  1
  Se  Se175  1  0.58331981  0.08291907  0.44277268  1
  Se  Se176  1  0.59149128  0.07949316  0.93808130  1
  Se  Se177  1  0.58181277  0.42145371  0.44493130  1
  Se  Se178  1  0.58969298  0.40646861  0.95829601  1
  Se  Se179  1  0.58015702  0.75468821  0.44809176  1
  Se  Se180  1  0.58667879  0.74889048  0.94873315  1
  Se  Se181  1  0.91968135  0.07152456  0.43655467  1
  Se  Se182  1  0.91494621  0.08364423  0.94101377  1
  Se  Se183  1  0.91321885  0.41587660  0.44591073  1
  Se  Se184  1  0.90852680  0.42127424  0.94640197  1
  Se  Se185  1  0.91188835  0.75146484  0.45137922  1
  Se  Se186  1  0.92206901  0.74396046  0.93222161  1
  Se  Se187  1  0.24442048  0.23992197  0.31190679  1
  Se  Se188  1  0.23802979  0.23810408  0.81331624  1
  Se  Se189  1  0.24489327  0.58024248  0.29846770  1
  Se  Se190  1  0.25525591  0.58590676  0.80882863  1
  Se  Se191  1  0.25254617  0.91732630  0.30344386  1
  Se  Se192  1  0.26035528  0.92013908  0.81137167  1
  Se  Se193  1  0.57875140  0.24733731  0.30137968  1
  Se  Se194  1  0.57365747  0.24891196  0.80788347  1
  Se  Se195  1  0.58541583  0.58638094  0.30483726  1
  Se  Se196  1  0.58933878  0.58600988  0.80976988  1
  Se  Se197  1  0.58154194  0.91725884  0.30341628  1
  Se  Se198  1  0.58944009  0.91816627  0.80140208  1
  Se  Se199  1  0.93783993  0.27374470  0.30331067  1
  Se  Se200  1  0.91140914  0.24743545  0.80220170  1
  Se  Se201  1  0.90883956  0.58840795  0.31277037  1
  Se  Se202  1  0.91077571  0.58148413  0.80738504  1
  Se  Se203  1  0.91414817  0.91181112  0.30067086  1
  Se  Se204  1  0.91639509  0.91531319  0.79835304  1
  Se  Se205  1  0.08160830  0.07961203  0.30291361  1
  Se  Se206  1  0.07893578  0.06594887  0.80521628  1
  Se  Se207  1  0.08901713  0.42533656  0.29407504  1
  Se  Se208  1  0.07909891  0.41790358  0.80302977  1
  Se  Se209  1  0.08886807  0.75582864  0.30508911  1
  Se  Se210  1  0.09323207  0.75581358  0.81789551  1
  Se  Se211  1  0.41294395  0.07563563  0.30373427  1
  Se  Se212  1  0.42951923  0.08570398  0.79767147  1
  Se  Se213  1  0.42014337  0.41845503  0.30897470  1
  Se  Se214  1  0.41992499  0.42467002  0.80973454  1
  Se  Se215  1  0.42158623  0.75128874  0.31047326  1
  Se  Se216  1  0.41987526  0.75352998  0.81009446  1
  Se  Se217  1  0.76803369  0.10177901  0.29963460  1
  Se  Se218  1  0.74798588  0.08195614  0.79960904  1
  Se  Se219  1  0.74866964  0.41877816  0.30555998  1
  Se  Se220  1  0.75013631  0.42503408  0.81441031  1
  Se  Se221  1  0.74268601  0.74868593  0.30310980  1
  Se  Se222  1  0.74467440  0.74956807  0.79958136  1
  Se  Se223  1  0.25150248  0.07805442  0.19928843  1
  Se  Se224  1  0.23781061  0.10142154  0.69847695  1
  Se  Se225  1  0.25685120  0.42790213  0.17757779  1
  Se  Se226  1  0.24386476  0.42657860  0.69226325  1
  Se  Se227  1  0.24277327  0.76475713  0.18423025  1
  Se  Se228  1  0.25765608  0.74579220  0.70748165  1
  Se  Se229  1  0.58179589  0.07680777  0.19670460  1
  Se  Se230  1  0.58041127  0.08555372  0.70177715  1
  Se  Se231  1  0.59151052  0.41053789  0.20096186  1
  Se  Se232  1  0.57696256  0.42616837  0.69397665  1
  Se  Se233  1  0.57998931  0.75124724  0.19528691  1
  Se  Se234  1  0.58536671  0.75082770  0.69794886  1
  Se  Se235  1  0.92597120  0.07216824  0.20137449  1
  Se  Se236  1  0.91893612  0.07689731  0.69531921  1
  Se  Se237  1  0.92050760  0.42892592  0.19840045  1
  Se  Se238  1  0.91426752  0.41156223  0.70110971  1
  Se  Se239  1  0.90632881  0.75842389  0.18563883  1
  Se  Se240  1  0.90832784  0.75085904  0.68776353  1
  Se  Se241  1  0.08909967  0.25424910  0.19753341  1
  Se  Se242  1  0.07527979  0.25636122  0.70461553  1
  Se  Se243  1  0.09420612  0.59095325  0.17480228  1
  Se  Se244  1  0.09069995  0.57671723  0.69077865  1
  Se  Se245  1  0.07693675  0.92327716  0.19658510  1
  Se  Se246  1  0.09005597  0.90473502  0.69917573  1
  Se  Se247  1  0.42379377  0.24255675  0.18814482  1
  Se  Se248  1  0.42765586  0.25608659  0.69139422  1
  Se  Se249  1  0.42682591  0.57081998  0.18999472  1
  Se  Se250  1  0.41540170  0.59059617  0.70005430  1
  Se  Se251  1  0.41258812  0.91197487  0.19008816  1
  Se  Se252  1  0.41862048  0.91916928  0.69868987  1
  Se  Se253  1  0.76813240  0.23077064  0.20037517  1
  Se  Se254  1  0.75438527  0.24020213  0.68397418  1
  Se  Se255  1  0.74574874  0.58873300  0.20035784  1
  Se  Se256  1  0.74479239  0.58261697  0.69759188  1
  Se  Se257  1  0.74058330  0.91597760  0.19529037  1
  Se  Se258  1  0.74743309  0.91873884  0.69373987  1
