# generated using pymatgen
data_In86Cu29Se144
_symmetry_space_group_name_H-M   'P 1'
_cell_length_a   17.58268322
_cell_length_b   17.58999727
_cell_length_c   23.44906029
_cell_angle_alpha   90.01028160
_cell_angle_beta   90.00196687
_cell_angle_gamma   90.01067183
_symmetry_Int_Tables_number   1
_chemical_formula_structural   In86Cu29Se144
_chemical_formula_sum   'In86 Cu29 Se144'
_cell_volume   7252.30987723
_cell_formula_units_Z   1
loop_
 _symmetry_equiv_pos_site_id
 _symmetry_equiv_pos_as_xyz
  1  'x, y, z'
loop_
 _atom_site_type_symbol
 _atom_site_label
 _atom_site_symmetry_multiplicity
 _atom_site_fract_x
 _atom_site_fract_y
 _atom_site_fract_z
 _atom_site_occupancy
  In  In0  1  -0.01640814  0.15965356  0.12294372  1
  In  In1  1  -0.02187141  0.15816749  0.60224271  1
  In  In2  1  0.00314627  0.49464804  0.12008851  1
  In  In3  1  -0.00947631  0.50275479  0.62337430  1
  In  In4  1  -0.00087705  0.85011400  0.12666601  1
  In  In5  1  -0.00670445  0.84892099  0.62755885  1
  In  In6  1  0.33337405  0.15611603  0.12978513  1
  In  In7  1  0.35104286  0.18136989  0.61662948  1
  In  In8  1  0.34090133  0.49947351  0.11897338  1
  In  In9  1  0.33915964  0.48045967  0.63587051  1
  In  In10  1  0.34463795  0.83651475  0.12509577  1
  In  In11  1  0.34345267  0.82291577  0.62493439  1
  In  In12  1  0.66945580  0.16597673  0.12733066  1
  In  In13  1  0.66754965  0.16380198  0.62477408  1
  In  In14  1  0.65721087  0.50426818  0.12196239  1
  In  In15  1  0.66661603  0.50098970  0.63278691  1
  In  In16  1  0.67713758  0.83969791  0.10881659  1
  In  In17  1  0.67031932  0.83869344  0.62230286  1
  In  In18  1  0.17241236  0.01226571  0.37088458  1
  In  In19  1  0.15877044  0.01431258  0.87433182  1
  In  In20  1  0.15203351  0.32623903  0.37935974  1
  In  In21  1  0.18227378  0.33567612  0.87254097  1
  In  In22  1  0.17988419  0.66547798  0.37543747  1
  In  In23  1  0.14929057  0.66039782  0.88141510  1
  In  In24  1  0.50555437  0.00145114  0.37532673  1
  In  In25  1  0.51664552  -0.01478361  0.88725828  1
  In  In26  1  0.51469374  0.32066379  0.38276361  1
  In  In27  1  0.50144461  0.33472356  0.87181114  1
  In  In28  1  0.50913272  0.66171132  0.38334470  1
  In  In29  1  0.52505846  0.65054071  0.89109107  1
  In  In30  1  0.82654067  0.00427558  0.37343678  1
  In  In31  1  0.82671153  0.00062364  0.87419622  1
  In  In32  1  0.83026977  0.33367139  0.38520312  1
  In  In33  1  0.80507570  0.33914296  0.86718754  1
  In  In34  1  0.82526360  0.66825040  0.38430445  1
  In  In35  1  0.82885972  0.67322577  0.87480545  1
  In  In36  1  0.00230671  0.16831178  0.38409849  1
  In  In37  1  -0.00609689  0.15396246  0.87196049  1
  In  In38  1  -0.00659407  0.48344707  0.37728584  1
  In  In39  1  -0.00173095  0.51703601  0.88131909  1
  In  In40  1  -0.01989348  0.83628197  0.37500747  1
  In  In41  1  -0.03110279  0.83308417  0.87852477  1
  In  In42  1  0.34654414  0.15746437  0.38383977  1
  In  In43  1  0.34266536  0.18432210  0.86977878  1
  In  In44  1  0.34190818  0.50971407  0.37404921  1
  In  In45  1  0.34855698  0.48775637  0.87819177  1
  In  In46  1  0.33648542  0.84799191  0.37409917  1
  In  In47  1  0.34691822  0.83895023  0.87539456  1
  In  In48  1  0.66770773  0.16299889  0.37477984  1
  In  In49  1  0.66689238  0.16317455  0.87584215  1
  In  In50  1  0.67472104  0.48721841  0.38381069  1
  In  In51  1  0.64993540  0.49045316  0.85608287  1
  In  In52  1  0.65921062  0.84328702  0.38156168  1
  In  In53  1  0.66698490  0.83394482  0.87405079  1
  In  In54  1  0.16267945  0.00666653  0.13782507  1
  In  In55  1  0.14984444  0.00319574  0.62565185  1
  In  In56  1  0.16235857  0.33876652  0.12306183  1
  In  In57  1  0.17787674  0.33182623  0.62596336  1
  In  In58  1  0.17087974  0.66236596  0.12199745  1
  In  In59  1  0.16881914  0.65672933  0.62575926  1
  In  In60  1  0.50222825  0.00329160  0.12590955  1
  In  In61  1  0.51353263  0.01036707  0.61866281  1
  In  In62  1  0.51468693  0.34034287  0.11921594  1
  In  In63  1  0.50897530  0.33473325  0.63194583  1
  In  In64  1  0.51113778  0.66842369  0.10843404  1
  In  In65  1  0.51134262  0.67062538  0.62589910  1
  In  In66  1  0.83019307  0.00079943  0.12638883  1
  In  In67  1  0.83177427  0.00287875  0.62036693  1
  In  In68  1  0.83371095  0.31185819  0.12365359  1
  In  In69  1  0.82730646  0.32669373  0.61909995  1
  In  In70  1  0.81533908  0.67532553  0.11510275  1
  In  In71  1  0.81119782  0.65285169  0.61845373  1
  In  In72  1  0.66403420  0.67102076  0.24229390  1
  In  In73  1  0.16906065  0.83754592  0.50622084  1
  In  In74  1  0.33611392  0.00760102  0.74846256  1
  In  In75  1  0.82968835  0.49758347  -0.00502346  1
  In  In76  1  0.33596521  0.32983496  0.24896805  1
  In  In77  1  0.33521622  0.66968737  0.24868004  1
  In  In78  1  0.33806192  0.66282938  0.75016418  1
  In  In79  1  -0.01465762  0.67133456  0.75789958  1
  In  In80  1  0.17057976  0.17199031  0.00303442  1
  In  In81  1  -0.00107586  0.66875901  0.24444240  1
  In  In82  1  -0.00516320  0.32391847  0.25786287  1
  In  In83  1  -0.00306922  0.33041858  0.74041984  1
  In  In84  1  0.16321011  0.83109351  0.00487239  1
  In  In85  1  0.16958007  0.49922316  0.49603746  1
  Cu  Cu86  1  0.33868658  0.00000514  0.49688274  1
  Cu  Cu87  1  0.33925788  0.00558169  0.00342166  1
  Cu  Cu88  1  0.83418388  0.16020468  0.74605304  1
  Cu  Cu89  1  0.16086514  0.84074796  0.75059853  1
  Cu  Cu90  1  0.50509435  0.16327674  0.25556463  1
  Cu  Cu91  1  0.33986621  0.33353830  0.50411486  1
  Cu  Cu92  1  0.35031633  0.66309868  0.50304930  1
  Cu  Cu93  1  0.66571014  0.32799354  -0.00555634  1
  Cu  Cu94  1  0.83471025  0.49310008  0.25585294  1
  Cu  Cu95  1  0.16378864  0.16620880  0.25496370  1
  Cu  Cu96  1  0.16245552  0.16533092  0.74621750  1
  Cu  Cu97  1  0.66948022  0.00308462  0.00093984  1
  Cu  Cu98  1  0.51158441  0.83649075  0.75003417  1
  Cu  Cu99  1  -0.01175089  -0.00479553  -0.00119267  1
  Cu  Cu100  1  -0.00606437  0.66750767  0.50099330  1
  Cu  Cu101  1  0.16050548  0.84048645  0.25470538  1
  Cu  Cu102  1  -0.00401189  -0.00149585  0.49693255  1
  Cu  Cu103  1  0.66114272  0.33149757  0.50605817  1
  Cu  Cu104  1  0.66774899  0.66563482  0.50570652  1
  Cu  Cu105  1  0.16424194  0.49831441  0.75663545  1
  Cu  Cu106  1  0.66912448  0.00409134  0.49849096  1
  Cu  Cu107  1  0.82670420  0.84348293  0.24865073  1
  Cu  Cu108  1  0.82747364  0.84165466  0.74693343  1
  Cu  Cu109  1  0.50621644  0.49525761  0.24658742  1
  Cu  Cu110  1  0.49910306  0.84400460  0.24932137  1
  Cu  Cu111  1  0.34428875  0.34195762  -0.00424121  1
  Cu  Cu112  1  0.00017102  0.33260498  -0.00128320  1
  Cu  Cu113  1  0.50447105  0.16602572  0.74769206  1
  Cu  Cu114  1  0.33125966  0.66496248  -0.00084595  1
  Se  Se115  1  0.07899839  0.07312966  0.05468396  1
  Se  Se116  1  0.08343171  0.08146101  0.54729143  1
  Se  Se117  1  0.08500331  0.41558757  0.04871911  1
  Se  Se118  1  0.08286918  0.41571071  0.56157932  1
  Se  Se119  1  0.07048221  0.74370714  0.06342882  1
  Se  Se120  1  0.07697334  0.74250715  0.56272742  1
  Se  Se121  1  0.42017976  0.08999108  0.05634789  1
  Se  Se122  1  0.42058019  0.08371002  0.55213195  1
  Se  Se123  1  0.42854684  0.42215539  0.05217865  1
  Se  Se124  1  0.42173923  0.41404971  0.56022198  1
  Se  Se125  1  0.41233444  0.75006420  0.05240515  1
  Se  Se126  1  0.42874800  0.75225897  0.55371903  1
  Se  Se127  1  0.75256606  0.08554618  0.05561261  1
  Se  Se128  1  0.75238415  0.08876436  0.55126376  1
  Se  Se129  1  0.74620021  0.40606156  0.05917786  1
  Se  Se130  1  0.74283925  0.41791604  0.55821673  1
  Se  Se131  1  0.72774874  0.73437460  0.04135500  1
  Se  Se132  1  0.75225542  0.75513088  0.55192927  1
  Se  Se133  1  0.26546639  0.26271268  0.06031150  1
  Se  Se134  1  0.25113673  0.25006526  0.55178439  1
  Se  Se135  1  0.25161701  0.58069771  0.05385709  1
  Se  Se136  1  0.26535920  0.58317167  0.56003783  1
  Se  Se137  1  0.25087169  0.92970935  0.06141213  1
  Se  Se138  1  0.26148194  0.92693681  0.56567264  1
  Se  Se139  1  0.58741417  0.24628296  0.05402986  1
  Se  Se140  1  0.57918384  0.24626240  0.55904575  1
  Se  Se141  1  0.58904021  0.57971909  0.04412343  1
  Se  Se142  1  0.58570000  0.58007209  0.55804297  1
  Se  Se143  1  0.58024021  0.92193351  0.05248298  1
  Se  Se144  1  0.58561543  0.91816337  0.55104258  1
  Se  Se145  1  0.91803229  0.24524754  0.04746831  1
  Se  Se146  1  0.92252516  0.26901713  0.54573923  1
  Se  Se147  1  0.91614145  0.58677200  0.06014886  1
  Se  Se148  1  0.91156861  0.58384337  0.55361217  1
  Se  Se149  1  0.90791826  0.91210827  0.05411173  1
  Se  Se150  1  0.91319445  0.91547814  0.55057120  1
  Se  Se151  1  0.07804848  0.25415281  0.45466971  1
  Se  Se152  1  0.08031765  0.25339139  0.93563815  1
  Se  Se153  1  0.07636931  0.59286832  0.43842690  1
  Se  Se154  1  0.08613187  0.57622917  0.95636877  1
  Se  Se155  1  0.08107714  0.91797103  0.43840661  1
  Se  Se156  1  0.07600357  0.92062171  0.93949893  1
  Se  Se157  1  0.42167881  0.24822372  0.44996695  1
  Se  Se158  1  0.42318505  0.25130950  0.94652575  1
  Se  Se159  1  0.42664319  0.57484388  0.44935046  1
  Se  Se160  1  0.41607974  0.58315614  0.94625572  1
  Se  Se161  1  0.42284947  0.91583192  0.44627218  1
  Se  Se162  1  0.41720475  0.91604212  0.95254845  1
  Se  Se163  1  0.74193663  0.24938236  0.44822898  1
  Se  Se164  1  0.75356933  0.24731041  0.94382641  1
  Se  Se165  1  0.74874149  0.57982173  0.45061992  1
  Se  Se166  1  0.73929477  0.57587067  0.92936189  1
  Se  Se167  1  0.75250467  0.91750931  0.44682912  1
  Se  Se168  1  0.74949827  0.91661348  0.94547959  1
  Se  Se169  1  0.25017797  0.08315323  0.44858177  1
  Se  Se170  1  0.26086762  0.08326929  0.94019307  1
  Se  Se171  1  0.26192284  0.40790733  0.43681574  1
  Se  Se172  1  0.25131359  0.41958217  0.94691195  1
  Se  Se173  1  0.26377263  0.74513725  0.44752523  1
  Se  Se174  1  0.25399914  0.74760768  0.93818221  1
  Se  Se175  1  0.58162193  0.08615012  0.44683246  1
  Se  Se176  1  0.58348332  0.08687607  0.94974194  1
  Se  Se177  1  0.57991827  0.41763318  0.45112146  1
  Se  Se178  1  0.58801574  0.41571965  0.94051376  1
  Se  Se179  1  0.58706345  0.74950786  0.44893178  1
  Se  Se180  1  0.56517896  0.77307238  0.94090865  1
  Se  Se181  1  0.91213940  0.08222081  0.44476370  1
  Se  Se182  1  0.91090952  0.08324411  0.94542630  1
  Se  Se183  1  0.91294436  0.41842803  0.45244759  1
  Se  Se184  1  0.91794634  0.40509477  0.93285991  1
  Se  Se185  1  0.91167654  0.75248714  0.44916428  1
  Se  Se186  1  0.92850290  0.72697252  0.94550505  1
  Se  Se187  1  0.24684411  0.24447376  0.31393533  1
  Se  Se188  1  0.24737573  0.24653165  0.79893819  1
  Se  Se189  1  0.24268301  0.57194111  0.30134920  1
  Se  Se190  1  0.24359856  0.58098238  0.81438744  1
  Se  Se191  1  0.24996176  0.92050627  0.30464294  1
  Se  Se192  1  0.24474727  0.91603157  0.81078632  1
  Se  Se193  1  0.58818740  0.25091303  0.30372315  1
  Se  Se194  1  0.58478331  0.24629209  0.80686894  1
  Se  Se195  1  0.58531093  0.57657295  0.30789639  1
  Se  Se196  1  0.58103360  0.59658721  0.79921745  1
  Se  Se197  1  0.58739195  0.91965376  0.30367370  1
  Se  Se198  1  0.58989101  0.92395101  0.80355068  1
  Se  Se199  1  0.90227612  0.23716134  0.31361243  1
  Se  Se200  1  0.90798360  0.24693552  0.80769789  1
  Se  Se201  1  0.91122189  0.58092563  0.31117733  1
  Se  Se202  1  0.89901325  0.56857446  0.80665784  1
  Se  Se203  1  0.91290173  0.92207132  0.30230936  1
  Se  Se204  1  0.91335071  0.92147507  0.80214222  1
  Se  Se205  1  0.07639150  0.08715981  0.30809925  1
  Se  Se206  1  0.07837867  0.08261404  0.79776048  1
  Se  Se207  1  0.09194258  0.42294042  0.30455598  1
  Se  Se208  1  0.07874135  0.41840858  0.81259984  1
  Se  Se209  1  0.08797786  0.75385307  0.31342447  1
  Se  Se210  1  0.08327804  0.76191958  0.81316479  1
  Se  Se211  1  0.41752451  0.08120181  0.30570514  1
  Se  Se212  1  0.42950755  0.08469808  0.81353150  1
  Se  Se213  1  0.42705788  0.41883769  0.30969377  1
  Se  Se214  1  0.41305898  0.40916240  0.80137220  1
  Se  Se215  1  0.42854613  0.75468363  0.31031172  1
  Se  Se216  1  0.42800375  0.75536112  0.80646040  1
  Se  Se217  1  0.73145626  0.06827960  0.30392306  1
  Se  Se218  1  0.74827992  0.08310115  0.80283463  1
  Se  Se219  1  0.75188145  0.41136539  0.30867827  1
  Se  Se220  1  0.72892986  0.40352200  0.78709545  1
  Se  Se221  1  0.75237970  0.75582725  0.30797938  1
  Se  Se222  1  0.75159855  0.75448653  0.80315408  1
  Se  Se223  1  0.25216342  0.08431435  0.20442089  1
  Se  Se224  1  0.24810002  0.09224869  0.68380893  1
  Se  Se225  1  0.24800945  0.42405911  0.19132273  1
  Se  Se226  1  0.24505618  0.41270244  0.70407897  1
  Se  Se227  1  0.23992468  0.76229156  0.19210695  1
  Se  Se228  1  0.23932991  0.75737028  0.69428244  1
  Se  Se229  1  0.58540815  0.08215479  0.19646765  1
  Se  Se230  1  0.58786454  0.08078472  0.69772549  1
  Se  Se231  1  0.59306523  0.41451436  0.19597029  1
  Se  Se232  1  0.60171564  0.40307685  0.70290591  1
  Se  Se233  1  0.57382811  0.76233133  0.18529040  1
  Se  Se234  1  0.59185888  0.75386154  0.69428318  1
  Se  Se235  1  0.91939047  0.07527351  0.19603390  1
  Se  Se236  1  0.92015933  0.08520856  0.68810726  1
  Se  Se237  1  0.91295445  0.41753622  0.19103411  1
  Se  Se238  1  0.90200943  0.42485818  0.69178088  1
  Se  Se239  1  0.90183257  0.75661543  0.18908234  1
  Se  Se240  1  0.90496352  0.75563206  0.68762187  1
  Se  Se241  1  0.08780780  0.24189989  0.18932419  1
  Se  Se242  1  0.08237085  0.23804704  0.68078765  1
  Se  Se243  1  0.09117743  0.57324818  0.19326817  1
  Se  Se244  1  0.08354568  0.57897271  0.69841747  1
  Se  Se245  1  0.07617233  0.92306630  0.20276519  1
  Se  Se246  1  0.07600248  0.92305254  0.70046103  1
  Se  Se247  1  0.43006607  0.24407275  0.19007412  1
  Se  Se248  1  0.41907154  0.25140171  0.69898003  1
  Se  Se249  1  0.43077301  0.58286736  0.18972516  1
  Se  Se250  1  0.42908048  0.57385802  0.69318421  1
  Se  Se251  1  0.41303249  0.92434130  0.19662853  1
  Se  Se252  1  0.42545504  0.91336341  0.69112760  1
  Se  Se253  1  0.75094410  0.24774701  0.19799909  1
  Se  Se254  1  0.75308649  0.24562225  0.69322604  1
  Se  Se255  1  0.76089739  0.57500804  0.19151463  1
  Se  Se256  1  0.74057884  0.59298291  0.70150695  1
  Se  Se257  1  0.74031534  0.91594226  0.19078259  1
  Se  Se258  1  0.74746956  0.92623352  0.69228573  1
