# generated using pymatgen
data_In86Cu29Se144
_symmetry_space_group_name_H-M   'P 1'
_cell_length_a   17.59204290
_cell_length_b   17.59218306
_cell_length_c   23.45389942
_cell_angle_alpha   90.01565514
_cell_angle_beta   89.98066952
_cell_angle_gamma   90.00073383
_symmetry_Int_Tables_number   1
_chemical_formula_structural   In86Cu29Se144
_chemical_formula_sum   'In86 Cu29 Se144'
_cell_volume   7258.56931734
_cell_formula_units_Z   1
loop_
 _symmetry_equiv_pos_site_id
 _symmetry_equiv_pos_as_xyz
  1  'x, y, z'
loop_
 _atom_site_type_symbol
 _atom_site_label
 _atom_site_symmetry_multiplicity
 _atom_site_fract_x
 _atom_site_fract_y
 _atom_site_fract_z
 _atom_site_occupancy
  In  In0  1  0.00157746  0.15066447  0.12349546  1
  In  In1  1  0.00104139  0.15944507  0.61887479  1
  In  In2  1  0.00323870  0.51558997  0.11693525  1
  In  In3  1  0.00192867  0.50158319  0.63256281  1
  In  In4  1  -0.00030844  0.83073261  0.11739967  1
  In  In5  1  -0.02231643  0.85475323  0.64626013  1
  In  In6  1  0.32003328  0.15509930  0.11762603  1
  In  In7  1  0.31930567  0.16754936  0.62582961  1
  In  In8  1  0.32708403  0.50941606  0.11892750  1
  In  In9  1  0.32169315  0.51506455  0.63165194  1
  In  In10  1  0.33490936  0.84828594  0.12468585  1
  In  In11  1  0.34086230  0.82511792  0.63317320  1
  In  In12  1  0.66497857  0.18030620  0.11648578  1
  In  In13  1  0.67007300  0.14198366  0.63108433  1
  In  In14  1  0.70036837  0.51952440  0.09995786  1
  In  In15  1  0.67973464  0.52285675  0.62423359  1
  In  In16  1  0.68038840  0.81948937  0.12822893  1
  In  In17  1  0.67512202  0.83753858  0.62235901  1
  In  In18  1  0.17244183  -0.00456260  0.37366475  1
  In  In19  1  0.16447110  -0.00201108  0.87150189  1
  In  In20  1  0.15465811  0.33162180  0.38666289  1
  In  In21  1  0.15440507  0.33994086  0.88421526  1
  In  In22  1  0.14701566  0.67594233  0.37914592  1
  In  In23  1  0.16461848  0.66265852  0.87328786  1
  In  In24  1  0.48809039  -0.00244950  0.37331435  1
  In  In25  1  0.50423592  0.00272444  0.87275810  1
  In  In26  1  0.50869640  0.33377378  0.37761262  1
  In  In27  1  0.48524831  0.33020495  0.87711164  1
  In  In28  1  0.51691654  0.66494390  0.37446777  1
  In  In29  1  0.51023457  0.67949454  0.86787214  1
  In  In30  1  0.85164019  -0.02067510  0.39243421  1
  In  In31  1  0.82606482  -0.01706371  0.85620134  1
  In  In32  1  0.83711973  0.32874592  0.38354097  1
  In  In33  1  0.84932697  0.32724747  0.87300125  1
  In  In34  1  0.83863407  0.67336393  0.36774913  1
  In  In35  1  0.83159207  0.66754082  0.87392749  1
  In  In36  1  0.02263394  0.13849140  0.40099751  1
  In  In37  1  0.00231715  0.16800266  0.86896854  1
  In  In38  1  -0.00587216  0.51660504  0.38046433  1
  In  In39  1  -0.00204990  0.49935872  0.87561427  1
  In  In40  1  -0.00597124  0.82978543  0.36783988  1
  In  In41  1  0.00012830  0.83362503  0.86835529  1
  In  In42  1  0.32751620  0.14705596  0.37528004  1
  In  In43  1  0.33298225  0.15694625  0.87944937  1
  In  In44  1  0.32945398  0.49010374  0.37372037  1
  In  In45  1  0.32225656  0.49579485  0.87544288  1
  In  In46  1  0.32886928  0.84983615  0.37742751  1
  In  In47  1  0.32496868  0.82121813  0.86531363  1
  In  In48  1  0.67252506  0.17374261  0.37835195  1
  In  In49  1  0.67163046  0.14761425  0.87817730  1
  In  In50  1  0.66851118  0.50733403  0.37217033  1
  In  In51  1  0.66632846  0.51840353  0.88173174  1
  In  In52  1  0.67986248  0.81166847  0.39534637  1
  In  In53  1  0.67934836  0.83127494  0.87392151  1
  In  In54  1  0.16343088  0.00163182  0.12039237  1
  In  In55  1  0.15566781  0.01385692  0.63108800  1
  In  In56  1  0.16817143  0.33680608  0.11937432  1
  In  In57  1  0.13668857  0.31534152  0.60331600  1
  In  In58  1  0.15117229  0.65993046  0.11137697  1
  In  In59  1  0.16623196  0.66331721  0.62900571  1
  In  In60  1  0.48649506  -0.00441440  0.12323834  1
  In  In61  1  0.51319024  -0.01657403  0.63503936  1
  In  In62  1  0.52288846  0.32764342  0.11896951  1
  In  In63  1  0.50006326  0.33452222  0.62751769  1
  In  In64  1  0.50525679  0.68223356  0.12513888  1
  In  In65  1  0.50156276  0.67847962  0.62434832  1
  In  In66  1  0.85080615  -0.00316780  0.12806149  1
  In  In67  1  0.83371048  -0.00520177  0.62106980  1
  In  In68  1  0.82228928  0.34692599  0.12094718  1
  In  In69  1  0.86014631  0.33259881  0.62483704  1
  In  In70  1  0.83996500  0.67378856  0.11604084  1
  In  In71  1  0.81797367  0.69560882  0.65288921  1
  In  In72  1  0.16114531  0.83327040  0.50988986  1
  In  In73  1  0.66897856  0.33629339  0.25062342  1
  In  In74  1  0.49329879  0.49446132  -0.00136400  1
  In  In75  1  0.67076450  0.33250268  0.75287145  1
  In  In76  1  0.32316644  0.33595750  0.75156620  1
  In  In77  1  0.66736702  -0.00915720  0.24912094  1
  In  In78  1  0.33569461  0.32878544  0.25320442  1
  In  In79  1  0.83779174  0.16442564  -0.00190695  1
  In  In80  1  0.50307853  0.83877316  -0.00568604  1
  In  In81  1  0.49615193  0.16194684  0.49591966  1
  In  In82  1  0.32782269  0.67831147  0.24675685  1
  In  In83  1  0.84268431  0.50516800  0.50654981  1
  In  In84  1  0.00124821  0.33026277  0.25188300  1
  In  In85  1  0.49377886  0.50947852  0.51313800  1
  Cu  Cu86  1  0.50397083  0.83617584  0.74984809  1
  Cu  Cu87  1  0.32785651  0.32164888  -0.00066173  1
  Cu  Cu88  1  0.32756278  0.66628368  -0.00673014  1
  Cu  Cu89  1  0.32581504  0.00197955  -0.00098395  1
  Cu  Cu90  1  0.67089703  -0.00688920  0.50557157  1
  Cu  Cu91  1  0.16800839  0.15413771  0.25086243  1
  Cu  Cu92  1  -0.00204460  0.66742725  -0.00750980  1
  Cu  Cu93  1  0.83961290  0.16006028  0.25376066  1
  Cu  Cu94  1  0.66527855  0.33330924  0.50697846  1
  Cu  Cu95  1  0.49115754  0.15839992  0.24164124  1
  Cu  Cu96  1  0.33266551  0.66697717  0.50546838  1
  Cu  Cu97  1  0.50266045  0.83495395  0.25165501  1
  Cu  Cu98  1  0.83491357  0.51197863  0.24241056  1
  Cu  Cu99  1  0.31995210  0.33622979  0.49919314  1
  Cu  Cu100  1  0.00008243  -0.00462711  -0.00538321  1
  Cu  Cu101  1  0.49796678  0.16082309  0.75612849  1
  Cu  Cu102  1  0.17116818  0.82914054  0.74978213  1
  Cu  Cu103  1  -0.00280234  0.66892354  0.50815769  1
  Cu  Cu104  1  0.83872699  0.16453037  0.74524641  1
  Cu  Cu105  1  0.00126727  0.33603000  0.00003813  1
  Cu  Cu106  1  0.15753388  0.83920071  0.24380861  1
  Cu  Cu107  1  0.16425094  0.49847283  0.75392014  1
  Cu  Cu108  1  0.50633021  0.51116683  0.74695803  1
  Cu  Cu109  1  0.51340888  0.50998027  0.24491031  1
  Cu  Cu110  1  0.16249213  0.16441285  0.74820809  1
  Cu  Cu111  1  0.16264791  0.50916978  0.24969465  1
  Cu  Cu112  1  0.66939668  -0.00399946  -0.00226012  1
  Cu  Cu113  1  0.33250736  0.00036902  0.50499727  1
  Cu  Cu114  1  0.83730321  0.50408467  0.75343107  1
  Se  Se115  1  0.08170132  0.08209622  0.04701076  1
  Se  Se116  1  0.08339869  0.07637861  0.54905802  1
  Se  Se117  1  0.08281989  0.42036162  0.05513274  1
  Se  Se118  1  0.08506527  0.43549108  0.55574938  1
  Se  Se119  1  0.08285600  0.75340257  0.04324525  1
  Se  Se120  1  0.06884529  0.75124911  0.57207939  1
  Se  Se121  1  0.41499531  0.08136047  0.05121309  1
  Se  Se122  1  0.41605265  0.07777077  0.56636829  1
  Se  Se123  1  0.40681792  0.40265473  0.06283443  1
  Se  Se124  1  0.40109047  0.40923368  0.56313228  1
  Se  Se125  1  0.40699806  0.74701830  0.05375136  1
  Se  Se126  1  0.41573779  0.75366743  0.55296746  1
  Se  Se127  1  0.74806469  0.07457226  0.06245542  1
  Se  Se128  1  0.75149101  0.08434008  0.55157987  1
  Se  Se129  1  0.73033412  0.39684317  0.04595856  1
  Se  Se130  1  0.74788215  0.41265577  0.56535210  1
  Se  Se131  1  0.75009245  0.75029826  0.04863009  1
  Se  Se132  1  0.76065838  0.74800294  0.56098166  1
  Se  Se133  1  0.24020949  0.24404600  0.05243095  1
  Se  Se134  1  0.24565042  0.24306773  0.54966978  1
  Se  Se135  1  0.24538937  0.58156333  0.04656352  1
  Se  Se136  1  0.24522663  0.58438788  0.55299717  1
  Se  Se137  1  0.24704680  0.91530760  0.05245081  1
  Se  Se138  1  0.25537529  0.92090706  0.56825482  1
  Se  Se139  1  0.58036845  0.24351157  0.04156500  1
  Se  Se140  1  0.58641731  0.24731794  0.56302538  1
  Se  Se141  1  0.58002692  0.59150774  0.05475535  1
  Se  Se142  1  0.59693641  0.60153332  0.55198820  1
  Se  Se143  1  0.59239468  0.92022318  0.06424283  1
  Se  Se144  1  0.57989563  0.91260605  0.55321115  1
  Se  Se145  1  0.92228627  0.25698009  0.06393191  1
  Se  Se146  1  0.92359931  0.24956404  0.55012366  1
  Se  Se147  1  0.91356053  0.58209442  0.04494697  1
  Se  Se148  1  0.91428393  0.59997901  0.57362947  1
  Se  Se149  1  0.91503276  0.91641575  0.04948670  1
  Se  Se150  1  0.91767305  0.90898834  0.55570458  1
  Se  Se151  1  0.08036170  0.24979799  0.45707913  1
  Se  Se152  1  0.07639605  0.24529331  0.94707691  1
  Se  Se153  1  0.08115717  0.58792346  0.45301123  1
  Se  Se154  1  0.08403641  0.57992114  0.94433354  1
  Se  Se155  1  0.07942443  0.91508237  0.43997885  1
  Se  Se156  1  0.08346837  0.91336879  0.94051300  1
  Se  Se157  1  0.40515439  0.25859588  0.43891045  1
  Se  Se158  1  0.41497152  0.24266222  0.94751015  1
  Se  Se159  1  0.40835020  0.58706651  0.43901404  1
  Se  Se160  1  0.41447481  0.59183576  0.93475325  1
  Se  Se161  1  0.41555576  0.91930682  0.45051649  1
  Se  Se162  1  0.40465880  0.92054540  0.93706255  1
  Se  Se163  1  0.74808589  0.25339408  0.45194624  1
  Se  Se164  1  0.74754154  0.25158415  0.93664663  1
  Se  Se165  1  0.75120177  0.58822442  0.44246454  1
  Se  Se166  1  0.76037874  0.58206376  0.94955661  1
  Se  Se167  1  0.75650990  0.90683263  0.45736773  1
  Se  Se168  1  0.75588798  0.92071555  0.94243177  1
  Se  Se169  1  0.24603972  0.07796361  0.45047248  1
  Se  Se170  1  0.24041869  0.08278382  0.94558162  1
  Se  Se171  1  0.24226835  0.42267345  0.44579008  1
  Se  Se172  1  0.25057516  0.41381714  0.94913244  1
  Se  Se173  1  0.25376552  0.74760542  0.44233421  1
  Se  Se174  1  0.24531240  0.75118298  0.94202056  1
  Se  Se175  1  0.59321482  0.07122423  0.43986294  1
  Se  Se176  1  0.58217504  0.07875372  0.94965157  1
  Se  Se177  1  0.58885455  0.41848009  0.44845793  1
  Se  Se178  1  0.58504896  0.41071844  0.93604486  1
  Se  Se179  1  0.56313030  0.75886958  0.44934477  1
  Se  Se180  1  0.59687251  0.74277267  0.94668517  1
  Se  Se181  1  0.89024400  0.10509018  0.43954076  1
  Se  Se182  1  0.91708964  0.07321799  0.93331208  1
  Se  Se183  1  0.93007120  0.41159590  0.44626824  1
  Se  Se184  1  0.91546829  0.41512974  0.94648148  1
  Se  Se185  1  0.92296707  0.74453900  0.44212578  1
  Se  Se186  1  0.91761422  0.75349282  0.93997953  1
  Se  Se187  1  0.24026470  0.24253335  0.31196271  1
  Se  Se188  1  0.23876391  0.24466604  0.81310463  1
  Se  Se189  1  0.24450107  0.58536965  0.31116384  1
  Se  Se190  1  0.25239579  0.58127503  0.80324452  1
  Se  Se191  1  0.24717300  0.91334580  0.29913272  1
  Se  Se192  1  0.25173279  0.91784050  0.80206345  1
  Se  Se193  1  0.57242763  0.23792642  0.30274667  1
  Se  Se194  1  0.57797831  0.24380271  0.81290127  1
  Se  Se195  1  0.59601243  0.59124969  0.29902364  1
  Se  Se196  1  0.59016544  0.58892448  0.80317292  1
  Se  Se197  1  0.58192592  0.90783267  0.31656298  1
  Se  Se198  1  0.58534896  0.91182332  0.81064940  1
  Se  Se199  1  0.91715295  0.24136949  0.31451589  1
  Se  Se200  1  0.92111871  0.24946619  0.79705845  1
  Se  Se201  1  0.92137062  0.58627322  0.30065947  1
  Se  Se202  1  0.92062326  0.58605522  0.80649409  1
  Se  Se203  1  0.91467026  0.92109573  0.30472636  1
  Se  Se204  1  0.92361446  0.91421750  0.79380085  1
  Se  Se205  1  0.08253065  0.07981211  0.30987671  1
  Se  Se206  1  0.08039032  0.07981813  0.80138289  1
  Se  Se207  1  0.08798540  0.42664778  0.31116896  1
  Se  Se208  1  0.08105397  0.41328659  0.80636872  1
  Se  Se209  1  0.08232858  0.75106586  0.29900741  1
  Se  Se210  1  0.08717096  0.74770829  0.80316301  1
  Se  Se211  1  0.41154589  0.07878396  0.29987249  1
  Se  Se212  1  0.41177279  0.07899192  0.80603396  1
  Se  Se213  1  0.43498750  0.42678580  0.30431409  1
  Se  Se214  1  0.42454714  0.42848889  0.80339918  1
  Se  Se215  1  0.41983995  0.75658210  0.31278203  1
  Se  Se216  1  0.41877235  0.74845538  0.79887100  1
  Se  Se217  1  0.74962717  0.08628199  0.30896699  1
  Se  Se218  1  0.75068009  0.08589928  0.79813453  1
  Se  Se219  1  0.76592901  0.42525699  0.30769342  1
  Se  Se220  1  0.75572526  0.42340485  0.81417104  1
  Se  Se221  1  0.73982024  0.74872482  0.30803000  1
  Se  Se222  1  0.75445329  0.75014211  0.80153544  1
  Se  Se223  1  0.25136560  0.07505243  0.19491909  1
  Se  Se224  1  0.25220227  0.08320520  0.70017936  1
  Se  Se225  1  0.24595741  0.42661567  0.19548674  1
  Se  Se226  1  0.23404094  0.41648687  0.68649715  1
  Se  Se227  1  0.23627935  0.75778943  0.18140631  1
  Se  Se228  1  0.25315375  0.74248005  0.69769361  1
  Se  Se229  1  0.58239677  0.08722528  0.18509346  1
  Se  Se230  1  0.58300216  0.07705648  0.70487768  1
  Se  Se231  1  0.59074888  0.42854437  0.18463128  1
  Se  Se232  1  0.58512167  0.42797389  0.68888231  1
  Se  Se233  1  0.58650209  0.75258063  0.19935624  1
  Se  Se234  1  0.58687191  0.75668835  0.69275290  1
  Se  Se235  1  0.92542918  0.07967860  0.20120637  1
  Se  Se236  1  0.91744708  0.08036671  0.68975356  1
  Se  Se237  1  0.91401804  0.42339399  0.18928874  1
  Se  Se238  1  0.91965377  0.41817340  0.70268934  1
  Se  Se239  1  0.93231062  0.73786214  0.18758878  1
  Se  Se240  1  0.92721872  0.74872725  0.71304053  1
  Se  Se241  1  0.09439733  0.24179170  0.19129950  1
  Se  Se242  1  0.08146388  0.24588701  0.69078758  1
  Se  Se243  1  0.08129399  0.58879592  0.19348946  1
  Se  Se244  1  0.08384016  0.58528722  0.70140861  1
  Se  Se245  1  0.07724359  0.92036748  0.18767676  1
  Se  Se246  1  0.09065589  0.91781709  0.69936649  1
  Se  Se247  1  0.41999378  0.24767993  0.18306322  1
  Se  Se248  1  0.42174466  0.24373189  0.69558921  1
  Se  Se249  1  0.42166508  0.58260738  0.18998362  1
  Se  Se250  1  0.42157112  0.58758130  0.69088804  1
  Se  Se251  1  0.41644777  0.91695394  0.20099598  1
  Se  Se252  1  0.41384738  0.91794357  0.70105933  1
  Se  Se253  1  0.76225938  0.24239902  0.19304872  1
  Se  Se254  1  0.75566759  0.24696047  0.68633490  1
  Se  Se255  1  0.75192083  0.59047305  0.18693318  1
  Se  Se256  1  0.74673129  0.58710873  0.70814992  1
  Se  Se257  1  0.76696974  0.90600650  0.19500562  1
  Se  Se258  1  0.73397922  0.93718609  0.69090931  1
