# generated using pymatgen
data_In86Cu29Se144
_symmetry_space_group_name_H-M   'P 1'
_cell_length_a   17.59657915
_cell_length_b   17.59221593
_cell_length_c   23.45731491
_cell_angle_alpha   90.01957687
_cell_angle_beta   90.00799106
_cell_angle_gamma   89.99887278
_symmetry_Int_Tables_number   1
_chemical_formula_structural   In86Cu29Se144
_chemical_formula_sum   'In86 Cu29 Se144'
_cell_volume   7261.51205628
_cell_formula_units_Z   1
loop_
 _symmetry_equiv_pos_site_id
 _symmetry_equiv_pos_as_xyz
  1  'x, y, z'
loop_
 _atom_site_type_symbol
 _atom_site_label
 _atom_site_symmetry_multiplicity
 _atom_site_fract_x
 _atom_site_fract_y
 _atom_site_fract_z
 _atom_site_occupancy
  In  In0  1  -0.00007267  0.17846288  0.11796779  1
  In  In1  1  0.01128907  0.17826029  0.62919112  1
  In  In2  1  -0.00230815  0.49473858  0.12721746  1
  In  In3  1  -0.01011299  0.48400968  0.61156251  1
  In  In4  1  -0.01513385  0.82931751  0.12594461  1
  In  In5  1  -0.00558085  0.82508171  0.61573022  1
  In  In6  1  0.33877759  0.15989267  0.12864533  1
  In  In7  1  0.33587292  0.15762742  0.63276673  1
  In  In8  1  0.32377156  0.50531521  0.13193160  1
  In  In9  1  0.31798504  0.50029430  0.62368333  1
  In  In10  1  0.33777796  0.82797678  0.12780487  1
  In  In11  1  0.33907523  0.83768437  0.61665127  1
  In  In12  1  0.67378389  0.17232957  0.11042682  1
  In  In13  1  0.65421598  0.16131223  0.62946466  1
  In  In14  1  0.67505912  0.48505224  0.12713777  1
  In  In15  1  0.69267364  0.50367853  0.62773215  1
  In  In16  1  0.67145106  0.84285772  0.11892981  1
  In  In17  1  0.67095848  0.82544717  0.63124753  1
  In  In18  1  0.17168266  -0.00924186  0.37244692  1
  In  In19  1  0.17343189  -0.00354744  0.87094091  1
  In  In20  1  0.16699573  0.33611492  0.37412647  1
  In  In21  1  0.17131632  0.33720053  0.87835055  1
  In  In22  1  0.16689871  0.66650749  0.37148605  1
  In  In23  1  0.15424227  0.66205742  0.87792091  1
  In  In24  1  0.49134325  -0.00204521  0.37397956  1
  In  In25  1  0.49663986  -0.00496950  0.87795151  1
  In  In26  1  0.50084890  0.33239289  0.36520651  1
  In  In27  1  0.48338236  0.33430876  0.87875311  1
  In  In28  1  0.50403016  0.68158660  0.37601097  1
  In  In29  1  0.51537933  0.66926896  0.87088777  1
  In  In30  1  0.82207357  -0.00202261  0.37690173  1
  In  In31  1  0.82072765  0.01152491  0.88273963  1
  In  In32  1  0.86914672  0.39200655  0.31299112  1
  In  In33  1  0.83961115  0.33408656  0.88132882  1
  In  In34  1  0.84591397  0.65530632  0.38319513  1
  In  In35  1  0.82666491  0.67514604  0.88470263  1
  In  In36  1  -0.01089963  0.18841199  0.37124843  1
  In  In37  1  -0.01822191  0.17601100  0.88651999  1
  In  In38  1  0.00413014  0.50466994  0.37575028  1
  In  In39  1  0.00478685  0.48941875  0.89239012  1
  In  In40  1  0.01284888  0.82217986  0.37983091  1
  In  In41  1  -0.00410536  0.82330714  0.87986415  1
  In  In42  1  0.33462254  0.16575645  0.36453054  1
  In  In43  1  0.33540642  0.16970936  0.87972448  1
  In  In44  1  0.32082809  0.48932965  0.36790765  1
  In  In45  1  0.33511764  0.48659029  0.87649575  1
  In  In46  1  0.33511919  0.83263887  0.37171217  1
  In  In47  1  0.34029984  0.85128785  0.87028756  1
  In  In48  1  0.65792558  0.17259045  0.37453068  1
  In  In49  1  0.66983321  0.15469983  0.87921266  1
  In  In50  1  0.68903708  0.49852669  0.37120035  1
  In  In51  1  0.67314865  0.51535389  0.87296330  1
  In  In52  1  0.66976348  0.82733779  0.38697761  1
  In  In53  1  0.65869256  0.83675575  0.87338846  1
  In  In54  1  0.17515618  0.00845467  0.12723272  1
  In  In55  1  0.17883414  0.00083480  0.62445645  1
  In  In56  1  0.15173849  0.34762692  0.13294374  1
  In  In57  1  0.15897099  0.34489550  0.63269901  1
  In  In58  1  0.17451811  0.65492544  0.13124779  1
  In  In59  1  0.15570558  0.65547791  0.61216490  1
  In  In60  1  0.48398957  -0.00612091  0.10952599  1
  In  In61  1  0.52493587  -0.03751633  0.65905025  1
  In  In62  1  0.50734967  0.32226572  0.12693213  1
  In  In63  1  0.50017312  0.31905977  0.62741572  1
  In  In64  1  0.48766910  0.66642685  0.12626739  1
  In  In65  1  0.50143928  0.68534223  0.62737564  1
  In  In66  1  0.83735271  -0.00169805  0.10708749  1
  In  In67  1  0.83815346  -0.01418330  0.63106042  1
  In  In68  1  0.84020363  0.33226418  0.11923171  1
  In  In69  1  0.84178533  0.35119563  0.62492562  1
  In  In70  1  0.83487825  0.66697103  0.12789113  1
  In  In71  1  0.82663073  0.65486981  0.62337610  1
  In  In72  1  0.66710986  0.66170247  0.24810462  1
  In  In73  1  0.16633776  0.83157334  -0.00258377  1
  In  In74  1  0.16830542  0.16751584  0.49456519  1
  In  In75  1  0.83026488  0.17077662  0.49790074  1
  In  In76  1  0.66303674  0.00341593  0.24169006  1
  In  In77  1  0.49672771  0.50645871  0.49999639  1
  In  In78  1  -0.00648811  0.65746373  0.75006005  1
  In  In79  1  0.00604153  0.00354840  0.24801502  1
  In  In80  1  0.49811838  0.15734756  0.50269517  1
  In  In81  1  -0.00011570  0.00509550  0.75820037  1
  In  In82  1  0.16539602  0.16706256  0.00158886  1
  In  In83  1  0.33620406  0.67102997  0.74468709  1
  In  In84  1  0.66670208  0.33152606  0.75245503  1
  In  In85  1  0.50341351  0.50238515  0.00112083  1
  Cu  Cu86  1  0.66806477  0.66901762  0.50426922  1
  Cu  Cu87  1  0.83968625  0.82878598  0.25392013  1
  Cu  Cu88  1  0.49691699  0.83740871  0.24886936  1
  Cu  Cu89  1  -0.00174413  0.66020416  0.00475300  1
  Cu  Cu90  1  0.49081407  0.16226428  0.75534542  1
  Cu  Cu91  1  0.82232888  0.83201457  0.75543996  1
  Cu  Cu92  1  0.00150750  0.67182323  0.49470618  1
  Cu  Cu93  1  0.65795664  -0.00444056  -0.00497452  1
  Cu  Cu94  1  0.49396789  0.50121370  0.24880568  1
  Cu  Cu95  1  0.66879096  0.67402866  0.00153813  1
  Cu  Cu96  1  0.16866077  0.17237411  0.24637369  1
  Cu  Cu97  1  0.34174802  -0.01175873  0.50300539  1
  Cu  Cu98  1  0.67748821  0.33992330  0.49208144  1
  Cu  Cu99  1  0.17283319  0.82945771  0.25198364  1
  Cu  Cu100  1  0.32624556  0.67021386  0.49553231  1
  Cu  Cu101  1  0.16880829  0.49371910  0.75405389  1
  Cu  Cu102  1  0.17015528  0.17793012  0.75422747  1
  Cu  Cu103  1  0.33517553  0.67151951  0.00234233  1
  Cu  Cu104  1  0.49735002  0.16510842  0.24327524  1
  Cu  Cu105  1  0.66939090  0.33188707  -0.00116037  1
  Cu  Cu106  1  0.32760793  0.33062405  0.49870872  1
  Cu  Cu107  1  0.16448228  0.50192505  0.25074229  1
  Cu  Cu108  1  0.82706602  0.17442415  0.23750703  1
  Cu  Cu109  1  0.50197494  0.49756005  0.75244664  1
  Cu  Cu110  1  -0.00062722  -0.00569898  0.49796099  1
  Cu  Cu111  1  0.83243393  0.17275495  0.75734709  1
  Cu  Cu112  1  0.16819370  0.83631142  0.74221586  1
  Cu  Cu113  1  0.66784615  -0.01240497  0.51038196  1
  Cu  Cu114  1  0.32718444  0.33547078  0.00432458  1
  Se  Se115  1  0.07554581  0.07162324  0.05896053  1
  Se  Se116  1  0.07637840  0.07772815  0.55793961  1
  Se  Se117  1  0.08222535  0.42028259  0.05501808  1
  Se  Se118  1  0.09507338  0.41961292  0.55234715  1
  Se  Se119  1  0.08212192  0.74263039  0.06298113  1
  Se  Se120  1  0.08666172  0.75425229  0.54803373  1
  Se  Se121  1  0.41424141  0.09431857  0.04880933  1
  Se  Se122  1  0.41817099  0.06698364  0.56662469  1
  Se  Se123  1  0.41251987  0.41610186  0.06264936  1
  Se  Se124  1  0.41294035  0.40655050  0.55905772  1
  Se  Se125  1  0.42030015  0.75323311  0.05264964  1
  Se  Se126  1  0.41484582  0.74606901  0.55021942  1
  Se  Se127  1  0.74636796  0.07852689  0.04480091  1
  Se  Se128  1  0.74525746  0.07777659  0.56328165  1
  Se  Se129  1  0.75342094  0.41586254  0.05007298  1
  Se  Se130  1  0.75684284  0.42044077  0.55003792  1
  Se  Se131  1  0.75450594  0.75179775  0.05828092  1
  Se  Se132  1  0.75403017  0.75017281  0.55786211  1
  Se  Se133  1  0.24854752  0.25703130  0.06721555  1
  Se  Se134  1  0.25462243  0.24978991  0.56323437  1
  Se  Se135  1  0.25451370  0.58474157  0.05354079  1
  Se  Se136  1  0.24910299  0.57961991  0.54677961  1
  Se  Se137  1  0.25567051  0.91971272  0.05829546  1
  Se  Se138  1  0.24505409  0.91376546  0.55067212  1
  Se  Se139  1  0.57920096  0.25070938  0.04654594  1
  Se  Se140  1  0.59618749  0.25735115  0.55086009  1
  Se  Se141  1  0.59295664  0.59046252  0.06444290  1
  Se  Se142  1  0.58965247  0.58672750  0.56502187  1
  Se  Se143  1  0.57876195  0.91140837  0.05053330  1
  Se  Se144  1  0.58158812  0.91033157  0.56491242  1
  Se  Se145  1  0.90345316  0.23605230  0.04919859  1
  Se  Se146  1  0.92398844  0.25676146  0.55837569  1
  Se  Se147  1  0.91358950  0.58046103  0.05954330  1
  Se  Se148  1  0.92169276  0.58941336  0.55354191  1
  Se  Se149  1  0.92103302  0.90846919  0.04831855  1
  Se  Se150  1  0.91315180  0.91616467  0.55211692  1
  Se  Se151  1  0.07221637  0.26192489  0.44701175  1
  Se  Se152  1  0.07563780  0.26208082  0.94792155  1
  Se  Se153  1  0.08645396  0.58705200  0.44441364  1
  Se  Se154  1  0.08855776  0.58155583  0.95456890  1
  Se  Se155  1  0.08780568  0.91776028  0.44446435  1
  Se  Se156  1  0.07701308  0.92408344  0.93899257  1
  Se  Se157  1  0.41248743  0.25283822  0.44126800  1
  Se  Se158  1  0.41224303  0.25227617  0.95336208  1
  Se  Se159  1  0.40780247  0.58941107  0.43477480  1
  Se  Se160  1  0.41356946  0.59110935  0.93807259  1
  Se  Se161  1  0.42258182  0.90896206  0.44447344  1
  Se  Se162  1  0.41552243  0.91456380  0.94980713  1
  Se  Se163  1  0.75238226  0.25878907  0.43081267  1
  Se  Se164  1  0.74902771  0.24785717  0.94195040  1
  Se  Se165  1  0.74825635  0.58476021  0.44891553  1
  Se  Se166  1  0.74889067  0.58402705  0.95232280  1
  Se  Se167  1  0.75399272  0.91393313  0.45150922  1
  Se  Se168  1  0.74594073  0.91355322  0.94410642  1
  Se  Se169  1  0.26593351  0.07443918  0.44239112  1
  Se  Se170  1  0.25528376  0.07298589  0.94609220  1
  Se  Se171  1  0.24722832  0.41629153  0.44693129  1
  Se  Se172  1  0.24850527  0.42169081  0.95097562  1
  Se  Se173  1  0.24717629  0.75460435  0.43982599  1
  Se  Se174  1  0.25778660  0.74466449  0.93438668  1
  Se  Se175  1  0.59467516  0.06822609  0.44416330  1
  Se  Se176  1  0.57604834  0.08502240  0.94657206  1
  Se  Se177  1  0.58470813  0.41508854  0.43897957  1
  Se  Se178  1  0.59054449  0.41347793  0.93685537  1
  Se  Se179  1  0.58056130  0.75126389  0.45472580  1
  Se  Se180  1  0.58184651  0.75117216  0.94740253  1
  Se  Se181  1  0.92449861  0.07899568  0.43760142  1
  Se  Se182  1  0.92194806  0.07259624  0.94762358  1
  Se  Se183  1  0.90424543  0.41093163  0.41874393  1
  Se  Se184  1  0.90494078  0.42189334  0.95532639  1
  Se  Se185  1  0.91388291  0.75662797  0.44634490  1
  Se  Se186  1  0.91759569  0.74886765  0.95410792  1
  Se  Se187  1  0.24957464  0.25401461  0.30420217  1
  Se  Se188  1  0.25556492  0.25544968  0.81058290  1
  Se  Se189  1  0.25078803  0.58527978  0.30189118  1
  Se  Se190  1  0.24754035  0.58142611  0.80946316  1
  Se  Se191  1  0.25554513  0.91815947  0.30024524  1
  Se  Se192  1  0.24973361  0.91769076  0.79715181  1
  Se  Se193  1  0.58152709  0.24545860  0.29822634  1
  Se  Se194  1  0.57350016  0.24542958  0.81333667  1
  Se  Se195  1  0.57637415  0.57573622  0.31244608  1
  Se  Se196  1  0.58703480  0.58345585  0.79859687  1
  Se  Se197  1  0.58567942  0.90888805  0.30888528  1
  Se  Se198  1  0.58337255  0.92489883  0.80469576  1
  Se  Se199  1  0.91806698  0.25033323  0.28851066  1
  Se  Se200  1  0.91794889  0.25498318  0.80616241  1
  Se  Se201  1  0.91454779  0.58162496  0.30520672  1
  Se  Se202  1  0.91621974  0.58005612  0.82424128  1
  Se  Se203  1  0.91593091  0.91580651  0.31177642  1
  Se  Se204  1  0.90907719  0.91022362  0.81283796  1
  Se  Se205  1  0.08976158  0.09600004  0.31326837  1
  Se  Se206  1  0.08824085  0.09951015  0.81616549  1
  Se  Se207  1  0.08418878  0.41732509  0.30514879  1
  Se  Se208  1  0.08355389  0.42012417  0.81296907  1
  Se  Se209  1  0.08301637  0.74837639  0.30043394  1
  Se  Se210  1  0.08905649  0.75699653  0.80295727  1
  Se  Se211  1  0.41994905  0.08024498  0.30015178  1
  Se  Se212  1  0.40977172  0.08051670  0.81062377  1
  Se  Se213  1  0.41313734  0.41419814  0.30143056  1
  Se  Se214  1  0.41556575  0.41502574  0.80081154  1
  Se  Se215  1  0.41867968  0.74932052  0.30173785  1
  Se  Se216  1  0.42466301  0.75724885  0.80624976  1
  Se  Se217  1  0.75498667  0.09342620  0.30287653  1
  Se  Se218  1  0.74907181  0.08315756  0.80196413  1
  Se  Se219  1  0.72252024  0.39784317  0.29762466  1
  Se  Se220  1  0.75677645  0.42168626  0.80906259  1
  Se  Se221  1  0.75440642  0.75174605  0.31195668  1
  Se  Se222  1  0.74439691  0.74635783  0.80973166  1
  Se  Se223  1  0.25319164  0.08358056  0.20133611  1
  Se  Se224  1  0.24296713  0.08557376  0.70078938  1
  Se  Se225  1  0.24893895  0.41535993  0.19996299  1
  Se  Se226  1  0.25574025  0.41427983  0.70028666  1
  Se  Se227  1  0.25460068  0.74605419  0.19595577  1
  Se  Se228  1  0.23840806  0.74852591  0.68184977  1
  Se  Se229  1  0.57600292  0.08924797  0.17878160  1
  Se  Se230  1  0.58302021  0.08404219  0.70564673  1
  Se  Se231  1  0.57616383  0.42054116  0.19289366  1
  Se  Se232  1  0.58137477  0.42154977  0.68609414  1
  Se  Se233  1  0.58137878  0.75952913  0.18997005  1
  Se  Se234  1  0.57992224  0.75562506  0.70171661  1
  Se  Se235  1  0.90873847  0.08376134  0.18660637  1
  Se  Se236  1  0.91236028  0.09423907  0.69248952  1
  Se  Se237  1  0.91319017  0.41262249  0.19563463  1
  Se  Se238  1  0.92282354  0.42343939  0.69752946  1
  Se  Se239  1  0.91930068  0.74353615  0.20099015  1
  Se  Se240  1  0.90836912  0.75762717  0.69449277  1
  Se  Se241  1  0.07797428  0.24852746  0.19575975  1
  Se  Se242  1  0.08242393  0.25878692  0.70360376  1
  Se  Se243  1  0.07945069  0.58161793  0.19558124  1
  Se  Se244  1  0.08979576  0.57270702  0.69238891  1
  Se  Se245  1  0.09210617  0.90722701  0.18870036  1
  Se  Se246  1  0.07947278  0.91498416  0.68792957  1
  Se  Se247  1  0.41297772  0.25333234  0.19556569  1
  Se  Se248  1  0.41463967  0.24844727  0.69884393  1
  Se  Se249  1  0.41151135  0.58733165  0.19891245  1
  Se  Se250  1  0.42398292  0.57459366  0.68620479  1
  Se  Se251  1  0.41783835  0.92051126  0.19269749  1
  Se  Se252  1  0.39501578  0.92109807  0.69645942  1
  Se  Se253  1  0.74301388  0.25618415  0.18503292  1
  Se  Se254  1  0.75652658  0.24549486  0.68674471  1
  Se  Se255  1  0.76066486  0.56869306  0.19720371  1
  Se  Se256  1  0.75806319  0.58389818  0.70423973  1
  Se  Se257  1  0.76537838  0.91367668  0.19275899  1
  Se  Se258  1  0.74656860  0.91950173  0.70025552  1
