# generated using pymatgen
data_In86Cu29Se144
_symmetry_space_group_name_H-M   'P 1'
_cell_length_a   17.58383131
_cell_length_b   17.58399928
_cell_length_c   23.44760841
_cell_angle_alpha   90.01593102
_cell_angle_beta   90.01245820
_cell_angle_gamma   90.01875112
_symmetry_Int_Tables_number   1
_chemical_formula_structural   In86Cu29Se144
_chemical_formula_sum   'In86 Cu29 Se144'
_cell_volume   7249.86080278
_cell_formula_units_Z   1
loop_
 _symmetry_equiv_pos_site_id
 _symmetry_equiv_pos_as_xyz
  1  'x, y, z'
loop_
 _atom_site_type_symbol
 _atom_site_label
 _atom_site_symmetry_multiplicity
 _atom_site_fract_x
 _atom_site_fract_y
 _atom_site_fract_z
 _atom_site_occupancy
  In  In0  1  -0.00351516  0.17188511  0.13171766  1
  In  In1  1  -0.00002267  0.15356266  0.62979103  1
  In  In2  1  -0.02130704  0.49919730  0.12700576  1
  In  In3  1  0.01709104  0.49541434  0.62838369  1
  In  In4  1  0.01599983  0.85531588  0.10023275  1
  In  In5  1  0.00051177  0.83540438  0.63446693  1
  In  In6  1  0.32569493  0.15491868  0.11801978  1
  In  In7  1  0.33329827  0.16741133  0.62419863  1
  In  In8  1  0.33981385  0.50032524  0.12461297  1
  In  In9  1  0.33573706  0.49416512  0.62734185  1
  In  In10  1  0.33818597  0.85072368  0.12539029  1
  In  In11  1  0.32510892  0.84194405  0.63552082  1
  In  In12  1  0.67732612  0.19001222  0.10372551  1
  In  In13  1  0.65469993  0.18025500  0.63748755  1
  In  In14  1  0.69919336  0.47806051  0.15224362  1
  In  In15  1  0.66028419  0.50436157  0.63090199  1
  In  In16  1  0.66978003  0.82180500  0.12590053  1
  In  In17  1  0.66962854  0.83254747  0.63670651  1
  In  In18  1  0.17797914  0.00788120  0.36628428  1
  In  In19  1  0.15072867  -0.00630506  0.86349777  1
  In  In20  1  0.16371448  0.33435208  0.38181046  1
  In  In21  1  0.17489124  0.31837181  0.86738015  1
  In  In22  1  0.16096003  0.65918155  0.37813276  1
  In  In23  1  0.17468143  0.67800671  0.86906834  1
  In  In24  1  0.49875380  0.02139494  0.37738011  1
  In  In25  1  0.51222062  0.00984154  0.86649794  1
  In  In26  1  0.50008110  0.33326072  0.37784194  1
  In  In27  1  0.49620115  0.32249069  0.87412154  1
  In  In28  1  0.49378853  0.65437649  0.37890085  1
  In  In29  1  0.49755338  0.66125822  0.86498417  1
  In  In30  1  0.83480063  -0.00886454  0.36665277  1
  In  In31  1  0.83400567  0.00301463  0.88505565  1
  In  In32  1  0.83115991  0.33610852  0.35802831  1
  In  In33  1  0.81991109  0.33761503  0.89040280  1
  In  In34  1  0.83241994  0.67361597  0.36666443  1
  In  In35  1  0.83345285  0.66721852  0.87449611  1
  In  In36  1  0.00393828  0.17361676  0.36925657  1
  In  In37  1  -0.00298342  0.14009013  0.87758060  1
  In  In38  1  0.00520818  0.50416169  0.37455410  1
  In  In39  1  -0.02041052  0.49386735  0.87626820  1
  In  In40  1  -0.00388381  0.83191146  0.36577308  1
  In  In41  1  -0.00021114  0.84099313  0.88341717  1
  In  In42  1  0.33719751  0.16083929  0.37976117  1
  In  In43  1  0.34053271  0.17599828  0.86285879  1
  In  In44  1  0.33467292  0.50112404  0.38763937  1
  In  In45  1  0.33106573  0.49528368  0.86513243  1
  In  In46  1  0.32469502  0.84260855  0.36949815  1
  In  In47  1  0.32649847  0.82931844  0.86832552  1
  In  In48  1  0.65172500  0.17472015  0.37670707  1
  In  In49  1  0.66640302  0.16892315  0.88065608  1
  In  In50  1  0.65953797  0.48995971  0.36653667  1
  In  In51  1  0.66965126  0.50016620  0.87021837  1
  In  In52  1  0.67554615  0.83515377  0.37005030  1
  In  In53  1  0.67248840  0.83649225  0.87234972  1
  In  In54  1  0.17058679  -0.00690268  0.13103339  1
  In  In55  1  0.16081695  0.01168386  0.63519334  1
  In  In56  1  0.16213346  0.31580131  0.12434684  1
  In  In57  1  0.17700116  0.33932418  0.62152348  1
  In  In58  1  0.15457600  0.67246749  0.12152083  1
  In  In59  1  0.17702107  0.65614070  0.63559978  1
  In  In60  1  0.48785861  0.00572422  0.12716407  1
  In  In61  1  0.48656192  0.01577525  0.63448156  1
  In  In62  1  0.51369521  0.34369309  0.11572907  1
  In  In63  1  0.50038281  0.33236780  0.62433333  1
  In  In64  1  0.52551454  0.67951389  0.12330948  1
  In  In65  1  0.50876403  0.65541049  0.63174569  1
  In  In66  1  0.85030839  0.01632074  0.10674714  1
  In  In67  1  0.83725056  0.00023996  0.64048372  1
  In  In68  1  0.83315836  0.33345338  0.12545352  1
  In  In69  1  0.82767743  0.31998736  0.63244782  1
  In  In70  1  0.82681921  0.66384932  0.11608516  1
  In  In71  1  0.83362213  0.66901937  0.63681235  1
  In  In72  1  0.83463461  0.49905643  0.49488804  1
  In  In73  1  -0.00434360  0.66832092  0.24738697  1
  In  In74  1  0.49919951  0.83565819  0.00120750  1
  In  In75  1  0.83207450  0.16547541  0.50099965  1
  In  In76  1  0.33756853  0.67597879  0.24829926  1
  In  In77  1  0.50347423  0.49910810  -0.00634637  1
  In  In78  1  0.83454404  0.83200994  0.49175413  1
  In  In79  1  0.33703925  0.32790779  0.24916848  1
  In  In80  1  0.16162346  0.49677215  -0.01093449  1
  In  In81  1  0.66269173  0.00064284  0.24400529  1
  In  In82  1  0.16658322  0.16150669  -0.00795371  1
  In  In83  1  0.16655993  0.82961775  0.49477769  1
  In  In84  1  0.49867767  0.83307490  0.50560792  1
  In  In85  1  -0.00141030  0.32893433  0.75381238  1
  Cu  Cu86  1  0.82974606  0.16335032  0.76115465  1
  Cu  Cu87  1  0.33622943  0.65905091  0.51003502  1
  Cu  Cu88  1  0.01038966  0.65551385  0.50563671  1
  Cu  Cu89  1  0.66350105  0.66253117  0.50425291  1
  Cu  Cu90  1  0.15800547  0.83930222  0.75298862  1
  Cu  Cu91  1  0.16221643  0.15920878  0.24807898  1
  Cu  Cu92  1  0.01118729  0.32952463  0.49890656  1
  Cu  Cu93  1  0.16533414  0.50599210  0.74962982  1
  Cu  Cu94  1  0.83572333  0.83398557  0.76066973  1
  Cu  Cu95  1  0.66927714  0.65906568  -0.00344131  1
  Cu  Cu96  1  0.33135354  -0.00104193  -0.00491394  1
  Cu  Cu97  1  0.65996977  0.01059466  0.51020013  1
  Cu  Cu98  1  0.50878477  0.50555945  0.25065638  1
  Cu  Cu99  1  0.66453516  0.00079009  -0.00541820  1
  Cu  Cu100  1  0.33564927  0.32996280  0.50280638  1
  Cu  Cu101  1  0.50174197  0.49183054  0.74904966  1
  Cu  Cu102  1  0.50233556  0.16644755  0.74903086  1
  Cu  Cu103  1  0.66120027  0.33822048  0.50039549  1
  Cu  Cu104  1  0.00313462  -0.00041096  0.50295859  1
  Cu  Cu105  1  0.82927471  0.50109584  0.75458772  1
  Cu  Cu106  1  0.32449976  0.67346102  -0.00296241  1
  Cu  Cu107  1  -0.00587036  0.66908784  -0.00159440  1
  Cu  Cu108  1  0.83911661  0.83390863  0.23884522  1
  Cu  Cu109  1  0.82853179  0.16301151  0.24032868  1
  Cu  Cu110  1  -0.00460941  0.33068825  0.00350121  1
  Cu  Cu111  1  0.49892513  0.82838824  0.75119452  1
  Cu  Cu112  1  0.33166389  0.00792900  0.50297601  1
  Cu  Cu113  1  0.50157532  0.17138165  0.24846434  1
  Cu  Cu114  1  0.16479812  0.49170263  0.25573318  1
  Se  Se115  1  0.08420775  0.08357011  0.06430432  1
  Se  Se116  1  0.08458334  0.08332919  0.55552334  1
  Se  Se117  1  0.07911054  0.41232654  0.06037720  1
  Se  Se118  1  0.08827207  0.41765986  0.55215899  1
  Se  Se119  1  0.08738633  0.74955611  0.04315062  1
  Se  Se120  1  0.08189727  0.74515796  0.56347949  1
  Se  Se121  1  0.41485737  0.08102706  0.04880629  1
  Se  Se122  1  0.42090002  0.08855433  0.55235445  1
  Se  Se123  1  0.40578543  0.41135390  0.05135133  1
  Se  Se124  1  0.41806810  0.41562302  0.55528398  1
  Se  Se125  1  0.41073028  0.74154758  0.06139724  1
  Se  Se126  1  0.40885726  0.74636237  0.56817914  1
  Se  Se127  1  0.74849519  0.08606956  0.04592894  1
  Se  Se128  1  0.74780077  0.08206841  0.56928234  1
  Se  Se129  1  0.74615785  0.41691681  0.06020140  1
  Se  Se130  1  0.74921109  0.41007957  0.56020555  1
  Se  Se131  1  0.74616201  0.75091141  0.04759267  1
  Se  Se132  1  0.74715314  0.74547819  0.55849616  1
  Se  Se133  1  0.25670069  0.25679553  0.05059810  1
  Se  Se134  1  0.24944865  0.24731995  0.55340949  1
  Se  Se135  1  0.25091073  0.58584333  0.05681004  1
  Se  Se136  1  0.24794007  0.57736869  0.55902194  1
  Se  Se137  1  0.25066418  0.91952402  0.05305045  1
  Se  Se138  1  0.25016483  0.92233606  0.55686620  1
  Se  Se139  1  0.56476968  0.24429385  0.04579726  1
  Se  Se140  1  0.58577103  0.24925077  0.55471095  1
  Se  Se141  1  0.59441939  0.57929352  0.05935413  1
  Se  Se142  1  0.58135624  0.57742356  0.55404763  1
  Se  Se143  1  0.58889931  0.92473230  0.06150083  1
  Se  Se144  1  0.58673281  0.92247319  0.56736966  1
  Se  Se145  1  0.91557718  0.24588719  0.05763784  1
  Se  Se146  1  0.92624318  0.25588928  0.55985031  1
  Se  Se147  1  0.91397628  0.58162456  0.04966992  1
  Se  Se148  1  0.91950768  0.58536821  0.56308686  1
  Se  Se149  1  0.89676927  0.90130302  0.04811020  1
  Se  Se150  1  0.91840627  0.92086472  0.55943098  1
  Se  Se151  1  0.08698564  0.23950010  0.44655599  1
  Se  Se152  1  0.07279107  0.25742700  0.93787171  1
  Se  Se153  1  0.09040252  0.57296893  0.45025099  1
  Se  Se154  1  0.07308065  0.59118435  0.93381654  1
  Se  Se155  1  0.07542191  0.92030067  0.43681117  1
  Se  Se156  1  0.08235349  0.93021082  0.94728715  1
  Se  Se157  1  0.41777387  0.24945317  0.44493530  1
  Se  Se158  1  0.41605358  0.24101181  0.94382968  1
  Se  Se159  1  0.42204558  0.57882956  0.45615264  1
  Se  Se160  1  0.40412342  0.59095292  0.93994353  1
  Se  Se161  1  0.41027188  0.92392107  0.44361333  1
  Se  Se162  1  0.41486667  0.92109562  0.93475770  1
  Se  Se163  1  0.74778048  0.26193149  0.44043888  1
  Se  Se164  1  0.75504733  0.23769739  0.95354054  1
  Se  Se165  1  0.74496628  0.59212189  0.43774452  1
  Se  Se166  1  0.75240430  0.57815303  0.94165543  1
  Se  Se167  1  0.73818992  0.93301356  0.44585967  1
  Se  Se168  1  0.74763375  0.91197016  0.94788209  1
  Se  Se169  1  0.24497912  0.08451609  0.44639732  1
  Se  Se170  1  0.25667445  0.07667496  0.92986970  1
  Se  Se171  1  0.25075733  0.41340842  0.44933989  1
  Se  Se172  1  0.25779143  0.40488062  0.93917770  1
  Se  Se173  1  0.26459645  0.73728898  0.44163688  1
  Se  Se174  1  0.24495434  0.75954865  0.94592957  1
  Se  Se175  1  0.58171715  0.09186601  0.45226547  1
  Se  Se176  1  0.57740839  0.08497765  0.94730070  1
  Se  Se177  1  0.58113590  0.42161047  0.44503171  1
  Se  Se178  1  0.59232022  0.40578750  0.93861201  1
  Se  Se179  1  0.59167801  0.74909029  0.44225814  1
  Se  Se180  1  0.58324352  0.73976077  0.94004719  1
  Se  Se181  1  0.91884278  0.07311165  0.44004029  1
  Se  Se182  1  0.91932412  0.07860954  0.95673686  1
  Se  Se183  1  0.92339474  0.40280682  0.43898147  1
  Se  Se184  1  0.91105212  0.41849825  0.95520945  1
  Se  Se185  1  0.93239151  0.73475534  0.44235938  1
  Se  Se186  1  0.91114400  0.75223813  0.94518114  1
  Se  Se187  1  0.24319053  0.24203435  0.30867266  1
  Se  Se188  1  0.25401605  0.25081258  0.79203895  1
  Se  Se189  1  0.24989146  0.57608056  0.30760381  1
  Se  Se190  1  0.25185031  0.58749771  0.80229396  1
  Se  Se191  1  0.24554037  0.91544257  0.29727962  1
  Se  Se192  1  0.24951363  0.91933760  0.80142829  1
  Se  Se193  1  0.58088016  0.25750807  0.30254445  1
  Se  Se194  1  0.58564486  0.24670434  0.80555384  1
  Se  Se195  1  0.58549686  0.59187787  0.30642100  1
  Se  Se196  1  0.58419360  0.57883355  0.80079393  1
  Se  Se197  1  0.57659828  0.92040320  0.31455242  1
  Se  Se198  1  0.58411016  0.91164287  0.80338405  1
  Se  Se199  1  0.91249548  0.24266694  0.29887753  1
  Se  Se200  1  0.91100918  0.24589779  0.81999439  1
  Se  Se201  1  0.90693826  0.57285804  0.30440557  1
  Se  Se202  1  0.91662974  0.58425614  0.80320211  1
  Se  Se203  1  0.91930870  0.91644065  0.29575205  1
  Se  Se204  1  0.91579201  0.92161151  0.81221903  1
  Se  Se205  1  0.07769646  0.07916276  0.30368456  1
  Se  Se206  1  0.09853673  0.10671588  0.80378683  1
  Se  Se207  1  0.08140604  0.41165823  0.30918636  1
  Se  Se208  1  0.08833414  0.42444876  0.81268129  1
  Se  Se209  1  0.09676934  0.75269601  0.30500771  1
  Se  Se210  1  0.07799355  0.75677003  0.80967497  1
  Se  Se211  1  0.41629641  0.08954877  0.30130664  1
  Se  Se212  1  0.41828562  0.08084746  0.79954591  1
  Se  Se213  1  0.41873641  0.42926296  0.30743216  1
  Se  Se214  1  0.41862123  0.41017676  0.80382002  1
  Se  Se215  1  0.42696278  0.75915856  0.31371376  1
  Se  Se216  1  0.41176262  0.74594978  0.80136181  1
  Se  Se217  1  0.75008735  0.09252758  0.31041842  1
  Se  Se218  1  0.74680081  0.07878217  0.81349894  1
  Se  Se219  1  0.75047815  0.42423645  0.29623933  1
  Se  Se220  1  0.75396947  0.41010894  0.80666509  1
  Se  Se221  1  0.75371828  0.75684363  0.29684523  1
  Se  Se222  1  0.74747539  0.74603750  0.80436260  1
  Se  Se223  1  0.25281779  0.08209567  0.19670555  1
  Se  Se224  1  0.27329667  0.06522580  0.69082794  1
  Se  Se225  1  0.24440138  0.41992361  0.18964501  1
  Se  Se226  1  0.24754746  0.41863645  0.69859835  1
  Se  Se227  1  0.24345272  0.75738119  0.18712434  1
  Se  Se228  1  0.24375068  0.75500098  0.70072191  1
  Se  Se229  1  0.58324366  0.09819352  0.18376452  1
  Se  Se230  1  0.58875449  0.07812655  0.70037242  1
  Se  Se231  1  0.58180350  0.41196907  0.19921426  1
  Se  Se232  1  0.58715243  0.40979082  0.69572329  1
  Se  Se233  1  0.57685587  0.76761063  0.20084189  1
  Se  Se234  1  0.58487763  0.74534608  0.69902420  1
  Se  Se235  1  0.91578967  0.07788255  0.19478244  1
  Se  Se236  1  0.91842287  0.08616597  0.70695554  1
  Se  Se237  1  0.91758441  0.40930348  0.19812797  1
  Se  Se238  1  0.90973130  0.42259086  0.69115557  1
  Se  Se239  1  0.91968837  0.75568137  0.17780963  1
  Se  Se240  1  0.91771177  0.75283370  0.70200753  1
  Se  Se241  1  0.08174759  0.25155236  0.20212293  1
  Se  Se242  1  0.08775307  0.24874349  0.68808929  1
  Se  Se243  1  0.08940348  0.57221348  0.19151498  1
  Se  Se244  1  0.07657379  0.58862943  0.70128779  1
  Se  Se245  1  0.07573895  0.91175607  0.19015400  1
  Se  Se246  1  0.07637589  0.92576299  0.70026970  1
  Se  Se247  1  0.42121647  0.24488090  0.18196526  1
  Se  Se248  1  0.41906864  0.24885726  0.69339922  1
  Se  Se249  1  0.43035035  0.58369042  0.18869243  1
  Se  Se250  1  0.41760182  0.57802670  0.69703331  1
  Se  Se251  1  0.42787783  0.91189885  0.19813422  1
  Se  Se252  1  0.41909546  0.91620555  0.69931457  1
  Se  Se253  1  0.74390901  0.24869686  0.19195812  1
  Se  Se254  1  0.74859543  0.24912839  0.70749890  1
  Se  Se255  1  0.73829956  0.60678028  0.19349887  1
  Se  Se256  1  0.74702111  0.58357676  0.69886323  1
  Se  Se257  1  0.75907726  0.92023132  0.18300849  1
  Se  Se258  1  0.75218647  0.91565826  0.70395902  1
