# generated using pymatgen
data_In86Cu29Se144
_symmetry_space_group_name_H-M   'P 1'
_cell_length_a   17.57835213
_cell_length_b   17.57380041
_cell_length_c   23.43085565
_cell_angle_alpha   89.99765961
_cell_angle_beta   90.00672832
_cell_angle_gamma   89.98030276
_symmetry_Int_Tables_number   1
_chemical_formula_structural   In86Cu29Se144
_chemical_formula_sum   'In86 Cu29 Se144'
_cell_volume   7238.22317061
_cell_formula_units_Z   1
loop_
 _symmetry_equiv_pos_site_id
 _symmetry_equiv_pos_as_xyz
  1  'x, y, z'
loop_
 _atom_site_type_symbol
 _atom_site_label
 _atom_site_symmetry_multiplicity
 _atom_site_fract_x
 _atom_site_fract_y
 _atom_site_fract_z
 _atom_site_occupancy
  In  In0  1  -0.00178968  0.18360280  0.12533056  1
  In  In1  1  -0.00861925  0.15684279  0.61959507  1
  In  In2  1  0.00769974  0.48843573  0.13333599  1
  In  In3  1  0.01522792  0.50433660  0.62260666  1
  In  In4  1  0.00307288  0.82075718  0.12693264  1
  In  In5  1  0.00829135  0.82944537  0.63140383  1
  In  In6  1  0.33672206  0.15665558  0.12396462  1
  In  In7  1  0.35349586  0.18808881  0.60865426  1
  In  In8  1  0.34661144  0.50947784  0.12363259  1
  In  In9  1  0.33221386  0.49207803  0.61382185  1
  In  In10  1  0.32109397  0.83040712  0.12323374  1
  In  In11  1  0.33510233  0.83591075  0.61668350  1
  In  In12  1  0.66480007  0.17042874  0.12847892  1
  In  In13  1  0.65952377  0.17160910  0.62307897  1
  In  In14  1  0.64706289  0.49180599  0.12774855  1
  In  In15  1  0.64599589  0.48836195  0.61483201  1
  In  In16  1  0.67619914  0.83805487  0.13026229  1
  In  In17  1  0.66623951  0.83793494  0.62387946  1
  In  In18  1  0.16908706  -0.00298481  0.38427672  1
  In  In19  1  0.14879023  -0.00228220  0.87427459  1
  In  In20  1  0.16322780  0.34431780  0.38773787  1
  In  In21  1  0.18044490  0.33141599  0.87176762  1
  In  In22  1  0.16796006  0.66241462  0.37506671  1
  In  In23  1  0.16308173  0.67589158  0.88065249  1
  In  In24  1  0.50240977  -0.00069558  0.37949628  1
  In  In25  1  0.52565536  0.00193743  0.86384728  1
  In  In26  1  0.50926002  0.33130602  0.39024634  1
  In  In27  1  0.49782803  0.33110344  0.87450530  1
  In  In28  1  0.49441263  0.67468261  0.38085866  1
  In  In29  1  0.48865979  0.66299128  0.87553644  1
  In  In30  1  0.82675680  0.01900756  0.37767951  1
  In  In31  1  0.84321484  0.01224939  0.87184474  1
  In  In32  1  0.82199588  0.32845050  0.36297220  1
  In  In33  1  0.81543879  0.33155616  0.87348400  1
  In  In34  1  0.84150233  0.65000280  0.36696042  1
  In  In35  1  0.84036436  0.65643849  0.87182870  1
  In  In36  1  -0.01609499  0.17838030  0.38389457  1
  In  In37  1  -0.00320103  0.15044798  0.87574879  1
  In  In38  1  0.00364958  0.50609550  0.36463656  1
  In  In39  1  0.00273162  0.51453247  0.87152495  1
  In  In40  1  0.01344872  0.82773278  0.37637926  1
  In  In41  1  0.01202955  0.84696695  0.86994314  1
  In  In42  1  0.33882835  0.18026155  0.39789254  1
  In  In43  1  0.33164122  0.18345813  0.86961699  1
  In  In44  1  0.32339887  0.49678977  0.38434515  1
  In  In45  1  0.34099167  0.49091602  0.88150370  1
  In  In46  1  0.34136210  0.82165533  0.38279158  1
  In  In47  1  0.33206684  0.82319759  0.87371806  1
  In  In48  1  0.66779297  0.17232839  0.37884419  1
  In  In49  1  0.66489795  0.16650295  0.87466590  1
  In  In50  1  0.66302024  0.49252871  0.37561714  1
  In  In51  1  0.66499937  0.48050372  0.87214575  1
  In  In52  1  0.64412166  0.83266102  0.37590632  1
  In  In53  1  0.66173158  0.85324499  0.86982622  1
  In  In54  1  0.17740733  -0.00323516  0.12044185  1
  In  In55  1  0.16202971  -0.00380513  0.62183726  1
  In  In56  1  0.15149942  0.33619376  0.12873858  1
  In  In57  1  0.18087473  0.34292289  0.61119604  1
  In  In58  1  0.17128269  0.66150163  0.12684817  1
  In  In59  1  0.16428353  0.66315521  0.61968062  1
  In  In60  1  0.50149857  0.01918457  0.12399539  1
  In  In61  1  0.50807955  0.00525891  0.62379564  1
  In  In62  1  0.51043128  0.34251614  0.12428933  1
  In  In63  1  0.50153795  0.33427572  0.62539323  1
  In  In64  1  0.49670567  0.64360570  0.13183843  1
  In  In65  1  0.50285100  0.65701301  0.60784104  1
  In  In66  1  0.81853510  -0.00410434  0.12650886  1
  In  In67  1  0.82143495  0.01168342  0.63299979  1
  In  In68  1  0.84022443  0.32721829  0.13135554  1
  In  In69  1  0.83142379  0.31571545  0.62204608  1
  In  In70  1  0.84171540  0.67376523  0.13124783  1
  In  In71  1  0.83717707  0.67596209  0.62543232  1
  In  In72  1  0.67099240  0.66544069  0.74391482  1
  In  In73  1  0.84212644  0.83491095  0.00419811  1
  In  In74  1  0.66773473  0.66448667  0.25213032  1
  In  In75  1  0.82732070  0.49287881  0.48971562  1
  In  In76  1  0.33315763  0.00602024  0.73805105  1
  In  In77  1  0.00045644  0.33055005  0.74349503  1
  In  In78  1  0.33468664  0.33420713  0.25940584  1
  In  In79  1  0.83531260  0.49494068  0.00681994  1
  In  In80  1  0.82933593  0.83437631  0.50692091  1
  In  In81  1  0.33467287  0.66550578  0.75142346  1
  In  In82  1  0.16428884  0.16850725  -0.00237253  1
  In  In83  1  0.49810638  0.83273400  -0.00662728  1
  In  In84  1  -0.00381399  -0.00082688  0.24965995  1
  In  In85  1  0.33968381  -0.00027339  0.25450225  1
  Cu  Cu86  1  0.83284548  0.83772872  0.25166094  1
  Cu  Cu87  1  0.17192575  0.50274094  0.74243049  1
  Cu  Cu88  1  0.66687916  0.00470983  0.50319783  1
  Cu  Cu89  1  0.82710631  0.16332943  0.74911323  1
  Cu  Cu90  1  0.01229667  0.66858317  0.00032784  1
  Cu  Cu91  1  0.16702316  0.16915201  0.74500161  1
  Cu  Cu92  1  0.33519319  0.00023157  -0.00363320  1
  Cu  Cu93  1  0.33050355  0.66184471  0.00113342  1
  Cu  Cu94  1  0.65792513  0.32381998  -0.00131994  1
  Cu  Cu95  1  0.16222659  0.83565970  0.75107407  1
  Cu  Cu96  1  0.66570438  0.00999906  0.00117007  1
  Cu  Cu97  1  0.50311739  0.17063999  0.74476655  1
  Cu  Cu98  1  0.00375125  0.66374574  0.49762194  1
  Cu  Cu99  1  0.33367591  0.33536808  -0.00041585  1
  Cu  Cu100  1  0.83282919  0.49881798  0.74827277  1
  Cu  Cu101  1  0.82507573  0.17165354  0.25257447  1
  Cu  Cu102  1  0.00014222  -0.00246993  0.49983769  1
  Cu  Cu103  1  -0.00313880  0.33803051  0.00300326  1
  Cu  Cu104  1  0.16979212  0.81970822  0.25235964  1
  Cu  Cu105  1  0.49675120  0.83453215  0.25436525  1
  Cu  Cu106  1  0.50671219  0.17441572  0.25515521  1
  Cu  Cu107  1  0.83742017  0.83439291  0.74841274  1
  Cu  Cu108  1  0.15816249  0.17010679  0.25846069  1
  Cu  Cu109  1  0.66114237  0.65873231  0.00120657  1
  Cu  Cu110  1  0.00284384  0.33282077  0.50126033  1
  Cu  Cu111  1  0.32529692  0.66647802  0.49836331  1
  Cu  Cu112  1  0.49719851  0.49351961  0.74831535  1
  Cu  Cu113  1  0.16991180  0.50026102  0.25341042  1
  Cu  Cu114  1  0.32819453  -0.00341610  0.50253763  1
  Se  Se115  1  0.07893636  0.08202371  0.06330496  1
  Se  Se116  1  0.08328153  0.08247238  0.55224722  1
  Se  Se117  1  0.08365659  0.41970841  0.05253666  1
  Se  Se118  1  0.08532882  0.42169798  0.54888714  1
  Se  Se119  1  0.09233686  0.75078270  0.05691191  1
  Se  Se120  1  0.08003532  0.75018482  0.55425829  1
  Se  Se121  1  0.41700073  0.08567776  0.04788589  1
  Se  Se122  1  0.41621586  0.07561464  0.55460869  1
  Se  Se123  1  0.41747014  0.41492435  0.05629212  1
  Se  Se124  1  0.44482113  0.43827696  0.55731580  1
  Se  Se125  1  0.41586817  0.74325082  0.05977076  1
  Se  Se126  1  0.41322515  0.74721162  0.55039181  1
  Se  Se127  1  0.74927003  0.08774430  0.05801793  1
  Se  Se128  1  0.74921295  0.08878308  0.55623294  1
  Se  Se129  1  0.73845835  0.40597928  0.05961299  1
  Se  Se130  1  0.74485050  0.40334734  0.55566047  1
  Se  Se131  1  0.74311501  0.74042802  0.05736505  1
  Se  Se132  1  0.73655662  0.73624562  0.55569663  1
  Se  Se133  1  0.25343297  0.25649778  0.06249753  1
  Se  Se134  1  0.24604577  0.24442917  0.54654953  1
  Se  Se135  1  0.25046401  0.57719063  0.05575143  1
  Se  Se136  1  0.24537558  0.57991551  0.55181538  1
  Se  Se137  1  0.25296479  0.91562407  0.04773297  1
  Se  Se138  1  0.24267555  0.91185938  0.55229289  1
  Se  Se139  1  0.57592389  0.24445038  0.05689615  1
  Se  Se140  1  0.56281735  0.23662211  0.55324128  1
  Se  Se141  1  0.57709082  0.57741567  0.05307546  1
  Se  Se142  1  0.58208551  0.57314533  0.53942104  1
  Se  Se143  1  0.58844483  0.92032449  0.05804740  1
  Se  Se144  1  0.58440538  0.91732866  0.55322955  1
  Se  Se145  1  0.91226891  0.25261372  0.05132136  1
  Se  Se146  1  0.91781557  0.24692555  0.54952878  1
  Se  Se147  1  0.92672208  0.59123344  0.05964038  1
  Se  Se148  1  0.91803968  0.58501749  0.55520959  1
  Se  Se149  1  0.92724203  0.92535476  0.06630178  1
  Se  Se150  1  0.91971172  0.92362464  0.56574221  1
  Se  Se151  1  0.08404616  0.24614048  0.44771020  1
  Se  Se152  1  0.07420908  0.25957670  0.93648422  1
  Se  Se153  1  0.08205550  0.57820345  0.44238385  1
  Se  Se154  1  0.08901741  0.57981149  0.94628291  1
  Se  Se155  1  0.08357647  0.91229729  0.44972729  1
  Se  Se156  1  0.08396213  0.91563707  0.95027815  1
  Se  Se157  1  0.43759658  0.24499635  0.46408013  1
  Se  Se158  1  0.41426051  0.24956092  0.94608170  1
  Se  Se159  1  0.41078271  0.58637776  0.44499520  1
  Se  Se160  1  0.41827516  0.58087142  0.94947879  1
  Se  Se161  1  0.41445254  0.91858043  0.44560779  1
  Se  Se162  1  0.41523947  0.92688202  0.93083803  1
  Se  Se163  1  0.76154349  0.24906865  0.44291587  1
  Se  Se164  1  0.74845689  0.24612504  0.94742207  1
  Se  Se165  1  0.74229056  0.59664542  0.43945480  1
  Se  Se166  1  0.74437221  0.58227503  0.94070893  1
  Se  Se167  1  0.74295021  0.92168453  0.44101176  1
  Se  Se168  1  0.74706316  0.92361063  0.94552772  1
  Se  Se169  1  0.24920227  0.08458993  0.45016102  1
  Se  Se170  1  0.25453856  0.07999456  0.93460906  1
  Se  Se171  1  0.26182546  0.40291713  0.45616178  1
  Se  Se172  1  0.24662129  0.41592764  0.94753225  1
  Se  Se173  1  0.24172553  0.75171624  0.44600702  1
  Se  Se174  1  0.25287239  0.75189212  0.94917948  1
  Se  Se175  1  0.58455878  0.08519239  0.44550967  1
  Se  Se176  1  0.57883690  0.08536965  0.94515193  1
  Se  Se177  1  0.59088621  0.42150653  0.45442641  1
  Se  Se178  1  0.57966207  0.41427602  0.94632087  1
  Se  Se179  1  0.57418416  0.75704166  0.45167222  1
  Se  Se180  1  0.59458942  0.74343086  0.93555521  1
  Se  Se181  1  0.91380633  0.08328983  0.45196610  1
  Se  Se182  1  0.91755980  0.08106033  0.95087144  1
  Se  Se183  1  0.92628744  0.40948139  0.43445238  1
  Se  Se184  1  0.92004222  0.41294453  0.93478850  1
  Se  Se185  1  0.91729624  0.74363563  0.44158543  1
  Se  Se186  1  0.92569635  0.74277576  0.94020020  1
  Se  Se187  1  0.24563187  0.24158361  0.31826833  1
  Se  Se188  1  0.25143673  0.25522268  0.79369419  1
  Se  Se189  1  0.25385752  0.58000963  0.30776963  1
  Se  Se190  1  0.24538565  0.57723659  0.81222336  1
  Se  Se191  1  0.24600856  0.90837241  0.30982938  1
  Se  Se192  1  0.24801707  0.91600951  0.80715387  1
  Se  Se193  1  0.58506845  0.25856694  0.31076762  1
  Se  Se194  1  0.58343589  0.25091977  0.80558073  1
  Se  Se195  1  0.57397191  0.58184430  0.31150192  1
  Se  Se196  1  0.57767504  0.57713080  0.80724974  1
  Se  Se197  1  0.57946638  0.92215527  0.30221078  1
  Se  Se198  1  0.58235975  0.91096849  0.78970433  1
  Se  Se199  1  0.91853411  0.24991576  0.30047737  1
  Se  Se200  1  0.91057725  0.24533240  0.80837943  1
  Se  Se201  1  0.91716270  0.57771855  0.29187387  1
  Se  Se202  1  0.91860293  0.58353245  0.79587715  1
  Se  Se203  1  0.91074204  0.91373229  0.31725611  1
  Se  Se204  1  0.91659043  0.91879645  0.80501420  1
  Se  Se205  1  0.08166330  0.08457331  0.31610708  1
  Se  Se206  1  0.08526175  0.08789778  0.80004547  1
  Se  Se207  1  0.08988098  0.41204074  0.30570194  1
  Se  Se208  1  0.08978350  0.42203582  0.80471493  1
  Se  Se209  1  0.08092573  0.74091794  0.30321689  1
  Se  Se210  1  0.08266137  0.74854422  0.80492700  1
  Se  Se211  1  0.41844400  0.09930480  0.31462543  1
  Se  Se212  1  0.42114651  0.08987682  0.80619541  1
  Se  Se213  1  0.42429369  0.41901614  0.32032947  1
  Se  Se214  1  0.41322234  0.41372120  0.80438713  1
  Se  Se215  1  0.41428820  0.74884795  0.30351618  1
  Se  Se216  1  0.43086078  0.76134447  0.80199820  1
  Se  Se217  1  0.74249549  0.08624067  0.30341073  1
  Se  Se218  1  0.74610849  0.08032268  0.80574268  1
  Se  Se219  1  0.76770113  0.44328337  0.30814400  1
  Se  Se220  1  0.74802850  0.41305279  0.79608095  1
  Se  Se221  1  0.75402490  0.75807757  0.31449340  1
  Se  Se222  1  0.75649060  0.75593722  0.81125102  1
  Se  Se223  1  0.23993422  0.09080248  0.19852056  1
  Se  Se224  1  0.24797917  0.09798939  0.67889919  1
  Se  Se225  1  0.24793354  0.41844822  0.19165536  1
  Se  Se226  1  0.25343594  0.41798792  0.69058589  1
  Se  Se227  1  0.25670705  0.74321562  0.19728619  1
  Se  Se228  1  0.24531347  0.75767179  0.69170654  1
  Se  Se229  1  0.58336700  0.08573943  0.20008210  1
  Se  Se230  1  0.58707827  0.08358404  0.69681631  1
  Se  Se231  1  0.57891832  0.41383535  0.20497512  1
  Se  Se232  1  0.58610607  0.41282818  0.69821351  1
  Se  Se233  1  0.57572902  0.75521376  0.18916041  1
  Se  Se234  1  0.57428810  0.74597724  0.68474149  1
  Se  Se235  1  0.90717183  0.09171837  0.19083348  1
  Se  Se236  1  0.91797062  0.08340887  0.69919856  1
  Se  Se237  1  0.90994165  0.42153449  0.19650364  1
  Se  Se238  1  0.91176258  0.42228920  0.68311296  1
  Se  Se239  1  0.91985215  0.75396936  0.20352351  1
  Se  Se240  1  0.92001149  0.74804988  0.69837254  1
  Se  Se241  1  0.07883892  0.25272068  0.20233443  1
  Se  Se242  1  0.09036618  0.24806120  0.67983287  1
  Se  Se243  1  0.08670435  0.58150704  0.19646104  1
  Se  Se244  1  0.08537685  0.58906717  0.69680880  1
  Se  Se245  1  0.09619687  0.91104246  0.19443954  1
  Se  Se246  1  0.08197668  0.92286800  0.69853224  1
  Se  Se247  1  0.41857881  0.24327709  0.19311101  1
  Se  Se248  1  0.41576646  0.25381721  0.69561362  1
  Se  Se249  1  0.41255917  0.57943938  0.20648409  1
  Se  Se250  1  0.42297618  0.57880749  0.68848883  1
  Se  Se251  1  0.42390238  0.91267948  0.18569767  1
  Se  Se252  1  0.42442599  0.90795540  0.68943224  1
  Se  Se253  1  0.74401144  0.25638217  0.19763563  1
  Se  Se254  1  0.74603492  0.24854472  0.69618989  1
  Se  Se255  1  0.75071570  0.57885990  0.18435015  1
  Se  Se256  1  0.75306376  0.57163564  0.68130010  1
  Se  Se257  1  0.74505489  0.92162515  0.20507893  1
  Se  Se258  1  0.74929048  0.91305246  0.69596923  1
