# generated using pymatgen
data_In86Cu29Se144
_symmetry_space_group_name_H-M   'P 1'
_cell_length_a   17.56966527
_cell_length_b   17.56975891
_cell_length_c   23.42385669
_cell_angle_alpha   90.03194730
_cell_angle_beta   90.00929272
_cell_angle_gamma   89.99246684
_symmetry_Int_Tables_number   1
_chemical_formula_structural   In86Cu29Se144
_chemical_formula_sum   'In86 Cu29 Se144'
_cell_volume   7230.82107516
_cell_formula_units_Z   1
loop_
 _symmetry_equiv_pos_site_id
 _symmetry_equiv_pos_as_xyz
  1  'x, y, z'
loop_
 _atom_site_type_symbol
 _atom_site_label
 _atom_site_symmetry_multiplicity
 _atom_site_fract_x
 _atom_site_fract_y
 _atom_site_fract_z
 _atom_site_occupancy
  In  In0  1  -0.00944001  0.17799103  0.11580524  1
  In  In1  1  -0.00140519  0.17314158  0.62664786  1
  In  In2  1  0.00295085  0.48462256  0.11838669  1
  In  In3  1  -0.00280664  0.49990069  0.62968884  1
  In  In4  1  0.00695903  0.83866047  0.12980600  1
  In  In5  1  -0.01595807  0.83001351  0.62486209  1
  In  In6  1  0.34577415  0.17037715  0.12013358  1
  In  In7  1  0.33044570  0.16430262  0.62744612  1
  In  In8  1  0.32366031  0.50632246  0.12994410  1
  In  In9  1  0.34567154  0.50867745  0.61971856  1
  In  In10  1  0.32982559  0.81909570  0.12984000  1
  In  In11  1  0.34598564  0.82777092  0.62510341  1
  In  In12  1  0.66715028  0.16819928  0.13216484  1
  In  In13  1  0.65194682  0.14846082  0.60577772  1
  In  In14  1  0.65832339  0.49713290  0.15115166  1
  In  In15  1  0.66722986  0.50379655  0.61025947  1
  In  In16  1  0.67093358  0.83577184  0.14456936  1
  In  In17  1  0.66566334  0.84234567  0.61260797  1
  In  In18  1  0.16270735  0.01425851  0.36963911  1
  In  In19  1  0.17693223  -0.00597987  0.87726014  1
  In  In20  1  0.16814065  0.33211874  0.36404683  1
  In  In21  1  0.14585456  0.35332598  0.89837975  1
  In  In22  1  0.17596507  0.65075987  0.37242813  1
  In  In23  1  0.16790593  0.65963578  0.87121318  1
  In  In24  1  0.54022071  -0.02635250  0.40729979  1
  In  In25  1  0.50682935  0.00770509  0.86726177  1
  In  In26  1  0.50191902  0.33309302  0.37356545  1
  In  In27  1  0.48561347  0.33192029  0.87806682  1
  In  In28  1  0.50275984  0.66302558  0.37181219  1
  In  In29  1  0.49899827  0.67796241  0.87123674  1
  In  In30  1  0.82941205  -0.00187272  0.37433119  1
  In  In31  1  0.83531868  0.01375900  0.87150468  1
  In  In32  1  0.83382677  0.33540304  0.37340620  1
  In  In33  1  0.83202885  0.31614126  0.87860394  1
  In  In34  1  0.81457195  0.68099012  0.38461739  1
  In  In35  1  0.84287820  0.65260160  0.87553231  1
  In  In36  1  -0.01437882  0.15620534  0.36212436  1
  In  In37  1  -0.01041553  0.17996780  0.88736036  1
  In  In38  1  0.00505931  0.48495339  0.37182695  1
  In  In39  1  0.01594134  0.51152121  0.86688816  1
  In  In40  1  -0.02896964  0.83144010  0.37032731  1
  In  In41  1  0.00942490  0.82604867  0.87209640  1
  In  In42  1  0.34838476  0.18024215  0.36769052  1
  In  In43  1  0.33474379  0.16280985  0.88269848  1
  In  In44  1  0.37687264  0.52033859  0.33449860  1
  In  In45  1  0.32426451  0.50044450  0.87489810  1
  In  In46  1  0.35003778  0.82885220  0.38069745  1
  In  In47  1  0.32857168  0.83419821  0.86491881  1
  In  In48  1  0.66733976  0.16488307  0.37787017  1
  In  In49  1  0.67512569  0.15950117  0.88017105  1
  In  In50  1  0.66289381  0.50289206  0.37238705  1
  In  In51  1  0.66838059  0.50203216  0.87874114  1
  In  In52  1  0.67884549  0.83190731  0.36950949  1
  In  In53  1  0.65189178  0.83750386  0.86970986  1
  In  In54  1  0.14866121  -0.00054024  0.12621067  1
  In  In55  1  0.17171212  0.01705191  0.63236405  1
  In  In56  1  0.16373064  0.33423114  0.11673251  1
  In  In57  1  0.15932944  0.32081593  0.63198729  1
  In  In58  1  0.17905412  0.66305950  0.11820856  1
  In  In59  1  0.17288934  0.66027838  0.63176863  1
  In  In60  1  0.50482028  0.01061012  0.12989511  1
  In  In61  1  0.49990929  0.00107611  0.62166898  1
  In  In62  1  0.50836124  0.32493164  0.14683366  1
  In  In63  1  0.50105170  0.33992094  0.61224471  1
  In  In64  1  0.49484407  0.66481367  0.13842360  1
  In  In65  1  0.48919506  0.66688594  0.60935127  1
  In  In66  1  0.81653325  0.01372514  0.14019675  1
  In  In67  1  0.81606362  -0.01274281  0.60706288  1
  In  In68  1  0.84185969  0.32561093  0.13613865  1
  In  In69  1  0.83569131  0.33520918  0.61774906  1
  In  In70  1  0.83466216  0.65614693  0.13075740  1
  In  In71  1  0.83551113  0.66924251  0.61889985  1
  In  In72  1  0.32795196  0.33373580  0.75342418  1
  In  In73  1  -0.00049167  0.66593708  0.25216570  1
  In  In74  1  0.83869936  0.48082066  0.01143382  1
  In  In75  1  0.17028328  0.49586769  0.50081100  1
  In  In76  1  -0.00132910  -0.00114198  0.74970184  1
  In  In77  1  0.16601667  0.83562241  0.49953570  1
  In  In78  1  0.49477320  0.83628581  0.01062311  1
  In  In79  1  0.67261107  0.67628103  0.73426432  1
  In  In80  1  0.49397702  0.49487058  0.00745411  1
  In  In81  1  0.33857662  0.00357690  0.25514073  1
  In  In82  1  0.83590534  0.83914247  -0.00370738  1
  In  In83  1  0.67108815  0.32723678  0.74633015  1
  In  In84  1  0.16659514  0.16967892  0.50199903  1
  In  In85  1  0.16843100  0.83166634  -0.00145300  1
  Cu  Cu86  1  0.50979300  0.15687364  0.25868469  1
  Cu  Cu87  1  0.16668650  0.83154175  0.25145062  1
  Cu  Cu88  1  0.16724523  0.49195954  0.24480550  1
  Cu  Cu89  1  0.67105197  0.33554350  0.49107958  1
  Cu  Cu90  1  0.33880589  0.00692220  0.50350291  1
  Cu  Cu91  1  0.66854661  0.66593285  0.01172546  1
  Cu  Cu92  1  0.33476432  0.32621827  0.00475670  1
  Cu  Cu93  1  0.83293742  0.17383752  0.25313234  1
  Cu  Cu94  1  0.49230912  0.84382069  0.74516377  1
  Cu  Cu95  1  0.50420552  0.83225493  0.25910447  1
  Cu  Cu96  1  0.82929433  0.16197761  0.74829383  1
  Cu  Cu97  1  -0.00983865  0.00955912  0.00439447  1
  Cu  Cu98  1  0.50443152  0.51400090  0.74086663  1
  Cu  Cu99  1  0.17065875  0.83192710  0.75002476  1
  Cu  Cu100  1  -0.00677351  0.32624900  0.49501879  1
  Cu  Cu101  1  0.84628113  0.49099448  0.74843307  1
  Cu  Cu102  1  0.82790031  0.82838876  0.74168916  1
  Cu  Cu103  1  0.33734488  0.34246302  0.48830709  1
  Cu  Cu104  1  0.65962546  0.66518784  0.49372252  1
  Cu  Cu105  1  0.16649952  0.49947600  0.75357641  1
  Cu  Cu106  1  0.16353932  0.17157548  0.76138671  1
  Cu  Cu107  1  0.83157372  0.50405517  0.25570405  1
  Cu  Cu108  1  -0.00845547  -0.00388324  0.49309455  1
  Cu  Cu109  1  0.50271728  0.16324493  0.74860781  1
  Cu  Cu110  1  -0.00900126  0.66393375  0.50336238  1
  Cu  Cu111  1  0.16090152  0.16944710  0.23960570  1
  Cu  Cu112  1  0.66180820  0.32613908  0.01184515  1
  Cu  Cu113  1  0.33634486  0.00000182  0.00130796  1
  Cu  Cu114  1  0.66718080  0.01065194  0.00343820  1
  Se  Se115  1  0.08058273  0.08730357  0.05469684  1
  Se  Se116  1  0.07315830  0.07267548  0.55588517  1
  Se  Se117  1  0.08424793  0.41469852  0.04431521  1
  Se  Se118  1  0.07791654  0.40170246  0.55703114  1
  Se  Se119  1  0.07560627  0.74503242  0.05871972  1
  Se  Se120  1  0.07792632  0.74125610  0.56103165  1
  Se  Se121  1  0.42445419  0.07949352  0.05337386  1
  Se  Se122  1  0.41757520  0.09436749  0.55661737  1
  Se  Se123  1  0.41381965  0.40195389  0.06986347  1
  Se  Se124  1  0.41739338  0.42486709  0.54676076  1
  Se  Se125  1  0.40801960  0.73238862  0.05735625  1
  Se  Se126  1  0.41964271  0.76324262  0.54425943  1
  Se  Se127  1  0.75105868  0.08981781  0.05873027  1
  Se  Se128  1  0.76418609  0.09713285  0.54674378  1
  Se  Se129  1  0.73302808  0.41278329  0.07230126  1
  Se  Se130  1  0.75345626  0.41728893  0.54854792  1
  Se  Se131  1  0.74869398  0.75211984  0.06433532  1
  Se  Se132  1  0.74325187  0.74368484  0.55304039  1
  Se  Se133  1  0.24996361  0.24158747  0.05490713  1
  Se  Se134  1  0.25994599  0.26618525  0.55625534  1
  Se  Se135  1  0.25247290  0.57666558  0.04927252  1
  Se  Se136  1  0.25867829  0.59595781  0.55220089  1
  Se  Se137  1  0.25716606  0.92120014  0.06389513  1
  Se  Se138  1  0.25124336  0.93056370  0.56122882  1
  Se  Se139  1  0.57566684  0.24777611  0.06569501  1
  Se  Se140  1  0.58634568  0.25705907  0.54811370  1
  Se  Se141  1  0.58878260  0.58288415  0.06754891  1
  Se  Se142  1  0.57590158  0.58101022  0.54616039  1
  Se  Se143  1  0.59712179  0.92089179  0.06314860  1
  Se  Se144  1  0.58566386  0.93054232  0.54770151  1
  Se  Se145  1  0.91041010  0.26739409  0.05028386  1
  Se  Se146  1  0.91541323  0.24307017  0.55216231  1
  Se  Se147  1  0.92449425  0.58925628  0.05685788  1
  Se  Se148  1  0.91437667  0.57428366  0.55633038  1
  Se  Se149  1  0.91614773  0.92593821  0.06527153  1
  Se  Se150  1  0.91476522  0.90855080  0.54804858  1
  Se  Se151  1  0.07744463  0.24996273  0.43508615  1
  Se  Se152  1  0.09609668  0.23520461  0.94989411  1
  Se  Se153  1  0.07425326  0.58791699  0.44320579  1
  Se  Se154  1  0.08622079  0.58699033  0.94416929  1
  Se  Se155  1  0.07780131  0.92083281  0.43435501  1
  Se  Se156  1  0.07018464  0.92649337  0.94501522  1
  Se  Se157  1  0.42188192  0.24953258  0.44800250  1
  Se  Se158  1  0.42025386  0.24519387  0.95137425  1
  Se  Se159  1  0.40983472  0.57831566  0.43164298  1
  Se  Se160  1  0.41871562  0.58761542  0.93864430  1
  Se  Se161  1  0.41711972  0.91688538  0.45341194  1
  Se  Se162  1  0.41344178  0.91987671  0.93879285  1
  Se  Se163  1  0.75618211  0.24957498  0.44327318  1
  Se  Se164  1  0.74483396  0.24943596  0.95222122  1
  Se  Se165  1  0.74761181  0.57915066  0.44635048  1
  Se  Se166  1  0.74769776  0.58626389  0.95116661  1
  Se  Se167  1  0.74558421  0.91974153  0.44403651  1
  Se  Se168  1  0.73782770  0.92582728  0.93847362  1
  Se  Se169  1  0.25968034  0.08404378  0.44006795  1
  Se  Se170  1  0.24834489  0.07945692  0.94969951  1
  Se  Se171  1  0.25392923  0.41796058  0.43015705  1
  Se  Se172  1  0.25942640  0.41703224  0.95130971  1
  Se  Se173  1  0.25399367  0.74193614  0.44217559  1
  Se  Se174  1  0.26138392  0.74487240  0.94010497  1
  Se  Se175  1  0.57364579  0.10236268  0.45067178  1
  Se  Se176  1  0.58013482  0.08435736  0.94515037  1
  Se  Se177  1  0.58226723  0.41837787  0.44277602  1
  Se  Se178  1  0.59022492  0.40660619  0.94505802  1
  Se  Se179  1  0.58605440  0.75154974  0.43612524  1
  Se  Se180  1  0.59076034  0.74484211  0.94899623  1
  Se  Se181  1  0.91398702  0.08633238  0.44268865  1
  Se  Se182  1  0.90514889  0.08892411  0.94960544  1
  Se  Se183  1  0.91692101  0.41842199  0.44500418  1
  Se  Se184  1  0.91862932  0.41811724  0.93064628  1
  Se  Se185  1  0.91105025  0.75179666  0.45164983  1
  Se  Se186  1  0.92631356  0.74162976  0.94394961  1
  Se  Se187  1  0.24672261  0.23881089  0.30060831  1
  Se  Se188  1  0.24160321  0.25407666  0.82131056  1
  Se  Se189  1  0.24983628  0.58007420  0.29399273  1
  Se  Se190  1  0.25544545  0.58406890  0.79978870  1
  Se  Se191  1  0.24753564  0.90973102  0.31408838  1
  Se  Se192  1  0.25104201  0.92322690  0.79760126  1
  Se  Se193  1  0.58889312  0.25070994  0.30621126  1
  Se  Se194  1  0.57653359  0.24718108  0.81106206  1
  Se  Se195  1  0.57611014  0.57466398  0.30016743  1
  Se  Se196  1  0.58806781  0.58575036  0.80440998  1
  Se  Se197  1  0.58470574  0.92016761  0.30982461  1
  Se  Se198  1  0.58343383  0.92151032  0.79598529  1
  Se  Se199  1  0.92060997  0.26027819  0.30025368  1
  Se  Se200  1  0.91270345  0.24288326  0.80363256  1
  Se  Se201  1  0.91233935  0.58198607  0.31773453  1
  Se  Se202  1  0.92184125  0.58417537  0.79864192  1
  Se  Se203  1  0.92695617  0.93551620  0.30303952  1
  Se  Se204  1  0.90676090  0.90496994  0.80861801  1
  Se  Se205  1  0.08104975  0.08447744  0.29502421  1
  Se  Se206  1  0.08283577  0.08483332  0.81652042  1
  Se  Se207  1  0.08061380  0.41061915  0.29529610  1
  Se  Se208  1  0.08781873  0.41015566  0.80542017  1
  Se  Se209  1  0.08860629  0.75434044  0.31693300  1
  Se  Se210  1  0.08763520  0.74665226  0.80118528  1
  Se  Se211  1  0.43487414  0.07377234  0.32085261  1
  Se  Se212  1  0.41386542  0.08901550  0.80517861  1
  Se  Se213  1  0.39247523  0.38098677  0.30629705  1
  Se  Se214  1  0.42754874  0.43061105  0.80326109  1
  Se  Se215  1  0.41444116  0.74784237  0.30289935  1
  Se  Se216  1  0.41752295  0.75299603  0.79922139  1
  Se  Se217  1  0.75145866  0.08767453  0.30537606  1
  Se  Se218  1  0.74331203  0.08020883  0.80052681  1
  Se  Se219  1  0.74852886  0.41708507  0.30539554  1
  Se  Se220  1  0.75691808  0.42161911  0.80933265  1
  Se  Se221  1  0.75685630  0.74802210  0.29839872  1
  Se  Se222  1  0.75549299  0.75211800  0.81249614  1
  Se  Se223  1  0.24732853  0.08366639  0.18738833  1
  Se  Se224  1  0.25047649  0.09508061  0.70536161  1
  Se  Se225  1  0.24931240  0.40762996  0.19112278  1
  Se  Se226  1  0.24545405  0.42493770  0.68588462  1
  Se  Se227  1  0.24410719  0.74341418  0.19889883  1
  Se  Se228  1  0.25451789  0.75264578  0.69301819  1
  Se  Se229  1  0.59317027  0.07622170  0.20255845  1
  Se  Se230  1  0.58515636  0.08385203  0.69188552  1
  Se  Se231  1  0.56398036  0.42670161  0.21545239  1
  Se  Se232  1  0.58255726  0.42484796  0.68835575  1
  Se  Se233  1  0.58299366  0.74682776  0.20302632  1
  Se  Se234  1  0.57142349  0.76166432  0.68344741  1
  Se  Se235  1  0.91645925  0.09648456  0.19277436  1
  Se  Se236  1  0.90676180  0.07949073  0.68591473  1
  Se  Se237  1  0.91527557  0.42677795  0.19675295  1
  Se  Se238  1  0.92204779  0.40335194  0.69378571  1
  Se  Se239  1  0.91080540  0.75841947  0.19334441  1
  Se  Se240  1  0.91492211  0.74180604  0.69695942  1
  Se  Se241  1  0.07881226  0.25358566  0.18701612  1
  Se  Se242  1  0.07728395  0.24619090  0.70427145  1
  Se  Se243  1  0.08686557  0.57837954  0.18715175  1
  Se  Se244  1  0.08362527  0.58101122  0.69661572  1
  Se  Se245  1  0.08219471  0.91812132  0.20422736  1
  Se  Se246  1  0.08950733  0.90944156  0.68714059  1
  Se  Se247  1  0.41940629  0.23256060  0.20410108  1
  Se  Se248  1  0.42677613  0.25268689  0.69152621  1
  Se  Se249  1  0.41536888  0.57367989  0.20067848  1
  Se  Se250  1  0.41742484  0.59513445  0.69188271  1
  Se  Se251  1  0.42393534  0.90729323  0.19185345  1
  Se  Se252  1  0.40923266  0.92826514  0.69220850  1
  Se  Se253  1  0.74495163  0.25635013  0.20138906  1
  Se  Se254  1  0.75169674  0.23741423  0.68233073  1
  Se  Se255  1  0.74872388  0.59017745  0.20498290  1
  Se  Se256  1  0.75920889  0.56855712  0.68958405  1
  Se  Se257  1  0.75641784  0.91643179  0.20855770  1
  Se  Se258  1  0.74787707  0.91433728  0.68948397  1
