# generated using pymatgen
data_In86Cu29Se144
_symmetry_space_group_name_H-M   'P 1'
_cell_length_a   17.58279318
_cell_length_b   17.58850555
_cell_length_c   23.44907428
_cell_angle_alpha   90.02557925
_cell_angle_beta   90.00358976
_cell_angle_gamma   89.99464457
_symmetry_Int_Tables_number   1
_chemical_formula_structural   In86Cu29Se144
_chemical_formula_sum   'In86 Cu29 Se144'
_cell_volume   7251.74399574
_cell_formula_units_Z   1
loop_
 _symmetry_equiv_pos_site_id
 _symmetry_equiv_pos_as_xyz
  1  'x, y, z'
loop_
 _atom_site_type_symbol
 _atom_site_label
 _atom_site_symmetry_multiplicity
 _atom_site_fract_x
 _atom_site_fract_y
 _atom_site_fract_z
 _atom_site_occupancy
  In  In0  1  0.00115631  0.16791887  0.13734219  1
  In  In1  1  -0.00350110  0.15676560  0.60051312  1
  In  In2  1  0.01126675  0.49296430  0.13579796  1
  In  In3  1  0.00262521  0.51354037  0.62517865  1
  In  In4  1  -0.00388445  0.83237468  0.12966848  1
  In  In5  1  -0.00922520  0.82815452  0.62838565  1
  In  In6  1  0.33238613  0.16178346  0.13736833  1
  In  In7  1  0.34714328  0.17802892  0.61083371  1
  In  In8  1  0.32890022  0.50744854  0.12964358  1
  In  In9  1  0.33130890  0.49397938  0.62315323  1
  In  In10  1  0.34329678  0.83851790  0.12301398  1
  In  In11  1  0.34621705  0.82329855  0.62461487  1
  In  In12  1  0.66622560  0.16407695  0.13809371  1
  In  In13  1  0.67369689  0.17360252  0.60708348  1
  In  In14  1  0.66411415  0.49786170  0.14123035  1
  In  In15  1  0.66219361  0.50380642  0.61631952  1
  In  In16  1  0.66374446  0.83490739  0.12708527  1
  In  In17  1  0.66163817  0.83240252  0.61919821  1
  In  In18  1  0.16769464  0.00121263  0.36885977  1
  In  In19  1  0.15834982  -0.00817172  0.87635122  1
  In  In20  1  0.16059000  0.32843471  0.36977863  1
  In  In21  1  0.18133722  0.32801085  0.87529202  1
  In  In22  1  0.16868210  0.67494066  0.36859210  1
  In  In23  1  0.15392677  0.67777930  0.88323090  1
  In  In24  1  0.50535932  0.00156415  0.37727924  1
  In  In25  1  0.49821529  -0.00231435  0.87660456  1
  In  In26  1  0.49644624  0.33086950  0.36993386  1
  In  In27  1  0.50043049  0.33845033  0.86156962  1
  In  In28  1  0.53647144  0.63853880  0.41873281  1
  In  In29  1  0.51012074  0.66622020  0.87198041  1
  In  In30  1  0.84487233  0.01266506  0.37087847  1
  In  In31  1  0.82066115  -0.01743991  0.87442728  1
  In  In32  1  0.83211330  0.33514314  0.37894722  1
  In  In33  1  0.82949350  0.34365770  0.87248950  1
  In  In34  1  0.81853259  0.65565727  0.37076627  1
  In  In35  1  0.83768813  0.67312010  0.86870259  1
  In  In36  1  -0.00302641  0.16692705  0.38143702  1
  In  In37  1  0.00138576  0.16083811  0.87319616  1
  In  In38  1  -0.00725206  0.49280784  0.36944645  1
  In  In39  1  -0.00705533  0.51628808  0.87787838  1
  In  In40  1  0.00238915  0.83770282  0.36323510  1
  In  In41  1  0.01028593  0.81420409  0.88975908  1
  In  In42  1  0.33236001  0.16589036  0.37415432  1
  In  In43  1  0.32892349  0.17591777  0.86846269  1
  In  In44  1  0.37758312  0.49895610  0.37780460  1
  In  In45  1  0.33380904  0.48707597  0.87412329  1
  In  In46  1  0.33700275  0.83728146  0.37350381  1
  In  In47  1  0.33143383  0.83429756  0.88219020  1
  In  In48  1  0.66520521  0.16219180  0.38004722  1
  In  In49  1  0.65891428  0.16817357  0.87007067  1
  In  In50  1  0.66880506  0.50302518  0.37592670  1
  In  In51  1  0.66348543  0.49912676  0.86275792  1
  In  In52  1  0.65437179  0.82211593  0.37420809  1
  In  In53  1  0.68046371  0.82425631  0.88999404  1
  In  In54  1  0.17306562  -0.00613895  0.13096099  1
  In  In55  1  0.15791436  0.00580522  0.62109153  1
  In  In56  1  0.16618272  0.33762589  0.13344869  1
  In  In57  1  0.17917862  0.33253646  0.62332686  1
  In  In58  1  0.16085801  0.65820418  0.12184637  1
  In  In59  1  0.15871994  0.66262639  0.63203556  1
  In  In60  1  0.51394018  -0.02174344  0.14641581  1
  In  In61  1  0.50544658  -0.00132983  0.60385312  1
  In  In62  1  0.50365954  0.33214790  0.14355058  1
  In  In63  1  0.49892017  0.33999834  0.61691078  1
  In  In64  1  0.49663017  0.67732454  0.12755551  1
  In  In65  1  0.51737860  0.68248704  0.60165528  1
  In  In66  1  0.83362809  -0.00439162  0.13349912  1
  In  In67  1  0.82381307  0.00065462  0.61097301  1
  In  In68  1  0.83028179  0.33774253  0.13791059  1
  In  In69  1  0.81841982  0.32456446  0.61281414  1
  In  In70  1  0.81967215  0.67894835  0.13510083  1
  In  In71  1  0.83823450  0.65682516  0.62442707  1
  In  In72  1  0.83166573  0.50856084  0.00597268  1
  In  In73  1  -0.00005809  -0.00287482  0.74466523  1
  In  In74  1  0.33443231  0.00183557  0.75459679  1
  In  In75  1  0.49923123  0.16019491  0.00140109  1
  In  In76  1  0.34249915  0.66431142  0.25383184  1
  In  In77  1  0.83432965  0.83577783  0.49562523  1
  In  In78  1  0.17059356  0.84069986  0.49391158  1
  In  In79  1  0.17124388  0.49980520  0.49968861  1
  In  In80  1  0.49544561  0.50340453  0.00117546  1
  In  In81  1  0.33479881  0.65890128  0.74582314  1
  In  In82  1  0.66321079  0.00074448  0.74020420  1
  In  In83  1  0.83326000  0.16153173  0.01363711  1
  In  In84  1  0.00315304  0.33808205  0.74305161  1
  In  In85  1  0.16905790  0.15677406  -0.00230182  1
  Cu  Cu86  1  0.50395186  0.83186567  0.74397214  1
  Cu  Cu87  1  0.32959696  0.33367218  0.49346605  1
  Cu  Cu88  1  -0.00314217  0.33595595  0.49408584  1
  Cu  Cu89  1  0.83159478  0.17453698  0.25822856  1
  Cu  Cu90  1  0.66677540  0.67005498  0.00193621  1
  Cu  Cu91  1  -0.00791408  -0.00787344  0.00347718  1
  Cu  Cu92  1  0.83768174  0.50322255  0.25572343  1
  Cu  Cu93  1  0.34012014  -0.00933772  0.00549475  1
  Cu  Cu94  1  0.83094187  0.17115890  0.73949923  1
  Cu  Cu95  1  0.82087672  0.49491511  0.74363517  1
  Cu  Cu96  1  0.82726493  0.83621539  0.25414183  1
  Cu  Cu97  1  0.50348445  0.18026883  0.73848538  1
  Cu  Cu98  1  0.66451720  0.32946091  0.00016396  1
  Cu  Cu99  1  0.16376266  0.83074450  0.24595591  1
  Cu  Cu100  1  0.33087413  0.00286124  0.49176106  1
  Cu  Cu101  1  -0.00273742  0.66828135  0.49626208  1
  Cu  Cu102  1  0.16202641  0.50245049  0.75144443  1
  Cu  Cu103  1  0.01022940  0.34197742  0.00836914  1
  Cu  Cu104  1  0.50210547  0.82909379  0.25500024  1
  Cu  Cu105  1  0.32567022  0.66889191  0.00442114  1
  Cu  Cu106  1  0.49623437  0.16138558  0.25945182  1
  Cu  Cu107  1  0.17341025  0.49998506  0.25292957  1
  Cu  Cu108  1  0.16217386  0.16637909  0.25547487  1
  Cu  Cu109  1  0.50203808  0.50095363  0.73994774  1
  Cu  Cu110  1  0.66247901  0.33649104  0.49358485  1
  Cu  Cu111  1  0.83492504  0.82139035  0.75103343  1
  Cu  Cu112  1  0.17747229  0.17538159  0.74116785  1
  Cu  Cu113  1  0.33211081  0.33543510  0.00248218  1
  Cu  Cu114  1  -0.00312742  0.66872274  0.00648736  1
  Se  Se115  1  0.07287882  0.07770444  0.06051813  1
  Se  Se116  1  0.09480284  0.08321998  0.54248305  1
  Se  Se117  1  0.09438788  0.42321272  0.05916948  1
  Se  Se118  1  0.07657231  0.41058219  0.56026522  1
  Se  Se119  1  0.08102621  0.75118528  0.05939218  1
  Se  Se120  1  0.07860283  0.74628414  0.55593896  1
  Se  Se121  1  0.41267545  0.07523715  0.06561958  1
  Se  Se122  1  0.41796365  0.08554646  0.54336992  1
  Se  Se123  1  0.41558911  0.40739348  0.06407079  1
  Se  Se124  1  0.40932386  0.41860083  0.54844313  1
  Se  Se125  1  0.41670798  0.74849435  0.05273393  1
  Se  Se126  1  0.42213821  0.76425192  0.54405226  1
  Se  Se127  1  0.73474978  0.07365660  0.06358900  1
  Se  Se128  1  0.74528223  0.07914449  0.54157115  1
  Se  Se129  1  0.74085671  0.41149232  0.06064983  1
  Se  Se130  1  0.74651192  0.41979068  0.54801938  1
  Se  Se131  1  0.74852782  0.75281919  0.05593204  1
  Se  Se132  1  0.75045460  0.74214257  0.55649685  1
  Se  Se133  1  0.25519598  0.24846298  0.05990932  1
  Se  Se134  1  0.24739436  0.25027939  0.54768511  1
  Se  Se135  1  0.24887483  0.57790126  0.05390346  1
  Se  Se136  1  0.25305973  0.59643806  0.56108126  1
  Se  Se137  1  0.24851306  0.91387091  0.05652981  1
  Se  Se138  1  0.26114506  0.92364231  0.56178033  1
  Se  Se139  1  0.58560812  0.25437167  0.06263554  1
  Se  Se140  1  0.57810143  0.25441276  0.54741083  1
  Se  Se141  1  0.59196741  0.58478425  0.06138252  1
  Se  Se142  1  0.57046554  0.57023254  0.54342459  1
  Se  Se143  1  0.57091175  0.91108155  0.06075774  1
  Se  Se144  1  0.60963101  0.92971252  0.54806331  1
  Se  Se145  1  0.92505198  0.26198149  0.06400226  1
  Se  Se146  1  0.91172196  0.25122186  0.54583099  1
  Se  Se147  1  0.92164336  0.58919862  0.07107947  1
  Se  Se148  1  0.91916468  0.58146136  0.54947583  1
  Se  Se149  1  0.91018158  0.91380938  0.06009744  1
  Se  Se150  1  0.93109987  0.92364112  0.55537255  1
  Se  Se151  1  0.08514052  0.25321618  0.44664177  1
  Se  Se152  1  0.07658135  0.25623905  0.94271132  1
  Se  Se153  1  0.08134962  0.58873758  0.43803413  1
  Se  Se154  1  0.07849617  0.58521489  0.95096592  1
  Se  Se155  1  0.07214995  0.92458460  0.43964305  1
  Se  Se156  1  0.08290720  0.91560022  0.95087862  1
  Se  Se157  1  0.41456031  0.25042552  0.44250403  1
  Se  Se158  1  0.41388597  0.25920052  0.94051408  1
  Se  Se159  1  0.40437033  0.59489552  0.45623538  1
  Se  Se160  1  0.40564944  0.59249054  0.93924593  1
  Se  Se161  1  0.41705942  0.91804415  0.44436582  1
  Se  Se162  1  0.42282195  0.91309083  0.94638423  1
  Se  Se163  1  0.74917815  0.25070238  0.44612037  1
  Se  Se164  1  0.74925401  0.25184969  0.94256087  1
  Se  Se165  1  0.74922201  0.58329602  0.44921078  1
  Se  Se166  1  0.73960391  0.58634065  0.93870121  1
  Se  Se167  1  0.75111067  0.91794703  0.42855804  1
  Se  Se168  1  0.74782460  0.92025492  0.95503415  1
  Se  Se169  1  0.24399323  0.08381454  0.44177830  1
  Se  Se170  1  0.26633987  0.07019988  0.93773717  1
  Se  Se171  1  0.25684820  0.41812807  0.43209534  1
  Se  Se172  1  0.24867860  0.41674659  0.94846854  1
  Se  Se173  1  0.25855178  0.74169623  0.44316992  1
  Se  Se174  1  0.24604795  0.75388868  0.94916576  1
  Se  Se175  1  0.57301042  0.09162898  0.44903012  1
  Se  Se176  1  0.59597785  0.07441380  0.94349133  1
  Se  Se177  1  0.57869221  0.41608456  0.43861168  1
  Se  Se178  1  0.58700529  0.41110125  0.94024251  1
  Se  Se179  1  0.58212124  0.76606375  0.46074991  1
  Se  Se180  1  0.57826690  0.74807112  0.94779788  1
  Se  Se181  1  0.91300906  0.08695173  0.45096360  1
  Se  Se182  1  0.91826724  0.07546290  0.94127312  1
  Se  Se183  1  0.91386351  0.42381700  0.44716629  1
  Se  Se184  1  0.92225235  0.41196787  0.94675526  1
  Se  Se185  1  0.92270036  0.74697016  0.43314318  1
  Se  Se186  1  0.90785277  0.74467522  0.95078024  1
  Se  Se187  1  0.25016297  0.24938004  0.30372827  1
  Se  Se188  1  0.25749829  0.26005667  0.79481714  1
  Se  Se189  1  0.25512558  0.57309739  0.31610145  1
  Se  Se190  1  0.24337502  0.58053950  0.81391532  1
  Se  Se191  1  0.24619283  0.90916868  0.30409332  1
  Se  Se192  1  0.24175060  0.90667830  0.80611835  1
  Se  Se193  1  0.58510168  0.24463844  0.30701078  1
  Se  Se194  1  0.58808855  0.25388672  0.79834844  1
  Se  Se195  1  0.57758389  0.59406963  0.31993407  1
  Se  Se196  1  0.58081583  0.58464370  0.79722270  1
  Se  Se197  1  0.58405640  0.91667061  0.30573224  1
  Se  Se198  1  0.58140737  0.91219558  0.80694773  1
  Se  Se199  1  0.91916352  0.25408846  0.31055274  1
  Se  Se200  1  0.91116436  0.24410250  0.80502194  1
  Se  Se201  1  0.92017309  0.59029666  0.30548104  1
  Se  Se202  1  0.90377531  0.57418627  0.80203804  1
  Se  Se203  1  0.91636430  0.92217368  0.29938721  1
  Se  Se204  1  0.91447122  0.90710613  0.80797318  1
  Se  Se205  1  0.07634360  0.08475031  0.30749466  1
  Se  Se206  1  0.09847084  0.09283466  0.80121368  1
  Se  Se207  1  0.08415512  0.41828756  0.30246620  1
  Se  Se208  1  0.08565130  0.42059457  0.81483596  1
  Se  Se209  1  0.08153702  0.74659017  0.29813991  1
  Se  Se210  1  0.07507587  0.74703406  0.80622133  1
  Se  Se211  1  0.41195152  0.07534297  0.30790651  1
  Se  Se212  1  0.43171070  0.09936017  0.80552289  1
  Se  Se213  1  0.41193234  0.40834787  0.29805061  1
  Se  Se214  1  0.41646290  0.42265320  0.79608031  1
  Se  Se215  1  0.43045722  0.74612918  0.31823638  1
  Se  Se216  1  0.42061508  0.75738893  0.80615763  1
  Se  Se217  1  0.74863378  0.08528566  0.30560989  1
  Se  Se218  1  0.75777189  0.08730952  0.80390265  1
  Se  Se219  1  0.75333803  0.41915301  0.30773271  1
  Se  Se220  1  0.74342809  0.40805223  0.79813053  1
  Se  Se221  1  0.74471014  0.74889344  0.30443120  1
  Se  Se222  1  0.74142269  0.75032132  0.80569384  1
  Se  Se223  1  0.24544897  0.08056761  0.20239759  1
  Se  Se224  1  0.25440736  0.08914623  0.68500965  1
  Se  Se225  1  0.25665643  0.41735933  0.19865378  1
  Se  Se226  1  0.24524557  0.42245987  0.69626336  1
  Se  Se227  1  0.25030138  0.74918188  0.18908125  1
  Se  Se228  1  0.24604436  0.75802648  0.69323195  1
  Se  Se229  1  0.58305879  0.08107002  0.20566601  1
  Se  Se230  1  0.57528169  0.09229902  0.68046915  1
  Se  Se231  1  0.59172558  0.40918561  0.20819976  1
  Se  Se232  1  0.58477384  0.41711526  0.68770853  1
  Se  Se233  1  0.58428598  0.74815985  0.19775592  1
  Se  Se234  1  0.58325400  0.74810235  0.68874963  1
  Se  Se235  1  0.90892451  0.08956446  0.19928686  1
  Se  Se236  1  0.91038713  0.08825323  0.68307188  1
  Se  Se237  1  0.91960578  0.41741221  0.20211917  1
  Se  Se238  1  0.90686683  0.41952355  0.68295155  1
  Se  Se239  1  0.91309806  0.75230835  0.20133463  1
  Se  Se240  1  0.91851972  0.73960891  0.69724721  1
  Se  Se241  1  0.08319846  0.25479345  0.20144082  1
  Se  Se242  1  0.08286595  0.24005026  0.68167145  1
  Se  Se243  1  0.08910371  0.58442987  0.20177077  1
  Se  Se244  1  0.07574089  0.58720996  0.70420732  1
  Se  Se245  1  0.08004891  0.91857789  0.19660518  1
  Se  Se246  1  0.09384995  0.90548477  0.69104293  1
  Se  Se247  1  0.41534179  0.24524758  0.20345575  1
  Se  Se248  1  0.41353070  0.25905231  0.68883547  1
  Se  Se249  1  0.43334748  0.57265883  0.19393658  1
  Se  Se250  1  0.42782873  0.58477507  0.67905209  1
  Se  Se251  1  0.40969605  0.90978309  0.20659058  1
  Se  Se252  1  0.42874329  0.92098750  0.68905842  1
  Se  Se253  1  0.74599376  0.25372981  0.20253963  1
  Se  Se254  1  0.74187631  0.24861072  0.68908600  1
  Se  Se255  1  0.75055673  0.58416991  0.20262339  1
  Se  Se256  1  0.74425563  0.58303539  0.69019515  1
  Se  Se257  1  0.74316321  0.91761215  0.19956110  1
  Se  Se258  1  0.76269476  0.90770544  0.68953305  1
