# generated using pymatgen
data_In86Cu29Se144
_symmetry_space_group_name_H-M   'P 1'
_cell_length_a   17.58048938
_cell_length_b   17.58451536
_cell_length_c   23.43903008
_cell_angle_alpha   89.97881470
_cell_angle_beta   89.98581631
_cell_angle_gamma   89.96088575
_symmetry_Int_Tables_number   1
_chemical_formula_structural   In86Cu29Se144
_chemical_formula_sum   'In86 Cu29 Se144'
_cell_volume   7246.04214657
_cell_formula_units_Z   1
loop_
 _symmetry_equiv_pos_site_id
 _symmetry_equiv_pos_as_xyz
  1  'x, y, z'
loop_
 _atom_site_type_symbol
 _atom_site_label
 _atom_site_symmetry_multiplicity
 _atom_site_fract_x
 _atom_site_fract_y
 _atom_site_fract_z
 _atom_site_occupancy
  In  In0  1  0.00736001  0.17454251  0.12027978  1
  In  In1  1  0.00279651  0.15571511  0.63739998  1
  In  In2  1  -0.02119700  0.49402349  0.13180887  1
  In  In3  1  -0.01809847  0.49918890  0.62679548  1
  In  In4  1  0.00638979  0.82402003  0.12255296  1
  In  In5  1  0.00623405  0.84365660  0.61853072  1
  In  In6  1  0.32665210  0.15713942  0.11592051  1
  In  In7  1  0.33262636  0.17463783  0.62844788  1
  In  In8  1  0.33864525  0.50911424  0.12822892  1
  In  In9  1  0.33738104  0.49945517  0.63041494  1
  In  In10  1  0.33694812  0.83596830  0.12533641  1
  In  In11  1  0.33066849  0.83248066  0.62394790  1
  In  In12  1  0.65557803  0.15519880  0.11047057  1
  In  In13  1  0.68362343  0.16000729  0.64715202  1
  In  In14  1  0.67214387  0.50826809  0.12729669  1
  In  In15  1  0.67994079  0.49949472  0.63970610  1
  In  In16  1  0.66469225  0.84448646  0.12963282  1
  In  In17  1  0.66403630  0.82829166  0.62468317  1
  In  In18  1  0.17392106  -0.00871281  0.38131476  1
  In  In19  1  0.15952196  0.00888389  0.88210500  1
  In  In20  1  0.15329281  0.33596493  0.37918335  1
  In  In21  1  0.15534917  0.31907571  0.86738737  1
  In  In22  1  0.18022228  0.66554551  0.37144090  1
  In  In23  1  0.18037088  0.66840397  0.87450934  1
  In  In24  1  0.48688694  -0.01055303  0.36711633  1
  In  In25  1  0.51162891  -0.01305890  0.87931438  1
  In  In26  1  0.50786225  0.33268234  0.37633188  1
  In  In27  1  0.48802094  0.32911040  0.87023449  1
  In  In28  1  0.51595786  0.68128146  0.36591274  1
  In  In29  1  0.51772040  0.69232430  0.85990491  1
  In  In30  1  0.81583608  -0.00951380  0.36855274  1
  In  In31  1  0.84040625  0.01353225  0.85994245  1
  In  In32  1  0.84529890  0.33034532  0.37880096  1
  In  In33  1  0.80415281  0.30051516  0.83618180  1
  In  In34  1  0.82334532  0.67593400  0.38567438  1
  In  In35  1  0.82082804  0.67102258  0.87175100  1
  In  In36  1  -0.00018338  0.18015030  0.37621727  1
  In  In37  1  -0.00389959  0.16818812  0.87503706  1
  In  In38  1  -0.00170646  0.48494439  0.37508413  1
  In  In39  1  -0.00578115  0.48371079  0.86935266  1
  In  In40  1  -0.00282304  0.83570532  0.38482006  1
  In  In41  1  -0.00665567  0.85029540  0.87340886  1
  In  In42  1  0.33493482  0.14986467  0.37457799  1
  In  In43  1  0.32377499  0.16919405  0.88268518  1
  In  In44  1  0.31642807  0.51614296  0.36893579  1
  In  In45  1  0.33916380  0.50943363  0.86556941  1
  In  In46  1  0.33563117  0.83323140  0.37446841  1
  In  In47  1  0.34215536  0.82720940  0.88076320  1
  In  In48  1  0.67585289  0.16176987  0.37387741  1
  In  In49  1  0.66314756  0.15730933  0.87261063  1
  In  In50  1  0.66175692  0.51657534  0.37887420  1
  In  In51  1  0.67646447  0.49630297  0.86746511  1
  In  In52  1  0.66271460  0.82958662  0.37860206  1
  In  In53  1  0.65429392  0.83702014  0.86464548  1
  In  In54  1  0.17545129  0.00670089  0.12029328  1
  In  In55  1  0.15949025  -0.00443609  0.61972892  1
  In  In56  1  0.16297062  0.32419069  0.12274219  1
  In  In57  1  0.17390934  0.32363895  0.63000286  1
  In  In58  1  0.16557511  0.68278147  0.12463360  1
  In  In59  1  0.16859911  0.68193710  0.62098375  1
  In  In60  1  0.50174630  -0.00546684  0.12155595  1
  In  In61  1  0.51224877  -0.01180859  0.63087720  1
  In  In62  1  0.50925818  0.32698554  0.11667373  1
  In  In63  1  0.50648670  0.32846462  0.63676849  1
  In  In64  1  0.49882298  0.67540810  0.12851951  1
  In  In65  1  0.49862337  0.67740349  0.63376602  1
  In  In66  1  0.81527400  0.00122116  0.12483286  1
  In  In67  1  0.84105679  -0.00292937  0.63189051  1
  In  In68  1  0.84480421  0.33691596  0.12397523  1
  In  In69  1  0.82839465  0.34231066  0.64455361  1
  In  In70  1  0.82169500  0.66975435  0.13377122  1
  In  In71  1  0.82065613  0.65909566  0.62020062  1
  In  In72  1  0.16415603  0.49554505  -0.00504253  1
  In  In73  1  0.83112748  0.49816489  -0.00376472  1
  In  In74  1  0.83212976  0.83886283  0.00224850  1
  In  In75  1  0.50171558  0.15881610  0.51186296  1
  In  In76  1  0.49719475  0.49937095  0.00175036  1
  In  In77  1  0.49867671  0.50738051  0.50282616  1
  In  In78  1  0.33003233  0.33737498  0.24605445  1
  In  In79  1  0.67196431  0.33536898  0.24597415  1
  In  In80  1  0.00027785  0.66271663  0.25344403  1
  In  In81  1  0.16391912  0.50346755  0.49417515  1
  In  In82  1  0.33974388  -0.00763703  0.75195635  1
  In  In83  1  -0.00215888  0.00088220  0.25824317  1
  In  In84  1  0.84214521  0.16222151  0.50916859  1
  In  In85  1  0.00132216  0.66828196  0.74431391  1
  Cu  Cu86  1  0.32594318  0.32590446  -0.00684509  1
  Cu  Cu87  1  0.17474261  0.83998238  0.25059979  1
  Cu  Cu88  1  0.16876303  0.16969538  0.24397372  1
  Cu  Cu89  1  0.82948820  0.83683376  0.74618139  1
  Cu  Cu90  1  0.66657912  0.67063931  0.50198345  1
  Cu  Cu91  1  0.49578894  0.16792093  0.75527250  1
  Cu  Cu92  1  0.67692080  0.33696208  0.51444579  1
  Cu  Cu93  1  0.33761176  0.67569570  0.49729660  1
  Cu  Cu94  1  -0.00266557  0.00571611  0.50125820  1
  Cu  Cu95  1  -0.00519107  0.67074012  0.50445722  1
  Cu  Cu96  1  0.66165485  -0.00685286  0.49942805  1
  Cu  Cu97  1  0.00144002  0.00574035  -0.00323656  1
  Cu  Cu98  1  0.00404111  0.66700171  0.00030484  1
  Cu  Cu99  1  0.33711305  0.67519126  -0.00026126  1
  Cu  Cu100  1  0.32973871  -0.00744346  0.49820844  1
  Cu  Cu101  1  0.16576354  0.83811083  0.74597254  1
  Cu  Cu102  1  0.66877184  -0.00200211  -0.00472670  1
  Cu  Cu103  1  0.33200737  0.32397816  0.50456123  1
  Cu  Cu104  1  0.00104624  0.33215199  0.50503151  1
  Cu  Cu105  1  0.83144681  0.16552460  0.24841050  1
  Cu  Cu106  1  0.66990845  0.32378507  -0.01086394  1
  Cu  Cu107  1  0.33939244  -0.00410867  0.00010116  1
  Cu  Cu108  1  0.50236247  0.50043185  0.74982046  1
  Cu  Cu109  1  0.16714853  0.16335062  0.75643176  1
  Cu  Cu110  1  0.50215771  0.15606600  0.24119355  1
  Cu  Cu111  1  -0.00356746  0.32249809  -0.00388366  1
  Cu  Cu112  1  0.50217392  0.83529405  0.24844408  1
  Cu  Cu113  1  0.17224799  0.49880972  0.74701295  1
  Cu  Cu114  1  0.49392916  0.50949752  0.25172483  1
  Se  Se115  1  0.08560736  0.08502549  0.05414643  1
  Se  Se116  1  0.07883330  0.08808225  0.55619124  1
  Se  Se117  1  0.06808455  0.41250217  0.05682664  1
  Se  Se118  1  0.08357873  0.41553671  0.56261803  1
  Se  Se119  1  0.08812155  0.75433078  0.04684084  1
  Se  Se120  1  0.08397722  0.75479809  0.54975110  1
  Se  Se121  1  0.42157154  0.08213999  0.05261174  1
  Se  Se122  1  0.40661310  0.06709263  0.56640650  1
  Se  Se123  1  0.40171147  0.40566431  0.05787609  1
  Se  Se124  1  0.41582703  0.40463032  0.55991952  1
  Se  Se125  1  0.42122387  0.75436543  0.05500273  1
  Se  Se126  1  0.41919333  0.75101386  0.55728163  1
  Se  Se127  1  0.75344122  0.08340707  0.04560239  1
  Se  Se128  1  0.73924853  0.07660160  0.55999264  1
  Se  Se129  1  0.73850960  0.40558147  0.05670659  1
  Se  Se130  1  0.75897362  0.42087707  0.56510347  1
  Se  Se131  1  0.74235353  0.74645882  0.05859955  1
  Se  Se132  1  0.75236250  0.75458402  0.55263575  1
  Se  Se133  1  0.24441254  0.24735929  0.05162760  1
  Se  Se134  1  0.24615423  0.24162680  0.55350836  1
  Se  Se135  1  0.25422488  0.58923795  0.05457545  1
  Se  Se136  1  0.25986872  0.58826271  0.55529794  1
  Se  Se137  1  0.25250944  0.91571024  0.05471887  1
  Se  Se138  1  0.24571485  0.91202476  0.55479523  1
  Se  Se139  1  0.58042039  0.24622816  0.04245594  1
  Se  Se140  1  0.59872965  0.24829224  0.56745118  1
  Se  Se141  1  0.58875741  0.59057609  0.05795202  1
  Se  Se142  1  0.59174849  0.58680493  0.56553469  1
  Se  Se143  1  0.58768089  0.91471747  0.05125718  1
  Se  Se144  1  0.57946139  0.90943152  0.55266654  1
  Se  Se145  1  0.91107554  0.24519325  0.05312044  1
  Se  Se146  1  0.92103904  0.25853345  0.56989602  1
  Se  Se147  1  0.91818721  0.59352893  0.05862871  1
  Se  Se148  1  0.91259181  0.58272151  0.55251754  1
  Se  Se149  1  0.92562364  0.92744884  0.06279236  1
  Se  Se150  1  0.91337418  0.92179587  0.55326107  1
  Se  Se151  1  0.08376643  0.24859501  0.45206629  1
  Se  Se152  1  0.08701233  0.24307580  0.94694899  1
  Se  Se153  1  0.07261400  0.59502351  0.43744061  1
  Se  Se154  1  0.07417989  0.58637550  0.93456893  1
  Se  Se155  1  0.08204882  0.92004336  0.44961270  1
  Se  Se156  1  0.08113141  0.91547671  0.94729344  1
  Se  Se157  1  0.41762325  0.24996620  0.44353502  1
  Se  Se158  1  0.41902878  0.24697715  0.94659804  1
  Se  Se159  1  0.41300409  0.59233752  0.43558994  1
  Se  Se160  1  0.41491444  0.59266672  0.94000358  1
  Se  Se161  1  0.41831271  0.91369627  0.44670736  1
  Se  Se162  1  0.42273170  0.91176825  0.94831455  1
  Se  Se163  1  0.74688179  0.25284019  0.44853232  1
  Se  Se164  1  0.75435049  0.24745491  0.93259651  1
  Se  Se165  1  0.74844493  0.58124348  0.45317998  1
  Se  Se166  1  0.73652891  0.59254616  0.94524321  1
  Se  Se167  1  0.74911616  0.91305097  0.44728423  1
  Se  Se168  1  0.75162978  0.92337843  0.93220618  1
  Se  Se169  1  0.24992513  0.08330797  0.44928233  1
  Se  Se170  1  0.25037081  0.07992419  0.95177403  1
  Se  Se171  1  0.26261645  0.41029480  0.44122719  1
  Se  Se172  1  0.25507182  0.41192849  0.93214461  1
  Se  Se173  1  0.24838467  0.75287479  0.44433541  1
  Se  Se174  1  0.24710590  0.75415084  0.94864242  1
  Se  Se175  1  0.58479663  0.07764448  0.43981663  1
  Se  Se176  1  0.58071795  0.08260065  0.94701509  1
  Se  Se177  1  0.59320200  0.40872509  0.44991778  1
  Se  Se178  1  0.58802492  0.41251581  0.93791812  1
  Se  Se179  1  0.57780239  0.75071637  0.45074601  1
  Se  Se180  1  0.58576014  0.75847569  0.94264407  1
  Se  Se181  1  0.91701371  0.07608273  0.43403827  1
  Se  Se182  1  0.91372344  0.08160131  0.94227773  1
  Se  Se183  1  0.91724279  0.41481403  0.45222120  1
  Se  Se184  1  0.91280129  0.40127649  0.93895585  1
  Se  Se185  1  0.91162254  0.75578836  0.45216479  1
  Se  Se186  1  0.92102044  0.74497518  0.93969012  1
  Se  Se187  1  0.24749044  0.24575948  0.31111296  1
  Se  Se188  1  0.25496685  0.24783580  0.80377804  1
  Se  Se189  1  0.24251145  0.58664596  0.29192128  1
  Se  Se190  1  0.25005483  0.58800689  0.79840089  1
  Se  Se191  1  0.25625192  0.92249228  0.30548325  1
  Se  Se192  1  0.24263915  0.91276893  0.81364775  1
  Se  Se193  1  0.57738076  0.23965256  0.30344712  1
  Se  Se194  1  0.58121434  0.25043703  0.80746946  1
  Se  Se195  1  0.58791055  0.58633344  0.29926567  1
  Se  Se196  1  0.58373273  0.58022059  0.80689034  1
  Se  Se197  1  0.58506785  0.91590249  0.30607300  1
  Se  Se198  1  0.58256549  0.92646461  0.79551994  1
  Se  Se199  1  0.91388489  0.24856215  0.30210806  1
  Se  Se200  1  0.94098411  0.26902374  0.80517389  1
  Se  Se201  1  0.91037609  0.58188360  0.31823622  1
  Se  Se202  1  0.91301662  0.58369975  0.80912644  1
  Se  Se203  1  0.90757806  0.90138606  0.30688758  1
  Se  Se204  1  0.91826989  0.91959411  0.79499620  1
  Se  Se205  1  0.09327730  0.09246598  0.31182827  1
  Se  Se206  1  0.08007533  0.08099554  0.80636643  1
  Se  Se207  1  0.09385473  0.42432897  0.30545933  1
  Se  Se208  1  0.08948985  0.41834264  0.80125974  1
  Se  Se209  1  0.08940066  0.76207782  0.30961474  1
  Se  Se210  1  0.08646831  0.75783345  0.80931963  1
  Se  Se211  1  0.41523738  0.08141457  0.29798252  1
  Se  Se212  1  0.41923825  0.08574742  0.81619325  1
  Se  Se213  1  0.42164693  0.42391828  0.31230741  1
  Se  Se214  1  0.41459344  0.41730042  0.80014380  1
  Se  Se215  1  0.41722657  0.75217395  0.30288225  1
  Se  Se216  1  0.39961705  0.73803538  0.80494796  1
  Se  Se217  1  0.74599917  0.08167168  0.29806593  1
  Se  Se218  1  0.74351392  0.08381325  0.79714767  1
  Se  Se219  1  0.74869785  0.41760245  0.31873304  1
  Se  Se220  1  0.76484644  0.43138103  0.79560270  1
  Se  Se221  1  0.73566614  0.73727415  0.31067726  1
  Se  Se222  1  0.74771111  0.75569238  0.80136077  1
  Se  Se223  1  0.25325351  0.08430044  0.19553682  1
  Se  Se224  1  0.24608169  0.08270729  0.69360517  1
  Se  Se225  1  0.23914085  0.42567957  0.18666953  1
  Se  Se226  1  0.25498333  0.41266294  0.69514730  1
  Se  Se227  1  0.25259192  0.75306368  0.19573542  1
  Se  Se228  1  0.24936966  0.75202438  0.69664586  1
  Se  Se229  1  0.58978874  0.07674737  0.19003242  1
  Se  Se230  1  0.57582743  0.08569250  0.69863723  1
  Se  Se231  1  0.57072900  0.42514356  0.19091935  1
  Se  Se232  1  0.58810992  0.41547931  0.70064987  1
  Se  Se233  1  0.58756249  0.75214174  0.19621514  1
  Se  Se234  1  0.60046492  0.73749316  0.69852320  1
  Se  Se235  1  0.91539702  0.08702907  0.18901528  1
  Se  Se236  1  0.89620967  0.09880399  0.69934237  1
  Se  Se237  1  0.90968397  0.41064828  0.20457310  1
  Se  Se238  1  0.92873485  0.41427655  0.70548539  1
  Se  Se239  1  0.91229272  0.75937677  0.19491695  1
  Se  Se240  1  0.91216571  0.75834989  0.68458697  1
  Se  Se241  1  0.08009465  0.25311707  0.19788341  1
  Se  Se242  1  0.08735447  0.24639087  0.69878200  1
  Se  Se243  1  0.08391146  0.58012298  0.18322862  1
  Se  Se244  1  0.09305616  0.57746422  0.68366185  1
  Se  Se245  1  0.08769540  0.91528520  0.19209122  1
  Se  Se246  1  0.08010994  0.92141878  0.69585993  1
  Se  Se247  1  0.42263404  0.24560238  0.18736461  1
  Se  Se248  1  0.41352826  0.25063288  0.70061170  1
  Se  Se249  1  0.41357515  0.59348550  0.19778324  1
  Se  Se250  1  0.41862503  0.58386403  0.69649224  1
  Se  Se251  1  0.41840614  0.91909272  0.19506873  1
  Se  Se252  1  0.42892124  0.89764686  0.69753656  1
  Se  Se253  1  0.75088764  0.23978230  0.18299741  1
  Se  Se254  1  0.74903244  0.25712150  0.71276417  1
  Se  Se255  1  0.77175079  0.56082279  0.19633489  1
  Se  Se256  1  0.75451157  0.59312739  0.70402715  1
  Se  Se257  1  0.75854421  0.91153611  0.19876562  1
  Se  Se258  1  0.74480835  0.91818722  0.69183815  1
