# generated using pymatgen
data_In86Cu29Se144
_symmetry_space_group_name_H-M   'P 1'
_cell_length_a   17.58362711
_cell_length_b   17.57535084
_cell_length_c   23.43574684
_cell_angle_alpha   89.98183689
_cell_angle_beta   90.02685992
_cell_angle_gamma   90.01386569
_symmetry_Int_Tables_number   1
_chemical_formula_structural   In86Cu29Se144
_chemical_formula_sum   'In86 Cu29 Se144'
_cell_volume   7242.54469782
_cell_formula_units_Z   1
loop_
 _symmetry_equiv_pos_site_id
 _symmetry_equiv_pos_as_xyz
  1  'x, y, z'
loop_
 _atom_site_type_symbol
 _atom_site_label
 _atom_site_symmetry_multiplicity
 _atom_site_fract_x
 _atom_site_fract_y
 _atom_site_fract_z
 _atom_site_occupancy
  In  In0  1  0.01767145  0.16854896  0.12159874  1
  In  In1  1  0.01487299  0.15434236  0.64830257  1
  In  In2  1  0.00227624  0.48459609  0.12347437  1
  In  In3  1  -0.00614933  0.50559317  0.63212899  1
  In  In4  1  0.00067089  0.83351422  0.11664840  1
  In  In5  1  -0.00068417  0.83478646  0.62433496  1
  In  In6  1  0.32976535  0.16830413  0.13064712  1
  In  In7  1  0.30977502  0.13887212  0.58332376  1
  In  In8  1  0.31973885  0.49590510  0.12261287  1
  In  In9  1  0.33729702  0.50143806  0.62835638  1
  In  In10  1  0.33320322  0.84727937  0.12776645  1
  In  In11  1  0.31780331  0.83312799  0.61252775  1
  In  In12  1  0.65289508  0.16936263  0.13683811  1
  In  In13  1  0.65989631  0.17125495  0.62739209  1
  In  In14  1  0.65981800  0.49331396  0.12335478  1
  In  In15  1  0.66391521  0.47746187  0.62363160  1
  In  In16  1  0.66614174  0.84119968  0.12761991  1
  In  In17  1  0.67882176  0.84507139  0.61998304  1
  In  In18  1  0.18586434  -0.00736959  0.39750913  1
  In  In19  1  0.15757030  0.01187391  0.87703163  1
  In  In20  1  0.16206838  0.32293613  0.37309297  1
  In  In21  1  0.16807822  0.33588157  0.87982217  1
  In  In22  1  0.17381198  0.67764188  0.37804912  1
  In  In23  1  0.16605910  0.66812737  0.87150455  1
  In  In24  1  0.49364634  0.00534541  0.37718981  1
  In  In25  1  0.50838757  0.00663801  0.87170808  1
  In  In26  1  0.47842099  0.29482917  0.34177222  1
  In  In27  1  0.49710939  0.31668884  0.87760255  1
  In  In28  1  0.50997540  0.66937154  0.37864738  1
  In  In29  1  0.49908838  0.68396645  0.86639941  1
  In  In30  1  0.82941599  0.00135293  0.38076862  1
  In  In31  1  0.82850931  -0.00380231  0.86853103  1
  In  In32  1  0.83473306  0.32861257  0.37495982  1
  In  In33  1  0.83017488  0.32954627  0.86793274  1
  In  In34  1  0.82822097  0.66904182  0.38684308  1
  In  In35  1  0.85147097  0.66693325  0.87303606  1
  In  In36  1  0.00115497  0.17046331  0.37905095  1
  In  In37  1  0.01496938  0.17574784  0.85775595  1
  In  In38  1  -0.00238212  0.48083210  0.37982641  1
  In  In39  1  0.00613348  0.50929110  0.86666517  1
  In  In40  1  0.00278749  0.84669310  0.39645794  1
  In  In41  1  0.00372267  0.83458778  0.87275411  1
  In  In42  1  0.33653071  0.16815833  0.37950953  1
  In  In43  1  0.33214103  0.16991628  0.88303403  1
  In  In44  1  0.34672847  0.48861925  0.37305886  1
  In  In45  1  0.31847311  0.49529795  0.87444439  1
  In  In46  1  0.33438977  0.84704062  0.38376231  1
  In  In47  1  0.33264152  0.82467939  0.86960632  1
  In  In48  1  0.65097185  0.14256085  0.35265953  1
  In  In49  1  0.66080121  0.16537332  0.87193072  1
  In  In50  1  0.67965788  0.49167908  0.37887455  1
  In  In51  1  0.67703194  0.49303787  0.87599313  1
  In  In52  1  0.64790951  0.85474298  0.39280774  1
  In  In53  1  0.66585960  0.85539980  0.87257360  1
  In  In54  1  0.17139875  0.01034880  0.11497491  1
  In  In55  1  0.15382230  -0.00262874  0.61358148  1
  In  In56  1  0.16668592  0.32890466  0.12584386  1
  In  In57  1  0.15565218  0.30020532  0.62047375  1
  In  In58  1  0.17177881  0.66877611  0.11502296  1
  In  In59  1  0.15364689  0.67385000  0.63431690  1
  In  In60  1  0.47146114  0.02486141  0.15760974  1
  In  In61  1  0.50386969  0.01285836  0.61305674  1
  In  In62  1  0.51327462  0.30604252  0.14369893  1
  In  In63  1  0.50024066  0.32420038  0.62052442  1
  In  In64  1  0.50996801  0.67648775  0.12692298  1
  In  In65  1  0.48202445  0.66935377  0.62895467  1
  In  In66  1  0.83193658  -0.01110016  0.12434743  1
  In  In67  1  0.84456956  -0.01093834  0.63221508  1
  In  In68  1  0.83317661  0.33749813  0.12957834  1
  In  In69  1  0.82632423  0.33412801  0.62597298  1
  In  In70  1  0.82446463  0.67616067  0.12071575  1
  In  In71  1  0.84542802  0.67614984  0.62031515  1
  In  In72  1  0.48903464  0.49318001  -0.00087624  1
  In  In73  1  0.84146064  0.50210722  0.00545307  1
  In  In74  1  0.00150468  0.00758566  0.25183856  1
  In  In75  1  0.67085928  0.66355125  0.74880051  1
  In  In76  1  0.49528419  0.84517371  0.00739495  1
  In  In77  1  0.00547020  0.66488848  0.25210590  1
  In  In78  1  0.33331804  0.32906291  0.74355538  1
  In  In79  1  0.32723107  0.00077001  0.73284110  1
  In  In80  1  0.33368625  0.66466317  0.25446065  1
  In  In81  1  0.66699853  0.66996717  0.24628498  1
  In  In82  1  0.83701044  0.16459258  0.49989519  1
  In  In83  1  0.50820568  0.49599959  0.49807176  1
  In  In84  1  0.16419956  0.49985797  0.49570737  1
  In  In85  1  0.83627238  0.16321106  -0.00918902  1
  Cu  Cu86  1  0.83779965  0.83353102  0.74692642  1
  Cu  Cu87  1  0.16517548  0.83447421  0.74648470  1
  Cu  Cu88  1  0.83071541  0.49423417  0.74820269  1
  Cu  Cu89  1  0.33267932  0.00392224  0.00621475  1
  Cu  Cu90  1  0.49714601  0.16531107  0.74477652  1
  Cu  Cu91  1  0.83890420  0.17287336  0.25193979  1
  Cu  Cu92  1  0.67036681  0.00186644  0.49783280  1
  Cu  Cu93  1  0.66409974  0.32211564  0.49491482  1
  Cu  Cu94  1  -0.00808193  0.33427085  0.50404292  1
  Cu  Cu95  1  0.49805107  0.83686035  0.74641636  1
  Cu  Cu96  1  0.16562927  0.48765421  0.25025136  1
  Cu  Cu97  1  0.66639950  0.66658333  0.50489147  1
  Cu  Cu98  1  0.82810028  0.83316113  0.25550011  1
  Cu  Cu99  1  0.00596746  0.33243181  -0.00352323  1
  Cu  Cu100  1  0.16903560  0.84535716  0.25563516  1
  Cu  Cu101  1  0.33412830  0.32514454  0.00585949  1
  Cu  Cu102  1  0.32631716  0.66412272  -0.00566858  1
  Cu  Cu103  1  0.00117430  -0.00469803  -0.00531570  1
  Cu  Cu104  1  0.50103578  0.49452271  0.24643195  1
  Cu  Cu105  1  0.82630309  0.16646597  0.74854244  1
  Cu  Cu106  1  0.67105068  0.67853640  -0.00008512  1
  Cu  Cu107  1  0.66313006  0.00735244  -0.00055850  1
  Cu  Cu108  1  0.17081000  0.16458709  0.25168247  1
  Cu  Cu109  1  0.00876514  0.67166582  -0.00757263  1
  Cu  Cu110  1  -0.00187838  0.66818476  0.50788490  1
  Cu  Cu111  1  0.49979368  0.49681442  0.74557748  1
  Cu  Cu112  1  0.84208313  0.49467247  0.25200231  1
  Cu  Cu113  1  0.16853099  0.49808005  0.75164522  1
  Cu  Cu114  1  0.32803711  0.67364832  0.50281147  1
  Se  Se115  1  0.08220984  0.08410613  0.04539512  1
  Se  Se116  1  0.07895176  0.10194818  0.55884564  1
  Se  Se117  1  0.08843210  0.41431883  0.05216785  1
  Se  Se118  1  0.07808765  0.41343758  0.56215154  1
  Se  Se119  1  0.08859986  0.75455870  0.05038793  1
  Se  Se120  1  0.08616133  0.75147800  0.55555508  1
  Se  Se121  1  0.41618933  0.08100521  0.06441472  1
  Se  Se122  1  0.42557878  0.08104995  0.53490898  1
  Se  Se123  1  0.41522384  0.40292341  0.06833944  1
  Se  Se124  1  0.40990269  0.41335214  0.55588775  1
  Se  Se125  1  0.40670311  0.74094030  0.05839434  1
  Se  Se126  1  0.41720857  0.75344106  0.55303328  1
  Se  Se127  1  0.74874288  0.08316320  0.05995335  1
  Se  Se128  1  0.74876533  0.07728921  0.56384518  1
  Se  Se129  1  0.74322958  0.40905726  0.05340757  1
  Se  Se130  1  0.74584553  0.40735125  0.54820666  1
  Se  Se131  1  0.74927876  0.76482613  0.05360831  1
  Se  Se132  1  0.75236048  0.75032122  0.55498887  1
  Se  Se133  1  0.24624946  0.24283101  0.05668526  1
  Se  Se134  1  0.26273686  0.27113123  0.55142165  1
  Se  Se135  1  0.24732878  0.57773741  0.04823608  1
  Se  Se136  1  0.24987735  0.58925764  0.56071137  1
  Se  Se137  1  0.24922026  0.91387354  0.05246949  1
  Se  Se138  1  0.26519462  0.94406770  0.55309505  1
  Se  Se139  1  0.58530358  0.24870411  0.05908556  1
  Se  Se140  1  0.58017714  0.24216952  0.54980435  1
  Se  Se141  1  0.58859571  0.59230192  0.05265417  1
  Se  Se142  1  0.58629999  0.58796975  0.56708198  1
  Se  Se143  1  0.58216079  0.93574426  0.06553165  1
  Se  Se144  1  0.58699649  0.91787495  0.55231911  1
  Se  Se145  1  0.92163164  0.25577955  0.05639637  1
  Se  Se146  1  0.92295084  0.24779693  0.56690024  1
  Se  Se147  1  0.93181411  0.59782031  0.06239220  1
  Se  Se148  1  0.91544001  0.57805380  0.55456189  1
  Se  Se149  1  0.91622161  0.91767074  0.05069460  1
  Se  Se150  1  0.91174235  0.91095842  0.55518609  1
  Se  Se151  1  0.07832706  0.25530876  0.44993620  1
  Se  Se152  1  0.08332071  0.24504747  0.94207753  1
  Se  Se153  1  0.07198174  0.59327162  0.43757537  1
  Se  Se154  1  0.08666028  0.58123794  0.94226317  1
  Se  Se155  1  0.09450456  0.91671887  0.46222934  1
  Se  Se156  1  0.08880007  0.91417651  0.94304116  1
  Se  Se157  1  0.42528078  0.25897507  0.43886817  1
  Se  Se158  1  0.41991769  0.24334614  0.95387060  1
  Se  Se159  1  0.40893850  0.59079738  0.44388860  1
  Se  Se160  1  0.41450498  0.59369440  0.93469027  1
  Se  Se161  1  0.42555692  0.91744881  0.45117581  1
  Se  Se162  1  0.40792567  0.92717909  0.93757191  1
  Se  Se163  1  0.74088131  0.23838243  0.43400958  1
  Se  Se164  1  0.74136592  0.25835675  0.94185791  1
  Se  Se165  1  0.74657299  0.58055629  0.45169794  1
  Se  Se166  1  0.74893596  0.59376093  0.94289538  1
  Se  Se167  1  0.75808105  0.91406689  0.45252826  1
  Se  Se168  1  0.74858575  0.92459259  0.94761200  1
  Se  Se169  1  0.23840745  0.10922582  0.45114180  1
  Se  Se170  1  0.24951847  0.08249456  0.94730853  1
  Se  Se171  1  0.25626396  0.40994471  0.43979816  1
  Se  Se172  1  0.25486425  0.41176942  0.95130833  1
  Se  Se173  1  0.24788285  0.75943806  0.44948478  1
  Se  Se174  1  0.24797202  0.75277166  0.94213294  1
  Se  Se175  1  0.58965812  0.08554852  0.44282285  1
  Se  Se176  1  0.57866648  0.08918687  0.94647400  1
  Se  Se177  1  0.58398694  0.40262988  0.43346460  1
  Se  Se178  1  0.58665587  0.40989039  0.94195185  1
  Se  Se179  1  0.58100898  0.74931352  0.45354582  1
  Se  Se180  1  0.58673257  0.75598628  0.94187272  1
  Se  Se181  1  0.93109265  0.07033312  0.44646455  1
  Se  Se182  1  0.92886443  0.07896307  0.93068710  1
  Se  Se183  1  0.90662350  0.41399536  0.45057871  1
  Se  Se184  1  0.92230272  0.41238329  0.93815913  1
  Se  Se185  1  0.91656026  0.75097905  0.45107006  1
  Se  Se186  1  0.91883002  0.75403364  0.94543106  1
  Se  Se187  1  0.25207192  0.24902183  0.30559846  1
  Se  Se188  1  0.24603175  0.24308159  0.80843104  1
  Se  Se189  1  0.24050075  0.57123500  0.31243306  1
  Se  Se190  1  0.25148210  0.58433180  0.80268240  1
  Se  Se191  1  0.25115244  0.92494262  0.31155961  1
  Se  Se192  1  0.24667093  0.91606332  0.80502651  1
  Se  Se193  1  0.61030259  0.26548521  0.30105545  1
  Se  Se194  1  0.57846845  0.24855706  0.80098580  1
  Se  Se195  1  0.58035946  0.57395694  0.30758230  1
  Se  Se196  1  0.57756933  0.57479612  0.81047214  1
  Se  Se197  1  0.58940217  0.92858928  0.31127499  1
  Se  Se198  1  0.57992047  0.92191248  0.79810462  1
  Se  Se199  1  0.92375889  0.25101327  0.30635183  1
  Se  Se200  1  0.91290112  0.25014330  0.79935649  1
  Se  Se201  1  0.91193544  0.58060341  0.31339500  1
  Se  Se202  1  0.91460753  0.58179127  0.79737009  1
  Se  Se203  1  0.91781266  0.90887013  0.31162529  1
  Se  Se204  1  0.91882293  0.91637778  0.80382740  1
  Se  Se205  1  0.09540279  0.08428938  0.31589001  1
  Se  Se206  1  0.08674598  0.07798398  0.79514997  1
  Se  Se207  1  0.07985635  0.41086668  0.30558223  1
  Se  Se208  1  0.08733386  0.41439872  0.80698016  1
  Se  Se209  1  0.08524592  0.76544540  0.31218887  1
  Se  Se210  1  0.08311043  0.74997470  0.80207633  1
  Se  Se211  1  0.42005667  0.09265817  0.30643327  1
  Se  Se212  1  0.41291321  0.08692097  0.80437940  1
  Se  Se213  1  0.41148992  0.41222142  0.29335564  1
  Se  Se214  1  0.42073414  0.41836769  0.81062914  1
  Se  Se215  1  0.42040014  0.75414139  0.31462004  1
  Se  Se216  1  0.41207700  0.75129551  0.79330627  1
  Se  Se217  1  0.76440133  0.07746124  0.30036095  1
  Se  Se218  1  0.74403758  0.08302567  0.80412922  1
  Se  Se219  1  0.75521626  0.41390755  0.30383742  1
  Se  Se220  1  0.74483797  0.41255624  0.79992278  1
  Se  Se221  1  0.74801032  0.75545904  0.31574819  1
  Se  Se222  1  0.75500560  0.75724775  0.81106962  1
  Se  Se223  1  0.24633851  0.07684907  0.19566605  1
  Se  Se224  1  0.24148162  0.09817982  0.67955297  1
  Se  Se225  1  0.25210057  0.40987348  0.19626419  1
  Se  Se226  1  0.23836425  0.41759193  0.68561486  1
  Se  Se227  1  0.23938113  0.75448661  0.19554199  1
  Se  Se228  1  0.25171220  0.75390518  0.69278804  1
  Se  Se229  1  0.59808359  0.06540843  0.20265149  1
  Se  Se230  1  0.58121225  0.07961767  0.69378971  1
  Se  Se231  1  0.58973184  0.41303132  0.19778656  1
  Se  Se232  1  0.57642502  0.40688983  0.69497204  1
  Se  Se233  1  0.57111069  0.76895600  0.20096433  1
  Se  Se234  1  0.58213255  0.75445294  0.68877768  1
  Se  Se235  1  0.91308779  0.09304957  0.18550892  1
  Se  Se236  1  0.91333434  0.07849702  0.70438525  1
  Se  Se237  1  0.92416258  0.41118360  0.19858512  1
  Se  Se238  1  0.91451168  0.41201645  0.69481312  1
  Se  Se239  1  0.91006918  0.75666612  0.19432465  1
  Se  Se240  1  0.92212890  0.74865384  0.69729113  1
  Se  Se241  1  0.08502800  0.24808352  0.19893522  1
  Se  Se242  1  0.07185721  0.26675780  0.70563429  1
  Se  Se243  1  0.09441508  0.57656585  0.18986620  1
  Se  Se244  1  0.08111750  0.58227368  0.70141578  1
  Se  Se245  1  0.08673255  0.91491670  0.18944898  1
  Se  Se246  1  0.08437830  0.91874391  0.69207432  1
  Se  Se247  1  0.41624575  0.23641474  0.20621562  1
  Se  Se248  1  0.41198418  0.23345322  0.68159120  1
  Se  Se249  1  0.42425522  0.57968782  0.18726710  1
  Se  Se250  1  0.41179397  0.58314482  0.70218313  1
  Se  Se251  1  0.41287682  0.90711923  0.20607211  1
  Se  Se252  1  0.42337911  0.91167048  0.67925968  1
  Se  Se253  1  0.75332639  0.24925909  0.19476696  1
  Se  Se254  1  0.74405081  0.25208232  0.69602036  1
  Se  Se255  1  0.76092116  0.57370624  0.19052727  1
  Se  Se256  1  0.75393166  0.57415429  0.68432036  1
  Se  Se257  1  0.75014792  0.91782330  0.19970328  1
  Se  Se258  1  0.74871225  0.91783316  0.70050160  1
