# generated using pymatgen
data_In86Cu29Se144
_symmetry_space_group_name_H-M   'P 1'
_cell_length_a   17.56762768
_cell_length_b   17.56726853
_cell_length_c   23.42807849
_cell_angle_alpha   90.02781978
_cell_angle_beta   89.98214821
_cell_angle_gamma   90.01377451
_symmetry_Int_Tables_number   1
_chemical_formula_structural   In86Cu29Se144
_chemical_formula_sum   'In86 Cu29 Se144'
_cell_volume   7230.26048458
_cell_formula_units_Z   1
loop_
 _symmetry_equiv_pos_site_id
 _symmetry_equiv_pos_as_xyz
  1  'x, y, z'
loop_
 _atom_site_type_symbol
 _atom_site_label
 _atom_site_symmetry_multiplicity
 _atom_site_fract_x
 _atom_site_fract_y
 _atom_site_fract_z
 _atom_site_occupancy
  In  In0  1  -0.01239521  0.17631564  0.13280454  1
  In  In1  1  0.00371465  0.17195992  0.61302148  1
  In  In2  1  -0.02188899  0.48581718  0.09491121  1
  In  In3  1  0.00292883  0.50134850  0.63990896  1
  In  In4  1  0.00955998  0.82478270  0.12810357  1
  In  In5  1  -0.00447888  0.82581341  0.61461645  1
  In  In6  1  0.32125360  0.16058638  0.13167991  1
  In  In7  1  0.33140075  0.17202237  0.61549113  1
  In  In8  1  0.34462922  0.50636226  0.11672875  1
  In  In9  1  0.31945921  0.49295779  0.62983861  1
  In  In10  1  0.32726917  0.82474441  0.13016731  1
  In  In11  1  0.33514749  0.84367772  0.61976967  1
  In  In12  1  0.67964265  0.15909195  0.13442419  1
  In  In13  1  0.66208032  0.15853737  0.61434933  1
  In  In14  1  0.66635513  0.49952524  0.12652500  1
  In  In15  1  0.67784065  0.51117744  0.62747477  1
  In  In16  1  0.65950692  0.84390686  0.13750334  1
  In  In17  1  0.67165097  0.82685968  0.62779620  1
  In  In18  1  0.16273371  -0.00235086  0.37572500  1
  In  In19  1  0.15743466  -0.00427694  0.88056382  1
  In  In20  1  0.15075328  0.33466569  0.37085215  1
  In  In21  1  0.16753461  0.33817925  0.87060083  1
  In  In22  1  0.17919833  0.67930178  0.36877099  1
  In  In23  1  0.15204072  0.67160770  0.89279244  1
  In  In24  1  0.50791921  0.00606570  0.36798844  1
  In  In25  1  0.48842300  -0.00340493  0.87941316  1
  In  In26  1  0.50089604  0.31588217  0.37242427  1
  In  In27  1  0.50471150  0.34580470  0.87305943  1
  In  In28  1  0.50340706  0.67506280  0.36930832  1
  In  In29  1  0.51309206  0.65918449  0.88266069  1
  In  In30  1  0.84245027  0.00269355  0.37600167  1
  In  In31  1  0.84615277  0.00154864  0.88048305  1
  In  In32  1  0.82404338  0.32229192  0.36612452  1
  In  In33  1  0.84405249  0.32899843  0.88821727  1
  In  In34  1  0.84033081  0.69233853  0.36683720  1
  In  In35  1  0.82324082  0.66213048  0.87250082  1
  In  In36  1  -0.00315322  0.16389370  0.37794930  1
  In  In37  1  -0.01026543  0.16823534  0.87851207  1
  In  In38  1  0.00955929  0.49344325  0.36660380  1
  In  In39  1  -0.00380263  0.49883000  0.88148419  1
  In  In40  1  -0.01860345  0.86195739  0.40080962  1
  In  In41  1  0.00796746  0.84055850  0.87830014  1
  In  In42  1  0.34307600  0.15789862  0.38025985  1
  In  In43  1  0.31934115  0.16378663  0.86842052  1
  In  In44  1  0.32488222  0.51421426  0.36780651  1
  In  In45  1  0.34154784  0.49864059  0.87894585  1
  In  In46  1  0.31848165  0.82529412  0.37070989  1
  In  In47  1  0.33439360  0.83142790  0.88570080  1
  In  In48  1  0.66967151  0.16283033  0.37382337  1
  In  In49  1  0.66942145  0.18004696  0.87554650  1
  In  In50  1  0.67750803  0.50856344  0.36048981  1
  In  In51  1  0.66229308  0.50556825  0.88413529  1
  In  In52  1  0.69505984  0.85657057  0.34561457  1
  In  In53  1  0.67481805  0.81426003  0.88030311  1
  In  In54  1  0.17276503  -0.00926017  0.13649857  1
  In  In55  1  0.15034348  -0.00345272  0.60461050  1
  In  In56  1  0.14294198  0.33831202  0.11666189  1
  In  In57  1  0.16880105  0.33183843  0.63080546  1
  In  In58  1  0.16144826  0.67374849  0.11761838  1
  In  In59  1  0.15830274  0.65720855  0.62535332  1
  In  In60  1  0.50473546  -0.01255973  0.13425139  1
  In  In61  1  0.49328814  0.00533878  0.61974137  1
  In  In62  1  0.50160410  0.34990340  0.12264372  1
  In  In63  1  0.49408447  0.31567040  0.62786055  1
  In  In64  1  0.49595931  0.66583979  0.12617630  1
  In  In65  1  0.51229581  0.67820099  0.62670180  1
  In  In66  1  0.82292800  0.00383874  0.13939029  1
  In  In67  1  0.83755285  -0.00192859  0.60981269  1
  In  In68  1  0.83774521  0.32826626  0.12212917  1
  In  In69  1  0.84209439  0.33830288  0.62657495  1
  In  In70  1  0.84158688  0.65503618  0.12572946  1
  In  In71  1  0.83586154  0.67819936  0.63730649  1
  In  In72  1  0.16579527  0.50102721  0.49902257  1
  In  In73  1  0.50060254  0.83520864  0.49613997  1
  In  In74  1  -0.00209913  -0.00253345  0.74834994  1
  In  In75  1  0.33079944  0.00740365  0.74059878  1
  In  In76  1  0.00667233  0.66505161  0.24600814  1
  In  In77  1  0.66604776  0.33775624  0.75074578  1
  In  In78  1  0.33430569  0.33278674  0.24747484  1
  In  In79  1  0.49849594  0.49413360  0.48838461  1
  In  In80  1  0.16276813  0.16729134  -0.00047607  1
  In  In81  1  0.50360062  0.16618542  0.00083476  1
  In  In82  1  0.83617731  0.82814892  0.00595299  1
  In  In83  1  0.33265567  0.66172321  0.75081238  1
  In  In84  1  0.83514360  0.50185118  0.50208324  1
  In  In85  1  0.66772004  -0.00151092  0.74026930  1
  Cu  Cu86  1  0.49994412  0.50276670  0.24500272  1
  Cu  Cu87  1  0.51272020  0.82714783  0.75640155  1
  Cu  Cu88  1  0.16014938  0.83525486  0.25364297  1
  Cu  Cu89  1  0.66959022  0.00060585  0.01139962  1
  Cu  Cu90  1  0.00169633  0.00018981  0.00629652  1
  Cu  Cu91  1  0.83441212  0.16969127  0.75160882  1
  Cu  Cu92  1  0.83650733  0.50294551  0.75627677  1
  Cu  Cu93  1  0.16228978  0.16181828  0.25319287  1
  Cu  Cu94  1  0.16784735  0.83109886  0.75420415  1
  Cu  Cu95  1  0.50259226  0.50149664  0.75578349  1
  Cu  Cu96  1  0.67464600  0.33353604  0.00261084  1
  Cu  Cu97  1  0.32853227  0.32831954  0.50062247  1
  Cu  Cu98  1  0.33029879  0.00404315  0.49579108  1
  Cu  Cu99  1  0.83913172  0.49433097  0.23989311  1
  Cu  Cu100  1  0.33527971  -0.01336453  0.01042614  1
  Cu  Cu101  1  0.16052657  0.50032357  0.75816733  1
  Cu  Cu102  1  0.16282194  0.50027620  0.23875905  1
  Cu  Cu103  1  0.00252755  0.67207443  0.50143388  1
  Cu  Cu104  1  0.66937670  0.67424605  0.49814875  1
  Cu  Cu105  1  0.66369547  0.32357289  0.49455800  1
  Cu  Cu106  1  0.50831821  0.16449953  0.25026921  1
  Cu  Cu107  1  -0.00434630  0.32885146  0.49830637  1
  Cu  Cu108  1  0.33680409  0.33313936  -0.00276720  1
  Cu  Cu109  1  0.66022033  0.66743003  0.00700285  1
  Cu  Cu110  1  0.66944181  0.00067731  0.48843961  1
  Cu  Cu111  1  0.48773656  0.82910045  0.24957301  1
  Cu  Cu112  1  0.16087930  0.17423819  0.74219835  1
  Cu  Cu113  1  0.33458795  0.67102220  0.00194387  1
  Cu  Cu114  1  0.83848045  0.16923312  0.25506083  1
  Se  Se115  1  0.08288337  0.07956261  0.06731715  1
  Se  Se116  1  0.06820643  0.08126846  0.54075691  1
  Se  Se117  1  0.09849970  0.43605799  0.04111980  1
  Se  Se118  1  0.07190319  0.41462327  0.55924624  1
  Se  Se119  1  0.07243756  0.74770961  0.04845052  1
  Se  Se120  1  0.09373291  0.74807825  0.55350350  1
  Se  Se121  1  0.41180938  0.07870072  0.06298229  1
  Se  Se122  1  0.41516107  0.08583932  0.54921131  1
  Se  Se123  1  0.42143287  0.41903316  0.04636010  1
  Se  Se124  1  0.40914113  0.41260433  0.55783936  1
  Se  Se125  1  0.41621232  0.75322148  0.05791628  1
  Se  Se126  1  0.41333305  0.74199818  0.55796852  1
  Se  Se127  1  0.75705452  0.08326188  0.05864066  1
  Se  Se128  1  0.75013541  0.08303038  0.54684061  1
  Se  Se129  1  0.75282412  0.41850012  0.05828874  1
  Se  Se130  1  0.73794858  0.40820355  0.55664445  1
  Se  Se131  1  0.74051328  0.74691029  0.06805837  1
  Se  Se132  1  0.75442762  0.74676180  0.55834286  1
  Se  Se133  1  0.25648638  0.25849430  0.05989910  1
  Se  Se134  1  0.23761824  0.25190599  0.55252214  1
  Se  Se135  1  0.25217124  0.58766611  0.05521201  1
  Se  Se136  1  0.26117818  0.58951018  0.55652393  1
  Se  Se137  1  0.24383427  0.90991203  0.06026751  1
  Se  Se138  1  0.25136550  0.91681130  0.54866274  1
  Se  Se139  1  0.59230982  0.25325197  0.06344257  1
  Se  Se140  1  0.57788672  0.24853909  0.55199006  1
  Se  Se141  1  0.57853842  0.57959840  0.05825494  1
  Se  Se142  1  0.58910595  0.58736970  0.55217250  1
  Se  Se143  1  0.58338424  0.91481342  0.05742462  1
  Se  Se144  1  0.59436378  0.92437783  0.55817599  1
  Se  Se145  1  0.92515483  0.25261334  0.05223544  1
  Se  Se146  1  0.90666294  0.25193968  0.55195040  1
  Se  Se147  1  0.91868652  0.60038499  0.04297715  1
  Se  Se148  1  0.92719419  0.58727611  0.56340783  1
  Se  Se149  1  0.91888624  0.92349812  0.06725578  1
  Se  Se150  1  0.92868042  0.92011434  0.54738112  1
  Se  Se151  1  0.08363410  0.25066080  0.44540939  1
  Se  Se152  1  0.07525320  0.26013790  0.94273464  1
  Se  Se153  1  0.07665128  0.59097345  0.43725028  1
  Se  Se154  1  0.09975389  0.55717090  0.95054203  1
  Se  Se155  1  0.10955175  0.89522666  0.44578388  1
  Se  Se156  1  0.08576490  0.91559438  0.95523333  1
  Se  Se157  1  0.41794262  0.24975629  0.44867228  1
  Se  Se158  1  0.41074914  0.24883320  0.93643161  1
  Se  Se159  1  0.40952573  0.59401021  0.44003758  1
  Se  Se160  1  0.41769279  0.58676678  0.94742327  1
  Se  Se161  1  0.41075182  0.92310884  0.43505154  1
  Se  Se162  1  0.42196318  0.91100472  0.95356484  1
  Se  Se163  1  0.75386715  0.24493017  0.44430475  1
  Se  Se164  1  0.75340297  0.24451905  0.95092523  1
  Se  Se165  1  0.75052423  0.59246717  0.43876485  1
  Se  Se166  1  0.74648850  0.58946871  0.95089463  1
  Se  Se167  1  0.75072445  0.91296972  0.43827090  1
  Se  Se168  1  0.74635770  0.92209078  0.94466827  1
  Se  Se169  1  0.24494789  0.08696535  0.44337453  1
  Se  Se170  1  0.25975457  0.07017751  0.94714991  1
  Se  Se171  1  0.25648009  0.41093940  0.43635759  1
  Se  Se172  1  0.25365525  0.41296678  0.94177758  1
  Se  Se173  1  0.25385885  0.74380770  0.44917110  1
  Se  Se174  1  0.24653438  0.75429255  0.95227150  1
  Se  Se175  1  0.58025075  0.08568192  0.44393341  1
  Se  Se176  1  0.59417613  0.07470300  0.94108809  1
  Se  Se177  1  0.59746127  0.41080331  0.43151739  1
  Se  Se178  1  0.58559276  0.41241596  0.95007902  1
  Se  Se179  1  0.59645022  0.75537658  0.43506257  1
  Se  Se180  1  0.58096171  0.75357730  0.95244809  1
  Se  Se181  1  0.92132208  0.08033133  0.44987371  1
  Se  Se182  1  0.91893081  0.08433917  0.95343699  1
  Se  Se183  1  0.92024483  0.41271774  0.43731919  1
  Se  Se184  1  0.90192522  0.43236469  0.95176830  1
  Se  Se185  1  0.91017693  0.75075823  0.45353970  1
  Se  Se186  1  0.92034019  0.74590338  0.93841176  1
  Se  Se187  1  0.24655868  0.24510083  0.31084977  1
  Se  Se188  1  0.24552497  0.25075075  0.80004341  1
  Se  Se189  1  0.24085753  0.58513273  0.29489205  1
  Se  Se190  1  0.24201877  0.58250348  0.81638755  1
  Se  Se191  1  0.24815055  0.91893761  0.30318968  1
  Se  Se192  1  0.24923661  0.91554164  0.80962640  1
  Se  Se193  1  0.59154735  0.24949529  0.30151248  1
  Se  Se194  1  0.57202722  0.24313328  0.80434366  1
  Se  Se195  1  0.58051188  0.58627912  0.30109262  1
  Se  Se196  1  0.58875401  0.58348765  0.80576870  1
  Se  Se197  1  0.57564365  0.91466569  0.29742040  1
  Se  Se198  1  0.58519868  0.91565406  0.81413343  1
  Se  Se199  1  0.92605308  0.25347729  0.30460430  1
  Se  Se200  1  0.91415080  0.25248538  0.80710925  1
  Se  Se201  1  0.91003352  0.57638374  0.30803529  1
  Se  Se202  1  0.91989397  0.58561793  0.80983236  1
  Se  Se203  1  0.91235823  0.90449376  0.31018811  1
  Se  Se204  1  0.90755167  0.90651866  0.80716683  1
  Se  Se205  1  0.07842463  0.08030806  0.30725934  1
  Se  Se206  1  0.08948682  0.09177850  0.80812292  1
  Se  Se207  1  0.08280237  0.41355276  0.29187407  1
  Se  Se208  1  0.07384995  0.41552164  0.80705238  1
  Se  Se209  1  0.07590206  0.75982116  0.31517182  1
  Se  Se210  1  0.08746756  0.75173557  0.81160429  1
  Se  Se211  1  0.41772531  0.08622910  0.30133567  1
  Se  Se212  1  0.42290288  0.08990294  0.80554597  1
  Se  Se213  1  0.42311315  0.42332662  0.31053666  1
  Se  Se214  1  0.41543774  0.41728677  0.80264599  1
  Se  Se215  1  0.40650737  0.74473160  0.30354633  1
  Se  Se216  1  0.42207111  0.75273987  0.81176143  1
  Se  Se217  1  0.75533694  0.08227810  0.30594057  1
  Se  Se218  1  0.75529502  0.08649153  0.80961490  1
  Se  Se219  1  0.75408061  0.41533130  0.29712553  1
  Se  Se220  1  0.75460925  0.42083280  0.81548445  1
  Se  Se221  1  0.73099682  0.72745939  0.30015288  1
  Se  Se222  1  0.75301373  0.75263978  0.80170620  1
  Se  Se223  1  0.25117826  0.07863401  0.20562343  1
  Se  Se224  1  0.23068715  0.08582980  0.68109750  1
  Se  Se225  1  0.24701204  0.41774248  0.18199498  1
  Se  Se226  1  0.24392726  0.41655244  0.70397663  1
  Se  Se227  1  0.23661990  0.74624092  0.19762757  1
  Se  Se228  1  0.24890103  0.75748781  0.68993108  1
  Se  Se229  1  0.58829030  0.07750555  0.19712578  1
  Se  Se230  1  0.57065271  0.09344139  0.69235950  1
  Se  Se231  1  0.58522110  0.41527138  0.19870836  1
  Se  Se232  1  0.57638557  0.42510412  0.68554940  1
  Se  Se233  1  0.57590776  0.74960883  0.19680107  1
  Se  Se234  1  0.59530986  0.74564233  0.70204233  1
  Se  Se235  1  0.91870056  0.08274093  0.20105789  1
  Se  Se236  1  0.91009116  0.08929608  0.68788574  1
  Se  Se237  1  0.92592210  0.41800358  0.18528920  1
  Se  Se238  1  0.91499185  0.41565387  0.70252094  1
  Se  Se239  1  0.90746661  0.75570271  0.19495564  1
  Se  Se240  1  0.93761540  0.74762731  0.69655824  1
  Se  Se241  1  0.08901210  0.24893312  0.19479579  1
  Se  Se242  1  0.07117346  0.25303578  0.69134948  1
  Se  Se243  1  0.07752453  0.57144045  0.17725686  1
  Se  Se244  1  0.08357579  0.58992074  0.70563002  1
  Se  Se245  1  0.07582519  0.91656395  0.19998229  1
  Se  Se246  1  0.09337769  0.91232510  0.69021268  1
  Se  Se247  1  0.42770009  0.24289693  0.18736008  1
  Se  Se248  1  0.39880927  0.25058577  0.69414632  1
  Se  Se249  1  0.41056909  0.58420324  0.19679246  1
  Se  Se250  1  0.42633343  0.57687322  0.68749295  1
  Se  Se251  1  0.40624286  0.91596118  0.19742254  1
  Se  Se252  1  0.43161938  0.90675437  0.69551459  1
  Se  Se253  1  0.75690527  0.25221679  0.19803463  1
  Se  Se254  1  0.74999184  0.24238598  0.68860797  1
  Se  Se255  1  0.75235557  0.58148587  0.19491993  1
  Se  Se256  1  0.75418864  0.58645299  0.70147739  1
  Se  Se257  1  0.75145528  0.91211043  0.20696911  1
  Se  Se258  1  0.76785124  0.91206638  0.68929643  1
