# generated using pymatgen
data_In86Cu29Se144
_symmetry_space_group_name_H-M   'P 1'
_cell_length_a   17.57797585
_cell_length_b   17.57688005
_cell_length_c   23.43896440
_cell_angle_alpha   89.99744275
_cell_angle_beta   89.98277921
_cell_angle_gamma   89.97941546
_symmetry_Int_Tables_number   1
_chemical_formula_structural   In86Cu29Se144
_chemical_formula_sum   'In86 Cu29 Se144'
_cell_volume   7241.84164207
_cell_formula_units_Z   1
loop_
 _symmetry_equiv_pos_site_id
 _symmetry_equiv_pos_as_xyz
  1  'x, y, z'
loop_
 _atom_site_type_symbol
 _atom_site_label
 _atom_site_symmetry_multiplicity
 _atom_site_fract_x
 _atom_site_fract_y
 _atom_site_fract_z
 _atom_site_occupancy
  In  In0  1  0.00799393  0.17358863  0.13443487  1
  In  In1  1  0.00565755  0.17088756  0.62087263  1
  In  In2  1  -0.01142713  0.51039007  0.13926607  1
  In  In3  1  -0.01554896  0.49696163  0.62169780  1
  In  In4  1  0.01017152  0.82697628  0.12966783  1
  In  In5  1  -0.00655197  0.84675617  0.62115889  1
  In  In6  1  0.29558963  0.15853967  0.12253910  1
  In  In7  1  0.33064620  0.16219717  0.62987828  1
  In  In8  1  0.33801248  0.50977869  0.12883838  1
  In  In9  1  0.33644457  0.49931927  0.63079539  1
  In  In10  1  0.33188274  0.83877762  0.12565613  1
  In  In11  1  0.33793722  0.82679487  0.63193884  1
  In  In12  1  0.68194609  0.15378803  0.11757454  1
  In  In13  1  0.67854718  0.15973657  0.63791710  1
  In  In14  1  0.67710645  0.48914514  0.12248135  1
  In  In15  1  0.67808475  0.49015768  0.63503486  1
  In  In16  1  0.66159030  0.84614184  0.11580079  1
  In  In17  1  0.66642377  0.83178186  0.62525083  1
  In  In18  1  0.17295435  0.01284377  0.36308492  1
  In  In19  1  0.16715705  -0.00623564  0.88668704  1
  In  In20  1  0.13487349  0.32137013  0.36129025  1
  In  In21  1  0.15122047  0.31956630  0.86616346  1
  In  In22  1  0.16331658  0.65516527  0.35551005  1
  In  In23  1  0.17978599  0.67217565  0.87735919  1
  In  In24  1  0.48274620  -0.01491617  0.37826052  1
  In  In25  1  0.49778635  -0.00315391  0.86936708  1
  In  In26  1  0.50084075  0.33165965  0.38302074  1
  In  In27  1  0.50086870  0.33767172  0.86417792  1
  In  In28  1  0.50205915  0.68380769  0.38247699  1
  In  In29  1  0.50683229  0.67594340  0.87048046  1
  In  In30  1  0.84055942  -0.00581240  0.37759355  1
  In  In31  1  0.83597435  0.02449800  0.86770397  1
  In  In32  1  0.84160142  0.32853017  0.38276667  1
  In  In33  1  0.84025626  0.32861985  0.87201290  1
  In  In34  1  0.84019946  0.66266717  0.38726159  1
  In  In35  1  0.81949626  0.66731334  0.87488715  1
  In  In36  1  -0.00019841  0.16439881  0.37486669  1
  In  In37  1  -0.01321036  0.17159085  0.88941694  1
  In  In38  1  -0.01546207  0.48954990  0.35449034  1
  In  In39  1  0.00210249  0.48146005  0.87542914  1
  In  In40  1  -0.00230069  0.82930064  0.36596995  1
  In  In41  1  0.00441413  0.84982076  0.88179444  1
  In  In42  1  0.32508142  0.14057504  0.37432830  1
  In  In43  1  0.32218691  0.15525705  0.86888363  1
  In  In44  1  0.31732370  0.49905198  0.37119118  1
  In  In45  1  0.33505257  0.50679024  0.86744671  1
  In  In46  1  0.33465098  0.83481511  0.37541918  1
  In  In47  1  0.33570356  0.84151985  0.87811819  1
  In  In48  1  0.67177410  0.17503247  0.38184949  1
  In  In49  1  0.68864051  0.18285098  0.85178072  1
  In  In50  1  0.68889537  0.51026156  0.38240630  1
  In  In51  1  0.67448214  0.50433560  0.87098862  1
  In  In52  1  0.66517036  0.82381019  0.39529194  1
  In  In53  1  0.65955334  0.82390325  0.86604317  1
  In  In54  1  0.17055870  0.00561548  0.13330690  1
  In  In55  1  0.16365342  0.01133973  0.62482967  1
  In  In56  1  0.15185923  0.31754361  0.12363436  1
  In  In57  1  0.17567083  0.32345901  0.63147700  1
  In  In58  1  0.15502223  0.67522650  0.13508571  1
  In  In59  1  0.17889564  0.67445447  0.62644760  1
  In  In60  1  0.49924289  -0.01434651  0.11987949  1
  In  In61  1  0.49987348  -0.01002528  0.62845365  1
  In  In62  1  0.49433692  0.33888230  0.12096734  1
  In  In63  1  0.50082627  0.33400739  0.63473141  1
  In  In64  1  0.48929800  0.67537230  0.12433231  1
  In  In65  1  0.49511415  0.67498216  0.62731954  1
  In  In66  1  0.83892154  0.01554010  0.11970006  1
  In  In67  1  0.82689718  -0.00371158  0.61975609  1
  In  In68  1  0.85160588  0.34187649  0.11937391  1
  In  In69  1  0.83429525  0.33047391  0.62815821  1
  In  In70  1  0.84674638  0.66265152  0.12835840  1
  In  In71  1  0.81737960  0.65467325  0.60895906  1
  In  In72  1  0.15794849  0.49317553  0.48531684  1
  In  In73  1  -0.00024803  0.00585507  0.75162459  1
  In  In74  1  0.66657752  -0.00051983  0.25001018  1
  In  In75  1  0.50477612  0.50514022  -0.01124678  1
  In  In76  1  0.16321135  0.83619021  0.49566397  1
  In  In77  1  0.50163488  0.50003387  0.51018622  1
  In  In78  1  0.00052971  0.66519716  0.74456501  1
  In  In79  1  0.50502960  0.15870118  0.51301121  1
  In  In80  1  0.32665949  0.33136694  0.24448921  1
  In  In81  1  0.50179092  0.16364056  -0.00764919  1
  In  In82  1  0.66999396  0.33249150  0.25827619  1
  In  In83  1  0.67070399  0.66686303  0.25657683  1
  In  In84  1  0.16533665  0.50093434  0.00377619  1
  In  In85  1  0.83372543  0.83283068  -0.00188984  1
  Cu  Cu86  1  0.66599823  0.66384869  -0.00448789  1
  Cu  Cu87  1  0.33005093  0.66361833  0.49853049  1
  Cu  Cu88  1  0.83515924  0.49652750  0.74911060  1
  Cu  Cu89  1  0.83945652  0.83431331  0.25028331  1
  Cu  Cu90  1  0.48869542  0.16060736  0.24741312  1
  Cu  Cu91  1  0.16792057  0.49693385  0.75216955  1
  Cu  Cu92  1  0.68116291  0.32224171  -0.00218342  1
  Cu  Cu93  1  -0.00194406  0.33342313  0.49852723  1
  Cu  Cu94  1  0.49839067  0.50628059  0.25340973  1
  Cu  Cu95  1  0.66976170  0.00175467  -0.01123128  1
  Cu  Cu96  1  -0.00695700  0.32712428  0.00082351  1
  Cu  Cu97  1  0.32488288  0.31572665  0.50128582  1
  Cu  Cu98  1  0.49594651  0.83287431  0.25251862  1
  Cu  Cu99  1  -0.00671509  0.67206586  0.49445237  1
  Cu  Cu100  1  0.68063614  0.33742811  0.50693326  1
  Cu  Cu101  1  0.66518083  0.00257932  0.50735025  1
  Cu  Cu102  1  0.17608156  0.83509892  0.75694767  1
  Cu  Cu103  1  0.33084435  0.68706199  0.00291300  1
  Cu  Cu104  1  0.49959114  0.50916392  0.74905954  1
  Cu  Cu105  1  0.16962737  0.83647834  0.24866412  1
  Cu  Cu106  1  0.49643138  0.83437315  0.75032792  1
  Cu  Cu107  1  0.82459495  0.83227751  0.74424930  1
  Cu  Cu108  1  0.32508390  0.33389306  -0.00777453  1
  Cu  Cu109  1  0.16783854  0.16642898  0.75120689  1
  Cu  Cu110  1  0.84097219  0.17451714  0.24959914  1
  Cu  Cu111  1  -0.00476618  0.00821675  0.49699217  1
  Cu  Cu112  1  0.33125911  0.00174441  0.00106176  1
  Cu  Cu113  1  0.49574435  0.16476481  0.74824112  1
  Cu  Cu114  1  0.00093844  0.66190166  0.00733079  1
  Se  Se115  1  0.10232376  0.10281887  0.06716244  1
  Se  Se116  1  0.08340845  0.08478982  0.55074201  1
  Se  Se117  1  0.06996808  0.41419856  0.05973274  1
  Se  Se118  1  0.08135899  0.41014698  0.55999105  1
  Se  Se119  1  0.08599286  0.74801700  0.05385163  1
  Se  Se120  1  0.07531665  0.74260440  0.55955499  1
  Se  Se121  1  0.41213442  0.08495967  0.06111838  1
  Se  Se122  1  0.40542900  0.06825484  0.55892249  1
  Se  Se123  1  0.40603790  0.41741550  0.04903794  1
  Se  Se124  1  0.40500499  0.40098564  0.55741239  1
  Se  Se125  1  0.42214949  0.76408426  0.05307935  1
  Se  Se126  1  0.40869077  0.74661011  0.55435506  1
  Se  Se127  1  0.75748201  0.08134622  0.04060780  1
  Se  Se128  1  0.74823117  0.09055849  0.55503808  1
  Se  Se129  1  0.75698494  0.41275662  0.05074092  1
  Se  Se130  1  0.76151183  0.42404945  0.55782338  1
  Se  Se131  1  0.74464240  0.74078764  0.06123553  1
  Se  Se132  1  0.76580764  0.77103521  0.55651747  1
  Se  Se133  1  0.24336342  0.25487187  0.04885212  1
  Se  Se134  1  0.24356571  0.23657352  0.55733123  1
  Se  Se135  1  0.25634146  0.59626161  0.05893972  1
  Se  Se136  1  0.24951604  0.57826556  0.55393583  1
  Se  Se137  1  0.24837634  0.92243202  0.05874218  1
  Se  Se138  1  0.24974245  0.91522217  0.56416429  1
  Se  Se139  1  0.59147082  0.25420906  0.05870618  1
  Se  Se140  1  0.59307037  0.25924328  0.56336317  1
  Se  Se141  1  0.58830077  0.58702937  0.06231337  1
  Se  Se142  1  0.59202579  0.58539933  0.56905971  1
  Se  Se143  1  0.58350823  0.92140517  0.04166214  1
  Se  Se144  1  0.58204148  0.91528221  0.55534705  1
  Se  Se145  1  0.91698047  0.23901294  0.05746229  1
  Se  Se146  1  0.91664421  0.25191892  0.55544049  1
  Se  Se147  1  0.91628452  0.57626946  0.05504653  1
  Se  Se148  1  0.91705634  0.58188240  0.54725286  1
  Se  Se149  1  0.92233774  0.91622034  0.06191901  1
  Se  Se150  1  0.91385076  0.92119498  0.54800169  1
  Se  Se151  1  0.08157424  0.24772346  0.44716118  1
  Se  Se152  1  0.08478624  0.24963902  0.94967558  1
  Se  Se153  1  0.07107947  0.59232739  0.43316074  1
  Se  Se154  1  0.07730978  0.58857073  0.93770793  1
  Se  Se155  1  0.07463454  0.92556912  0.43605565  1
  Se  Se156  1  0.08444102  0.91539959  0.95749050  1
  Se  Se157  1  0.41345403  0.24117488  0.44317250  1
  Se  Se158  1  0.41113282  0.25740333  0.93535506  1
  Se  Se159  1  0.41002302  0.57892035  0.44113620  1
  Se  Se160  1  0.40576740  0.59964672  0.94260039  1
  Se  Se161  1  0.41833588  0.89984339  0.45204683  1
  Se  Se162  1  0.41949151  0.92452291  0.94720112  1
  Se  Se163  1  0.75635863  0.24902248  0.45220966  1
  Se  Se164  1  0.75757899  0.23986855  0.93983976  1
  Se  Se165  1  0.74107685  0.60258287  0.45556459  1
  Se  Se166  1  0.75211129  0.57898344  0.94844537  1
  Se  Se167  1  0.74728214  0.92484643  0.44704808  1
  Se  Se168  1  0.74926592  0.91740990  0.93039593  1
  Se  Se169  1  0.24394205  0.07290357  0.44879750  1
  Se  Se170  1  0.24854010  0.08793297  0.94987283  1
  Se  Se171  1  0.25172331  0.39475489  0.43623266  1
  Se  Se172  1  0.24721381  0.41650650  0.93297577  1
  Se  Se173  1  0.24394342  0.73516663  0.43704148  1
  Se  Se174  1  0.24513137  0.76402729  0.94776712  1
  Se  Se175  1  0.58594277  0.07563293  0.43869496  1
  Se  Se176  1  0.59581973  0.08740845  0.92784045  1
  Se  Se177  1  0.59605011  0.41289142  0.44583176  1
  Se  Se178  1  0.59524643  0.40322898  0.94110843  1
  Se  Se179  1  0.58117766  0.74345138  0.46169602  1
  Se  Se180  1  0.58474621  0.75155452  0.94639456  1
  Se  Se181  1  0.90894957  0.09051464  0.44481505  1
  Se  Se182  1  0.93860675  0.05103357  0.94192681  1
  Se  Se183  1  0.92321898  0.42365095  0.44328347  1
  Se  Se184  1  0.91364028  0.41389775  0.94702542  1
  Se  Se185  1  0.91589435  0.76466618  0.44527551  1
  Se  Se186  1  0.92506175  0.73947922  0.93942510  1
  Se  Se187  1  0.24687787  0.24234102  0.31117333  1
  Se  Se188  1  0.25292728  0.25277681  0.80265187  1
  Se  Se189  1  0.26649042  0.58858842  0.29464871  1
  Se  Se190  1  0.24663144  0.58759749  0.80161632  1
  Se  Se191  1  0.25326012  0.91479825  0.30507389  1
  Se  Se192  1  0.25064464  0.92519133  0.81007152  1
  Se  Se193  1  0.56954941  0.23742263  0.30821668  1
  Se  Se194  1  0.58036577  0.25228814  0.79677154  1
  Se  Se195  1  0.57912614  0.57685848  0.31806297  1
  Se  Se196  1  0.58609301  0.58552180  0.80590746  1
  Se  Se197  1  0.58365285  0.90599394  0.31281697  1
  Se  Se198  1  0.58371474  0.91673387  0.80095639  1
  Se  Se199  1  0.92074553  0.25629549  0.30665045  1
  Se  Se200  1  0.91773095  0.23621858  0.80722862  1
  Se  Se201  1  0.90953135  0.59612602  0.30512023  1
  Se  Se202  1  0.91475288  0.57810536  0.81073146  1
  Se  Se203  1  0.91936996  0.92331541  0.30061338  1
  Se  Se204  1  0.90784788  0.90755143  0.80619602  1
  Se  Se205  1  0.06963301  0.07686219  0.30252623  1
  Se  Se206  1  0.08968070  0.08851779  0.81529883  1
  Se  Se207  1  0.11398201  0.44938184  0.31229909  1
  Se  Se208  1  0.07947336  0.41240046  0.79754449  1
  Se  Se209  1  0.08267218  0.75065635  0.29678826  1
  Se  Se210  1  0.08446476  0.75769023  0.81022231  1
  Se  Se211  1  0.41628249  0.07260589  0.30336592  1
  Se  Se212  1  0.41386516  0.08099768  0.80249796  1
  Se  Se213  1  0.42307952  0.41666274  0.30964532  1
  Se  Se214  1  0.41543290  0.42228846  0.79986852  1
  Se  Se215  1  0.41640443  0.74783058  0.30684584  1
  Se  Se216  1  0.41337749  0.75377907  0.80785255  1
  Se  Se217  1  0.75461845  0.09512179  0.30730217  1
  Se  Se218  1  0.74184145  0.07102779  0.79249053  1
  Se  Se219  1  0.76325305  0.42451587  0.30977047  1
  Se  Se220  1  0.75353068  0.41478383  0.80605379  1
  Se  Se221  1  0.75484935  0.76363963  0.31370378  1
  Se  Se222  1  0.74717525  0.74360173  0.79802643  1
  Se  Se223  1  0.25818464  0.07673007  0.20708983  1
  Se  Se224  1  0.24846564  0.07862916  0.70008302  1
  Se  Se225  1  0.24176366  0.42014124  0.18156621  1
  Se  Se226  1  0.25271494  0.41535636  0.69692473  1
  Se  Se227  1  0.25328511  0.75255381  0.19499292  1
  Se  Se228  1  0.25382454  0.74667941  0.70347518  1
  Se  Se229  1  0.57740516  0.08963234  0.18640487  1
  Se  Se230  1  0.57793700  0.08154256  0.69423036  1
  Se  Se231  1  0.57576751  0.42280115  0.19499501  1
  Se  Se232  1  0.58237441  0.41962430  0.70096004  1
  Se  Se233  1  0.58394702  0.75999001  0.19222092  1
  Se  Se234  1  0.58177543  0.75228480  0.69651013  1
  Se  Se235  1  0.91716385  0.08465036  0.19650056  1
  Se  Se236  1  0.91110636  0.08847581  0.68720701  1
  Se  Se237  1  0.91780813  0.41082102  0.20137568  1
  Se  Se238  1  0.92040454  0.41341637  0.69807014  1
  Se  Se239  1  0.92062482  0.74845014  0.19792114  1
  Se  Se240  1  0.91054055  0.75528298  0.68597331  1
  Se  Se241  1  0.08346316  0.25602674  0.20798259  1
  Se  Se242  1  0.08271355  0.24746447  0.69720460  1
  Se  Se243  1  0.09109922  0.57634520  0.19935190  1
  Se  Se244  1  0.09223005  0.57393263  0.68464153  1
  Se  Se245  1  0.08295874  0.91842406  0.19744381  1
  Se  Se246  1  0.09166751  0.90877894  0.69460706  1
  Se  Se247  1  0.41619866  0.24029265  0.18232755  1
  Se  Se248  1  0.41186378  0.24960106  0.69659025  1
  Se  Se249  1  0.42002262  0.59038515  0.19856727  1
  Se  Se250  1  0.41357368  0.58944443  0.69594550  1
  Se  Se251  1  0.41839392  0.91852385  0.19676725  1
  Se  Se252  1  0.41057994  0.91865627  0.70023689  1
  Se  Se253  1  0.75326740  0.24713556  0.18929290  1
  Se  Se254  1  0.73935365  0.26554686  0.69804247  1
  Se  Se255  1  0.75571965  0.57470140  0.19457002  1
  Se  Se256  1  0.75745748  0.58680550  0.69679847  1
  Se  Se257  1  0.75871532  0.91164722  0.18794109  1
  Se  Se258  1  0.74523181  0.92192723  0.69401345  1
