# generated using pymatgen
data_In86Cu29Se144
_symmetry_space_group_name_H-M   'P 1'
_cell_length_a   17.57502163
_cell_length_b   17.57687511
_cell_length_c   23.42826425
_cell_angle_alpha   90.00328122
_cell_angle_beta   89.99593663
_cell_angle_gamma   89.99678787
_symmetry_Int_Tables_number   1
_chemical_formula_structural   In86Cu29Se144
_chemical_formula_sum   'In86 Cu29 Se144'
_cell_volume   7237.31785038
_cell_formula_units_Z   1
loop_
 _symmetry_equiv_pos_site_id
 _symmetry_equiv_pos_as_xyz
  1  'x, y, z'
loop_
 _atom_site_type_symbol
 _atom_site_label
 _atom_site_symmetry_multiplicity
 _atom_site_fract_x
 _atom_site_fract_y
 _atom_site_fract_z
 _atom_site_occupancy
  In  In0  1  -0.00574852  0.16177592  0.11209056  1
  In  In1  1  0.00166184  0.16781219  0.62988936  1
  In  In2  1  -0.00650301  0.50608097  0.12283945  1
  In  In3  1  -0.01939769  0.49776495  0.62616385  1
  In  In4  1  -0.00956274  0.85154545  0.11805077  1
  In  In5  1  0.01010828  0.83443988  0.62994677  1
  In  In6  1  0.34885930  0.17861250  0.09995467  1
  In  In7  1  0.33487331  0.16492731  0.63047631  1
  In  In8  1  0.34375596  0.48345630  0.13564569  1
  In  In9  1  0.33458961  0.49932190  0.63268654  1
  In  In10  1  0.33710796  0.82084664  0.12123394  1
  In  In11  1  0.34240142  0.82875970  0.63201926  1
  In  In12  1  0.66459292  0.15922889  0.11626061  1
  In  In13  1  0.66483840  0.16068286  0.61813619  1
  In  In14  1  0.67522884  0.51304814  0.12365433  1
  In  In15  1  0.68138467  0.50108237  0.62563777  1
  In  In16  1  0.65646478  0.83033513  0.11872335  1
  In  In17  1  0.65006409  0.83820488  0.62710037  1
  In  In18  1  0.17619770  0.00722500  0.38055159  1
  In  In19  1  0.18002183  0.01397569  0.87162334  1
  In  In20  1  0.16329391  0.32572183  0.37468593  1
  In  In21  1  0.16303114  0.32532904  0.86814581  1
  In  In22  1  0.17393325  0.65582988  0.37398866  1
  In  In23  1  0.17272187  0.65499621  0.87219554  1
  In  In24  1  0.50526774  -0.00692528  0.37723153  1
  In  In25  1  0.47783716  0.01761270  0.90725326  1
  In  In26  1  0.48771756  0.33252839  0.37272936  1
  In  In27  1  0.49154752  0.33430592  0.88667377  1
  In  In28  1  0.50537734  0.67044447  0.36817983  1
  In  In29  1  0.50168950  0.66648867  0.87420598  1
  In  In30  1  0.83526143  0.01283398  0.37069663  1
  In  In31  1  0.84223841  -0.00492660  0.88596445  1
  In  In32  1  0.83637777  0.32897471  0.38182123  1
  In  In33  1  0.84379373  0.32164268  0.88408915  1
  In  In34  1  0.82279901  0.67122943  0.37497842  1
  In  In35  1  0.81754155  0.67685181  0.88225877  1
  In  In36  1  0.00058118  0.17134879  0.38476755  1
  In  In37  1  0.00042733  0.16425033  0.87306690  1
  In  In38  1  -0.00026005  0.49080051  0.37964587  1
  In  In39  1  0.00401668  0.48902719  0.87467533  1
  In  In40  1  -0.01503365  0.83691897  0.37442807  1
  In  In41  1  -0.01371834  0.83454125  0.87572422  1
  In  In42  1  0.33011886  0.17093138  0.38024506  1
  In  In43  1  0.33177609  0.16928282  0.88075589  1
  In  In44  1  0.32939148  0.49983049  0.35842871  1
  In  In45  1  0.33957659  0.49837484  0.87029378  1
  In  In46  1  0.35002073  0.83758629  0.37414276  1
  In  In47  1  0.34575092  0.84397318  0.86902692  1
  In  In48  1  0.67145778  0.16135344  0.37518401  1
  In  In49  1  0.65916798  0.15671488  0.89178551  1
  In  In50  1  0.67144667  0.51176836  0.37095893  1
  In  In51  1  0.65379069  0.50455152  0.88280273  1
  In  In52  1  0.65621470  0.82268651  0.36533885  1
  In  In53  1  0.66872146  0.83668400  0.88528747  1
  In  In54  1  0.16801536  0.01854193  0.11246718  1
  In  In55  1  0.15717142  0.01186844  0.63613769  1
  In  In56  1  0.19493882  0.32691807  0.11938701  1
  In  In57  1  0.17780929  0.32299379  0.63499050  1
  In  In58  1  0.17648575  0.66683231  0.12858704  1
  In  In59  1  0.17110739  0.67674854  0.62823565  1
  In  In60  1  0.51422010  0.01315117  0.10781294  1
  In  In61  1  0.49806244  -0.00578306  0.62241335  1
  In  In62  1  0.48817743  0.33042829  0.11630870  1
  In  In63  1  0.50008163  0.31603408  0.62869722  1
  In  In64  1  0.50170444  0.66414541  0.12262256  1
  In  In65  1  0.49363445  0.67610795  0.63162650  1
  In  In66  1  0.79581110  -0.03035356  0.07893580  1
  In  In67  1  0.83352129  0.01526457  0.62798465  1
  In  In68  1  0.83356483  0.33875611  0.12014939  1
  In  In69  1  0.83805858  0.33862389  0.62544615  1
  In  In70  1  0.81549369  0.65466147  0.12320835  1
  In  In71  1  0.83490451  0.65030824  0.62812723  1
  In  In72  1  0.00017830  0.00822638  0.23822211  1
  In  In73  1  0.16417864  0.49434225  0.49809880  1
  In  In74  1  0.16779159  0.49548347  -0.00481647  1
  In  In75  1  0.00077107  0.66812775  0.24979153  1
  In  In76  1  0.66408579  0.33577572  0.75533834  1
  In  In77  1  0.82648943  0.83352505  0.49869516  1
  In  In78  1  0.16957884  0.83758951  0.51059954  1
  In  In79  1  0.00618819  0.33501915  0.24655764  1
  In  In80  1  0.34083218  -0.00282781  0.23913055  1
  In  In81  1  0.16636057  0.83527391  -0.00123121  1
  In  In82  1  0.50532128  0.49917360  0.49286923  1
  In  In83  1  0.66221084  0.33795726  0.25574299  1
  In  In84  1  0.66232187  -0.00333060  0.76436516  1
  In  In85  1  0.00132913  0.66468832  0.74720420  1
  Cu  Cu86  1  0.00096014  0.00499345  0.50384700  1
  Cu  Cu87  1  0.16960431  0.83183827  0.24731810  1
  Cu  Cu88  1  0.66320265  0.66382692  0.00054676  1
  Cu  Cu89  1  0.82228388  0.83572715  0.23604801  1
  Cu  Cu90  1  0.17131433  0.17125840  0.25047007  1
  Cu  Cu91  1  0.49418580  0.16237677  0.23644439  1
  Cu  Cu92  1  0.17270202  0.49407417  0.75186467  1
  Cu  Cu93  1  0.00010352  0.32700820  0.50645073  1
  Cu  Cu94  1  0.49997827  0.83265924  0.75622849  1
  Cu  Cu95  1  -0.01221862  0.67260995  0.00393370  1
  Cu  Cu96  1  0.66414654  0.00166019  0.49738415  1
  Cu  Cu97  1  0.82752841  0.83777217  0.75861448  1
  Cu  Cu98  1  0.17228114  0.83729940  0.75081931  1
  Cu  Cu99  1  0.16915441  0.16551621  0.75285861  1
  Cu  Cu100  1  0.50630093  0.83068303  0.24680333  1
  Cu  Cu101  1  0.34233852  0.66366576  -0.00326696  1
  Cu  Cu102  1  0.82836570  0.16297698  0.24589519  1
  Cu  Cu103  1  0.67281223  0.32808823  0.50149277  1
  Cu  Cu104  1  0.33716963  0.32672083  0.50273176  1
  Cu  Cu105  1  0.49391127  0.16057676  0.75817633  1
  Cu  Cu106  1  0.65928582  0.33924827  0.00594296  1
  Cu  Cu107  1  0.50049532  0.50213988  0.24643744  1
  Cu  Cu108  1  0.33593782  0.01126070  0.50412381  1
  Cu  Cu109  1  0.50068722  0.50199419  0.75564477  1
  Cu  Cu110  1  0.83790671  0.17098915  0.75351585  1
  Cu  Cu111  1  0.33986469  0.67131715  0.50188000  1
  Cu  Cu112  1  0.00222018  0.33722862  -0.00471483  1
  Cu  Cu113  1  0.83049906  0.50054942  0.75420273  1
  Cu  Cu114  1  0.66315275  0.66926761  0.49597740  1
  Se  Se115  1  0.06287190  0.06518557  0.04625923  1
  Se  Se116  1  0.08462608  0.08631628  0.55770017  1
  Se  Se117  1  0.08110320  0.40960273  0.06264178  1
  Se  Se118  1  0.08050085  0.40910679  0.56618661  1
  Se  Se119  1  0.07662448  0.74396654  0.06280244  1
  Se  Se120  1  0.07245070  0.73851251  0.55609045  1
  Se  Se121  1  0.40862247  0.06908866  0.04403272  1
  Se  Se122  1  0.42269585  0.08958040  0.55903485  1
  Se  Se123  1  0.40122176  0.41273158  0.05120535  1
  Se  Se124  1  0.41630852  0.41340742  0.55878116  1
  Se  Se125  1  0.42358605  0.74880097  0.04996060  1
  Se  Se126  1  0.42142953  0.75556648  0.55449445  1
  Se  Se127  1  0.77262195  0.10986550  0.05113120  1
  Se  Se128  1  0.75147592  0.08086305  0.55040496  1
  Se  Se129  1  0.74823250  0.42179680  0.05445273  1
  Se  Se130  1  0.75268911  0.41542146  0.55373581  1
  Se  Se131  1  0.74750072  0.74728596  0.05395379  1
  Se  Se132  1  0.74107310  0.74460944  0.56318949  1
  Se  Se133  1  0.22961064  0.22639940  0.04468012  1
  Se  Se134  1  0.25312918  0.24795620  0.55860675  1
  Se  Se135  1  0.25691661  0.58648796  0.05530615  1
  Se  Se136  1  0.25686505  0.58919473  0.55736933  1
  Se  Se137  1  0.25886535  0.92161098  0.05868356  1
  Se  Se138  1  0.25867451  0.92948989  0.56744645  1
  Se  Se139  1  0.57889027  0.24768773  0.05387710  1
  Se  Se140  1  0.58392417  0.24943694  0.55281148  1
  Se  Se141  1  0.58066761  0.57815759  0.05319622  1
  Se  Se142  1  0.58704625  0.58759928  0.56023917  1
  Se  Se143  1  0.59412663  0.92322335  0.04366083  1
  Se  Se144  1  0.58145838  0.91664710  0.54972282  1
  Se  Se145  1  0.91691799  0.25888083  0.05141400  1
  Se  Se146  1  0.91424106  0.24606256  0.55983806  1
  Se  Se147  1  0.90893566  0.58222496  0.05375116  1
  Se  Se148  1  0.91519435  0.58301995  0.55259223  1
  Se  Se149  1  0.92708232  0.92752373  0.03942062  1
  Se  Se150  1  0.92136474  0.92035435  0.56112598  1
  Se  Se151  1  0.08864049  0.25031850  0.45144780  1
  Se  Se152  1  0.08207524  0.25136820  0.94221038  1
  Se  Se153  1  0.07561563  0.59215070  0.44402921  1
  Se  Se154  1  0.07172704  0.59408323  0.94420125  1
  Se  Se155  1  0.07668606  0.92203505  0.44211184  1
  Se  Se156  1  0.08415685  0.92095449  0.93215192  1
  Se  Se157  1  0.42221601  0.24683235  0.44808234  1
  Se  Se158  1  0.43358661  0.22905631  0.94913929  1
  Se  Se159  1  0.40821959  0.58658158  0.43686355  1
  Se  Se160  1  0.42045743  0.57777632  0.94185131  1
  Se  Se161  1  0.41393392  0.92353443  0.44926755  1
  Se  Se162  1  0.41222616  0.90243969  0.95556303  1
  Se  Se163  1  0.75297299  0.24279731  0.44590128  1
  Se  Se164  1  0.73759945  0.25933583  0.94579323  1
  Se  Se165  1  0.74975890  0.58479173  0.44781891  1
  Se  Se166  1  0.74853876  0.58010909  0.94801496  1
  Se  Se167  1  0.74260368  0.92202241  0.43377597  1
  Se  Se168  1  0.75775013  0.91375215  0.95328609  1
  Se  Se169  1  0.24785770  0.09084333  0.45241316  1
  Se  Se170  1  0.24057153  0.09638711  0.95127076  1
  Se  Se171  1  0.26289551  0.41075731  0.44021942  1
  Se  Se172  1  0.25699694  0.40506054  0.93761712  1
  Se  Se173  1  0.25586036  0.75017409  0.44232161  1
  Se  Se174  1  0.25556269  0.74205482  0.93954763  1
  Se  Se175  1  0.58133643  0.08549051  0.44339837  1
  Se  Se176  1  0.60433572  0.05200839  0.95831921  1
  Se  Se177  1  0.59638417  0.40571210  0.43540465  1
  Se  Se178  1  0.57469426  0.42075482  0.95195139  1
  Se  Se179  1  0.57857507  0.75158087  0.44403883  1
  Se  Se180  1  0.58155328  0.74768840  0.94622255  1
  Se  Se181  1  0.91571498  0.08271529  0.44717761  1
  Se  Se182  1  0.89761475  0.10808829  0.94164731  1
  Se  Se183  1  0.91988650  0.41122190  0.45037865  1
  Se  Se184  1  0.91562798  0.42259951  0.94763749  1
  Se  Se185  1  0.92263736  0.74135849  0.44562483  1
  Se  Se186  1  0.90840713  0.75565952  0.94823024  1
  Se  Se187  1  0.25362055  0.25200079  0.30599151  1
  Se  Se188  1  0.25611673  0.24802234  0.80382361  1
  Se  Se189  1  0.25403093  0.59379003  0.29670562  1
  Se  Se190  1  0.25568880  0.58118760  0.80050981  1
  Se  Se191  1  0.24691410  0.91531038  0.30731213  1
  Se  Se192  1  0.25456551  0.92134205  0.80410845  1
  Se  Se193  1  0.57069025  0.23816254  0.30511455  1
  Se  Se194  1  0.57992948  0.23993300  0.81460541  1
  Se  Se195  1  0.58469748  0.58357509  0.30030035  1
  Se  Se196  1  0.58767288  0.58502163  0.80409881  1
  Se  Se197  1  0.58380960  0.91970629  0.30071392  1
  Se  Se198  1  0.56637520  0.91583850  0.82313910  1
  Se  Se199  1  0.91308906  0.24027061  0.30516902  1
  Se  Se200  1  0.92178562  0.25589769  0.80390097  1
  Se  Se201  1  0.91391135  0.57950633  0.31238035  1
  Se  Se202  1  0.91173449  0.58351382  0.81387707  1
  Se  Se203  1  0.90585757  0.91281833  0.29741345  1
  Se  Se204  1  0.91436704  0.92261099  0.80439536  1
  Se  Se205  1  0.08886113  0.09123137  0.30874076  1
  Se  Se206  1  0.08329395  0.08169955  0.80364026  1
  Se  Se207  1  0.09539700  0.42745446  0.30702108  1
  Se  Se208  1  0.08273422  0.41450177  0.80081853  1
  Se  Se209  1  0.08844790  0.76209221  0.31259428  1
  Se  Se210  1  0.08998683  0.75522576  0.81033031  1
  Se  Se211  1  0.41972675  0.08726868  0.30738942  1
  Se  Se212  1  0.41730618  0.07760299  0.81679831  1
  Se  Se213  1  0.41821838  0.41398547  0.29716476  1
  Se  Se214  1  0.42340560  0.41012700  0.80522292  1
  Se  Se215  1  0.41835065  0.75202969  0.30066707  1
  Se  Se216  1  0.41391619  0.74494627  0.80410216  1
  Se  Se217  1  0.74506815  0.08035241  0.29924809  1
  Se  Se218  1  0.75440764  0.09388411  0.81421801  1
  Se  Se219  1  0.76318089  0.42130194  0.30995716  1
  Se  Se220  1  0.75490464  0.42030456  0.81772717  1
  Se  Se221  1  0.75137124  0.75132024  0.29873338  1
  Se  Se222  1  0.74137657  0.75543938  0.80745025  1
  Se  Se223  1  0.25033409  0.09412878  0.18770349  1
  Se  Se224  1  0.25470367  0.08103292  0.70090269  1
  Se  Se225  1  0.23969863  0.41805609  0.19657356  1
  Se  Se226  1  0.25909568  0.41107105  0.70057788  1
  Se  Se227  1  0.25656506  0.74993589  0.19794346  1
  Se  Se228  1  0.25395348  0.74932327  0.70027025  1
  Se  Se229  1  0.58518916  0.08167430  0.19054985  1
  Se  Se230  1  0.57991775  0.08739707  0.69649605  1
  Se  Se231  1  0.57731593  0.41871010  0.18566950  1
  Se  Se232  1  0.57699245  0.42391665  0.68883439  1
  Se  Se233  1  0.58690282  0.74454353  0.19315708  1
  Se  Se234  1  0.58367141  0.75150537  0.70099461  1
  Se  Se235  1  0.90188748  0.08561907  0.18109032  1
  Se  Se236  1  0.91916310  0.08404201  0.70082090  1
  Se  Se237  1  0.90830327  0.42622125  0.19614782  1
  Se  Se238  1  0.91356447  0.41522785  0.70274151  1
  Se  Se239  1  0.91300495  0.75644306  0.18473466  1
  Se  Se240  1  0.90536077  0.75880548  0.69287294  1
  Se  Se241  1  0.08805861  0.24094384  0.18500592  1
  Se  Se242  1  0.08363104  0.24968112  0.70032467  1
  Se  Se243  1  0.09098308  0.57471520  0.19239570  1
  Se  Se244  1  0.09189397  0.57183495  0.68781832  1
  Se  Se245  1  0.09699692  0.91444755  0.18607572  1
  Se  Se246  1  0.08159270  0.91764239  0.70217011  1
  Se  Se247  1  0.40874882  0.24642420  0.18772902  1
  Se  Se248  1  0.41637370  0.24772250  0.70280579  1
  Se  Se249  1  0.41600140  0.58594058  0.19405594  1
  Se  Se250  1  0.41858135  0.58402648  0.69779553  1
  Se  Se251  1  0.43366459  0.91058334  0.18081900  1
  Se  Se252  1  0.42165968  0.91817085  0.69855778  1
  Se  Se253  1  0.75001029  0.25108767  0.19103236  1
  Se  Se254  1  0.74992036  0.24275830  0.69258636  1
  Se  Se255  1  0.74888846  0.58174684  0.20372354  1
  Se  Se256  1  0.74728279  0.58515221  0.70278909  1
  Se  Se257  1  0.74768027  0.92113927  0.17816284  1
  Se  Se258  1  0.75138471  0.91633820  0.69223932  1
