# generated using pymatgen
data_In86Cu29Se144
_symmetry_space_group_name_H-M   'P 1'
_cell_length_a   17.62447090
_cell_length_b   17.62867028
_cell_length_c   23.49260161
_cell_angle_alpha   90.00749764
_cell_angle_beta   90.02182946
_cell_angle_gamma   90.02772598
_symmetry_Int_Tables_number   1
_chemical_formula_structural   In86Cu29Se144
_chemical_formula_sum   'In86 Cu29 Se144'
_cell_volume   7299.05558358
_cell_formula_units_Z   1
loop_
 _symmetry_equiv_pos_site_id
 _symmetry_equiv_pos_as_xyz
  1  'x, y, z'
loop_
 _atom_site_type_symbol
 _atom_site_label
 _atom_site_symmetry_multiplicity
 _atom_site_fract_x
 _atom_site_fract_y
 _atom_site_fract_z
 _atom_site_occupancy
  In  In0  1  -0.00836126  0.17835556  0.13013917  1
  In  In1  1  -0.01561530  0.15446037  0.61287729  1
  In  In2  1  -0.02220714  0.51012448  0.14509252  1
  In  In3  1  -0.00200298  0.50558705  0.61949664  1
  In  In4  1  -0.01026072  0.83727782  0.12805750  1
  In  In5  1  0.01146395  0.84843405  0.61682803  1
  In  In6  1  0.33327470  0.16080607  0.12973110  1
  In  In7  1  0.33198387  0.17348782  0.62732070  1
  In  In8  1  0.34192660  0.49525844  0.12593227  1
  In  In9  1  0.33784649  0.48451363  0.62293242  1
  In  In10  1  0.34400196  0.83749132  0.12877117  1
  In  In11  1  0.34167805  0.83600958  0.61915678  1
  In  In12  1  0.66410225  0.15853914  0.11232828  1
  In  In13  1  0.67735209  0.15636475  0.63164623  1
  In  In14  1  0.67587182  0.47406994  0.13751549  1
  In  In15  1  0.66842032  0.49942657  0.62410124  1
  In  In16  1  0.68146576  0.82871926  0.12459381  1
  In  In17  1  0.66844530  0.83353155  0.62199671  1
  In  In18  1  0.16670092  -0.00099172  0.38198337  1
  In  In19  1  0.16651062  -0.00232800  0.85811260  1
  In  In20  1  0.12591231  0.33795595  0.38203497  1
  In  In21  1  0.17111796  0.32133090  0.87288732  1
  In  In22  1  0.16539062  0.67617557  0.37867956  1
  In  In23  1  0.15161957  0.66683348  0.87430454  1
  In  In24  1  0.49811168  -0.00108953  0.37360809  1
  In  In25  1  0.51223726  0.00774756  0.86522608  1
  In  In26  1  0.51355505  0.33909962  0.37415071  1
  In  In27  1  0.49821808  0.32470890  0.86790228  1
  In  In28  1  0.49041730  0.66940196  0.39231963  1
  In  In29  1  0.50679956  0.64902377  0.87328738  1
  In  In30  1  0.82176579  0.00830154  0.37863696  1
  In  In31  1  0.83012374  -0.00045052  0.87308335  1
  In  In32  1  0.83285815  0.34104835  0.37903511  1
  In  In33  1  0.82278189  0.33929308  0.88041339  1
  In  In34  1  0.84169292  0.65694348  0.37866617  1
  In  In35  1  0.83147013  0.67874629  0.87922870  1
  In  In36  1  -0.02397326  0.18920644  0.39935877  1
  In  In37  1  0.00004406  0.15352718  0.87383335  1
  In  In38  1  -0.01617695  0.48227518  0.35508932  1
  In  In39  1  -0.00647260  0.49435554  0.87795441  1
  In  In40  1  0.00502162  0.82653418  0.38004435  1
  In  In41  1  -0.01313261  0.83351587  0.86928389  1
  In  In42  1  0.32973416  0.15325803  0.37586560  1
  In  In43  1  0.33822886  0.16676721  0.86590599  1
  In  In44  1  0.33552309  0.51044442  0.38405269  1
  In  In45  1  0.34732975  0.49806059  0.86983329  1
  In  In46  1  0.32335767  0.84309354  0.38834280  1
  In  In47  1  0.32614883  0.84141847  0.86694415  1
  In  In48  1  0.68479139  0.17591421  0.36454067  1
  In  In49  1  0.66647087  0.16452206  0.87430829  1
  In  In50  1  0.66711779  0.50069046  0.38006259  1
  In  In51  1  0.67612794  0.50661475  0.86474068  1
  In  In52  1  0.65651530  0.84116205  0.38114605  1
  In  In53  1  0.67800474  0.83814444  0.86545379  1
  In  In54  1  0.17084962  0.01222377  0.13274783  1
  In  In55  1  0.16592468  -0.00275490  0.62812132  1
  In  In56  1  0.16508651  0.32517262  0.13353550  1
  In  In57  1  0.17729286  0.33481160  0.62479597  1
  In  In58  1  0.14483583  0.66134865  0.13257168  1
  In  In59  1  0.16336077  0.67533022  0.61953139  1
  In  In60  1  0.49317623  0.00751703  0.12907672  1
  In  In61  1  0.51348226  -0.00833066  0.63109669  1
  In  In62  1  0.57100671  0.31353085  0.15325932  1
  In  In63  1  0.50126719  0.33711558  0.62541720  1
  In  In64  1  0.50247633  0.66524332  0.12600856  1
  In  In65  1  0.50992997  0.67990960  0.61059064  1
  In  In66  1  0.82558776  -0.00390776  0.12309973  1
  In  In67  1  0.83464883  -0.00203426  0.62365116  1
  In  In68  1  0.82410718  0.33429638  0.11855494  1
  In  In69  1  0.82834726  0.31921509  0.61510746  1
  In  In70  1  0.84529308  0.67201169  0.11726846  1
  In  In71  1  0.82563707  0.66298242  0.61786312  1
  In  In72  1  0.32499500  0.67740083  0.26415652  1
  In  In73  1  0.16163002  0.83612003  0.00199925  1
  In  In74  1  0.51095613  0.49111266  0.01230496  1
  In  In75  1  0.66366281  0.66789712  0.25589385  1
  In  In76  1  0.33426156  0.32910369  0.25582003  1
  In  In77  1  0.50279109  0.16379560  0.49699546  1
  In  In78  1  0.15927792  0.50106114  0.49598143  1
  In  In79  1  0.15882128  0.16435070  0.00376441  1
  In  In80  1  -0.00027070  0.67658009  0.74946001  1
  In  In81  1  0.00287363  0.33033831  0.74924741  1
  In  In82  1  0.16294585  0.49516195  0.00704990  1
  In  In83  1  0.34084819  0.66785625  0.73711347  1
  In  In84  1  0.50975258  0.84061576  -0.01279537  1
  In  In85  1  -0.00753941  0.00784185  0.25113104  1
  Cu  Cu86  1  0.32998294  0.66818410  0.00227891  1
  Cu  Cu87  1  0.50354844  0.16364817  0.25070673  1
  Cu  Cu88  1  -0.00629531  0.66761183  0.49821459  1
  Cu  Cu89  1  0.49973939  0.84861195  0.25409135  1
  Cu  Cu90  1  0.83046646  0.83632940  0.74602267  1
  Cu  Cu91  1  0.34121664  0.33209070  -0.00541013  1
  Cu  Cu92  1  0.17826524  0.50082106  0.74657142  1
  Cu  Cu93  1  0.83013736  0.49901195  0.74589671  1
  Cu  Cu94  1  0.16252333  0.16539249  0.25920549  1
  Cu  Cu95  1  0.17021233  0.16698689  0.74573246  1
  Cu  Cu96  1  0.50314358  0.16770035  0.74672438  1
  Cu  Cu97  1  0.67146097  0.66845455  0.49853768  1
  Cu  Cu98  1  0.50940375  0.49315459  0.74676069  1
  Cu  Cu99  1  0.82561120  0.49522303  0.25204604  1
  Cu  Cu100  1  -0.01218940  0.33625210  0.00523841  1
  Cu  Cu101  1  0.67010127  0.00014419  0.50441195  1
  Cu  Cu102  1  0.66861360  0.33580175  0.49928096  1
  Cu  Cu103  1  0.67757767  0.66045853  -0.00082208  1
  Cu  Cu104  1  0.83154707  0.16396933  0.74813131  1
  Cu  Cu105  1  0.66877853  -0.00222690  -0.00535690  1
  Cu  Cu106  1  0.33398114  -0.00218605  0.50292579  1
  Cu  Cu107  1  0.00200862  -0.00783335  0.49954989  1
  Cu  Cu108  1  0.50144101  0.82661662  0.74358508  1
  Cu  Cu109  1  0.33510237  0.01136189  0.00016794  1
  Cu  Cu110  1  0.83324450  0.83239603  0.24926726  1
  Cu  Cu111  1  -0.01236808  -0.00374198  -0.00263142  1
  Cu  Cu112  1  0.66410387  0.32958552  -0.00169044  1
  Cu  Cu113  1  0.17057111  0.83688575  0.25976255  1
  Cu  Cu114  1  0.33135487  0.33149215  0.50005128  1
  Se  Se115  1  0.06769090  0.07205646  0.06233666  1
  Se  Se116  1  0.08271878  0.07558208  0.55538349  1
  Se  Se117  1  0.07495871  0.40594482  0.06634586  1
  Se  Se118  1  0.07704628  0.40690352  0.55870937  1
  Se  Se119  1  0.07114054  0.74445305  0.05760506  1
  Se  Se120  1  0.07983222  0.75012788  0.54942241  1
  Se  Se121  1  0.41766533  0.09010795  0.05567028  1
  Se  Se122  1  0.41748361  0.07714425  0.56254100  1
  Se  Se123  1  0.41754123  0.39924411  0.06369788  1
  Se  Se124  1  0.42046166  0.41098693  0.54967465  1
  Se  Se125  1  0.41805009  0.74974028  0.05310857  1
  Se  Se126  1  0.40164399  0.73722909  0.55129694  1
  Se  Se127  1  0.75430109  0.07963459  0.04760947  1
  Se  Se128  1  0.75444561  0.08547802  0.55417684  1
  Se  Se129  1  0.74465436  0.42017799  0.04892935  1
  Se  Se130  1  0.75233958  0.41721426  0.55466389  1
  Se  Se131  1  0.75544856  0.75079503  0.05047391  1
  Se  Se132  1  0.75244512  0.75505958  0.55079454  1
  Se  Se133  1  0.25600589  0.25643788  0.05629009  1
  Se  Se134  1  0.25031861  0.24828511  0.55319207  1
  Se  Se135  1  0.25310971  0.59199192  0.06500406  1
  Se  Se136  1  0.25073098  0.57996444  0.56228185  1
  Se  Se137  1  0.25722055  0.92802452  0.05947570  1
  Se  Se138  1  0.24919585  0.91648422  0.55664480  1
  Se  Se139  1  0.57680534  0.25234526  0.05290384  1
  Se  Se140  1  0.59299470  0.24955756  0.55957297  1
  Se  Se141  1  0.60242799  0.58761604  0.06569173  1
  Se  Se142  1  0.58973479  0.58311456  0.55228013  1
  Se  Se143  1  0.58953899  0.92082445  0.06018385  1
  Se  Se144  1  0.58316297  0.91574405  0.55232728  1
  Se  Se145  1  0.90891667  0.24557009  0.05431749  1
  Se  Se146  1  0.92612794  0.25711699  0.54846361  1
  Se  Se147  1  0.91679821  0.57159414  0.05809007  1
  Se  Se148  1  0.91338788  0.58195434  0.55110612  1
  Se  Se149  1  0.91091457  0.91329151  0.05527583  1
  Se  Se150  1  0.91182312  0.91345176  0.55179315  1
  Se  Se151  1  0.09898034  0.22962502  0.45099316  1
  Se  Se152  1  0.07040228  0.25927330  0.94363261  1
  Se  Se153  1  0.06835792  0.58620467  0.43460608  1
  Se  Se154  1  0.07334513  0.58674027  0.94756082  1
  Se  Se155  1  0.08780920  0.90967914  0.44788288  1
  Se  Se156  1  0.07899162  0.92764426  0.93800435  1
  Se  Se157  1  0.41306563  0.25509902  0.43717463  1
  Se  Se158  1  0.41688891  0.24549225  0.93947731  1
  Se  Se159  1  0.41751330  0.57732495  0.45835214  1
  Se  Se160  1  0.41382619  0.58362243  0.94995885  1
  Se  Se161  1  0.42156543  0.92085408  0.44841403  1
  Se  Se162  1  0.40837533  0.92852579  0.93775432  1
  Se  Se163  1  0.74948886  0.25186230  0.44537344  1
  Se  Se164  1  0.74836825  0.24639995  0.94566602  1
  Se  Se165  1  0.75284660  0.58178814  0.44692054  1
  Se  Se166  1  0.75545263  0.57969577  0.94006418  1
  Se  Se167  1  0.74954798  0.91653998  0.44697256  1
  Se  Se168  1  0.75107677  0.91225902  0.94317216  1
  Se  Se169  1  0.25040615  0.08188722  0.45159401  1
  Se  Se170  1  0.24694221  0.08035803  0.93836087  1
  Se  Se171  1  0.24835022  0.40588432  0.43721026  1
  Se  Se172  1  0.25773337  0.41313447  0.93991542  1
  Se  Se173  1  0.26266177  0.73501427  0.44672291  1
  Se  Se174  1  0.25363597  0.74484514  0.93979644  1
  Se  Se175  1  0.59716847  0.08091292  0.43744918  1
  Se  Se176  1  0.58248324  0.08163793  0.94465979  1
  Se  Se177  1  0.58273015  0.41945672  0.45020717  1
  Se  Se178  1  0.58877422  0.41391178  0.93553306  1
  Se  Se179  1  0.58312940  0.75297745  0.45114531  1
  Se  Se180  1  0.59530298  0.73700626  0.93787676  1
  Se  Se181  1  0.91402588  0.07471001  0.45011962  1
  Se  Se182  1  0.91125035  0.08424333  0.94388251  1
  Se  Se183  1  0.92289857  0.42321079  0.44243940  1
  Se  Se184  1  0.91018650  0.41924153  0.94804533  1
  Se  Se185  1  0.91104090  0.75266569  0.44580897  1
  Se  Se186  1  0.92956832  0.74554629  0.94375234  1
  Se  Se187  1  0.24034902  0.24901551  0.31869024  1
  Se  Se188  1  0.25274009  0.25104213  0.79939342  1
  Se  Se189  1  0.23921933  0.57461402  0.31206613  1
  Se  Se190  1  0.24958700  0.58505313  0.80981046  1
  Se  Se191  1  0.25252535  0.92141146  0.31042322  1
  Se  Se192  1  0.25974097  0.92509604  0.79449366  1
  Se  Se193  1  0.58329980  0.24980070  0.30420806  1
  Se  Se194  1  0.58795083  0.24795830  0.80225471  1
  Se  Se195  1  0.57063696  0.58609231  0.31662939  1
  Se  Se196  1  0.58777108  0.58410815  0.79642068  1
  Se  Se197  1  0.59021628  0.92543623  0.30467959  1
  Se  Se198  1  0.58200298  0.90935967  0.80140877  1
  Se  Se199  1  0.91665711  0.25458447  0.31321072  1
  Se  Se200  1  0.91059905  0.24481838  0.81044974  1
  Se  Se201  1  0.91103749  0.58563981  0.29695397  1
  Se  Se202  1  0.91310190  0.57824692  0.80555804  1
  Se  Se203  1  0.91228049  0.91081233  0.31222405  1
  Se  Se204  1  0.91290276  0.91981852  0.80036050  1
  Se  Se205  1  0.07897824  0.08891657  0.31814910  1
  Se  Se206  1  0.08185195  0.08759173  0.79756508  1
  Se  Se207  1  0.08875215  0.41717470  0.29579455  1
  Se  Se208  1  0.09492100  0.42523118  0.80905373  1
  Se  Se209  1  0.08378487  0.75073758  0.30432879  1
  Se  Se210  1  0.09553953  0.76749811  0.80428328  1
  Se  Se211  1  0.41796189  0.08428728  0.30431697  1
  Se  Se212  1  0.41967968  0.08204355  0.79902301  1
  Se  Se213  1  0.42004823  0.42653395  0.31248472  1
  Se  Se214  1  0.42054721  0.41450773  0.79950550  1
  Se  Se215  1  0.42445118  0.76506083  0.31576051  1
  Se  Se216  1  0.42559178  0.75022100  0.81089349  1
  Se  Se217  1  0.75427212  0.08159090  0.29868908  1
  Se  Se218  1  0.74810484  0.08188861  0.80394855  1
  Se  Se219  1  0.74216869  0.41686403  0.30814078  1
  Se  Se220  1  0.75168197  0.41237459  0.80023356  1
  Se  Se221  1  0.75466846  0.75632585  0.31452987  1
  Se  Se222  1  0.75384611  0.74583563  0.79959979  1
  Se  Se223  1  0.25081776  0.08836636  0.20487811  1
  Se  Se224  1  0.25319959  0.08370435  0.69274381  1
  Se  Se225  1  0.24767774  0.42291061  0.19378022  1
  Se  Se226  1  0.25762768  0.41170084  0.69846931  1
  Se  Se227  1  0.24097167  0.75871628  0.18922853  1
  Se  Se228  1  0.24294386  0.75947055  0.69071128  1
  Se  Se229  1  0.58664872  0.08521128  0.19151849  1
  Se  Se230  1  0.58836326  0.08066300  0.69913151  1
  Se  Se231  1  0.55380953  0.44788317  0.19338764  1
  Se  Se232  1  0.59245952  0.40994906  0.69381476  1
  Se  Se233  1  0.57439709  0.76296862  0.19393297  1
  Se  Se234  1  0.58653842  0.74643746  0.69065279  1
  Se  Se235  1  0.89883904  0.09472630  0.19303050  1
  Se  Se236  1  0.91591968  0.08264201  0.69447551  1
  Se  Se237  1  0.90308686  0.40445814  0.19761217  1
  Se  Se238  1  0.91379512  0.41987744  0.68880173  1
  Se  Se239  1  0.91581503  0.74859902  0.19696677  1
  Se  Se240  1  0.91115880  0.75777053  0.68432356  1
  Se  Se241  1  0.08166622  0.24542896  0.20175963  1
  Se  Se242  1  0.08613325  0.24209145  0.68500017  1
  Se  Se243  1  0.08692969  0.56875807  0.20305830  1
  Se  Se244  1  0.09186600  0.57882389  0.69240305  1
  Se  Se245  1  0.09021147  0.91385810  0.19477327  1
  Se  Se246  1  0.07905640  0.91909048  0.69674081  1
  Se  Se247  1  0.42561637  0.24821290  0.19056367  1
  Se  Se248  1  0.42067669  0.25209443  0.69374896  1
  Se  Se249  1  0.41344298  0.59120608  0.19645654  1
  Se  Se250  1  0.43140495  0.57386504  0.68417656  1
  Se  Se251  1  0.41162691  0.92525894  0.19982926  1
  Se  Se252  1  0.41923780  0.91297624  0.69376967  1
  Se  Se253  1  0.71444469  0.27065711  0.18271136  1
  Se  Se254  1  0.75293811  0.25195743  0.69580032  1
  Se  Se255  1  0.75299631  0.58377173  0.19071546  1
  Se  Se256  1  0.75023618  0.58524399  0.69323989  1
  Se  Se257  1  0.74926986  0.91532380  0.19763844  1
  Se  Se258  1  0.74683774  0.91905136  0.69227613  1
