# generated using pymatgen
data_In86Cu29Se144
_symmetry_space_group_name_H-M   'P 1'
_cell_length_a   17.60822724
_cell_length_b   17.60412857
_cell_length_c   23.46376227
_cell_angle_alpha   89.99650162
_cell_angle_beta   90.00175482
_cell_angle_gamma   89.99602296
_symmetry_Int_Tables_number   1
_chemical_formula_structural   In86Cu29Se144
_chemical_formula_sum   'In86 Cu29 Se144'
_cell_volume   7273.23824571
_cell_formula_units_Z   1
loop_
 _symmetry_equiv_pos_site_id
 _symmetry_equiv_pos_as_xyz
  1  'x, y, z'
loop_
 _atom_site_type_symbol
 _atom_site_label
 _atom_site_symmetry_multiplicity
 _atom_site_fract_x
 _atom_site_fract_y
 _atom_site_fract_z
 _atom_site_occupancy
  In  In0  1  -0.00346120  0.17596630  0.12594417  1
  In  In1  1  -0.00147425  0.16549165  0.63036768  1
  In  In2  1  0.00717120  0.49423341  0.12235866  1
  In  In3  1  -0.00890344  0.49692736  0.62730458  1
  In  In4  1  0.00349380  0.83124702  0.12180131  1
  In  In5  1  0.00980287  0.83200274  0.62915156  1
  In  In6  1  0.34692312  0.15724292  0.13777500  1
  In  In7  1  0.34239142  0.16055125  0.63208837  1
  In  In8  1  0.32582410  0.50520037  0.11588880  1
  In  In9  1  0.33072393  0.50483419  0.63275067  1
  In  In10  1  0.33663096  0.82979985  0.11946328  1
  In  In11  1  0.33774657  0.83044647  0.63550706  1
  In  In12  1  0.65758220  0.15652777  0.11941407  1
  In  In13  1  0.66316466  0.15932961  0.61617666  1
  In  In14  1  0.66537106  0.52028384  0.12832606  1
  In  In15  1  0.65662619  0.50040075  0.62843682  1
  In  In16  1  0.65203520  0.82246122  0.12153749  1
  In  In17  1  0.66606934  0.84353561  0.62368798  1
  In  In18  1  0.16309233  0.00106640  0.36532257  1
  In  In19  1  0.15570579  -0.00775982  0.87234733  1
  In  In20  1  0.17031586  0.33655284  0.36541338  1
  In  In21  1  0.17511325  0.33865733  0.86908615  1
  In  In22  1  0.17489635  0.68165244  0.36280499  1
  In  In23  1  0.18674649  0.64594642  0.91484738  1
  In  In24  1  0.49625074  0.00677909  0.37686204  1
  In  In25  1  0.49833746  0.01237997  0.88026443  1
  In  In26  1  0.49024297  0.33228611  0.37294351  1
  In  In27  1  0.48483276  0.34914049  0.89036547  1
  In  In28  1  0.51608433  0.69118005  0.34309591  1
  In  In29  1  0.45781953  0.69364216  0.91243179  1
  In  In30  1  0.84349654  0.00151627  0.37032640  1
  In  In31  1  0.85495824  -0.01962010  0.88656633  1
  In  In32  1  0.82912451  0.31976009  0.37363219  1
  In  In33  1  0.83292644  0.31980169  0.87406984  1
  In  In34  1  0.83067567  0.66648996  0.35821414  1
  In  In35  1  0.84602439  0.68235098  0.88232435  1
  In  In36  1  -0.01136671  0.15949078  0.36678919  1
  In  In37  1  -0.00798596  0.15349403  0.87027271  1
  In  In38  1  0.00281090  0.50075959  0.36325867  1
  In  In39  1  0.02529533  0.50507060  0.88403170  1
  In  In40  1  -0.00819526  0.83310160  0.34930618  1
  In  In41  1  0.00236477  0.82730752  0.89101445  1
  In  In42  1  0.34373343  0.17259249  0.36165097  1
  In  In43  1  0.33838622  0.17374520  0.87206934  1
  In  In44  1  0.33668647  0.50585121  0.36535696  1
  In  In45  1  0.33103152  0.50234930  0.88252714  1
  In  In46  1  0.35739692  0.85817616  0.34835103  1
  In  In47  1  0.32988323  0.84006098  0.87964391  1
  In  In48  1  0.66490707  0.17005764  0.38293613  1
  In  In49  1  0.67136414  0.16554698  0.88408340  1
  In  In50  1  0.65703227  0.51219409  0.36927976  1
  In  In51  1  0.65303083  0.49321203  0.87733187  1
  In  In52  1  0.66039704  0.81743536  0.36818968  1
  In  In53  1  0.67002439  0.83057546  0.88030317  1
  In  In54  1  0.18237055  -0.01345693  0.13034530  1
  In  In55  1  0.16965215  -0.00217550  0.63707782  1
  In  In56  1  0.16185463  0.34189997  0.12402999  1
  In  In57  1  0.16726413  0.33376781  0.63724416  1
  In  In58  1  0.16870798  0.66643135  0.11153586  1
  In  In59  1  0.17331538  0.67898897  0.62681049  1
  In  In60  1  0.49181544  -0.00937428  0.12459152  1
  In  In61  1  0.49502357  -0.00430827  0.62121222  1
  In  In62  1  0.48323686  0.32019324  0.12067271  1
  In  In63  1  0.50594775  0.32680241  0.62979581  1
  In  In64  1  0.49310235  0.67206725  0.11908698  1
  In  In65  1  0.49415106  0.66401788  0.62579632  1
  In  In66  1  0.83863147  0.00439099  0.12251994  1
  In  In67  1  0.82789327  0.00709254  0.62514682  1
  In  In68  1  0.84704460  0.33210870  0.12437704  1
  In  In69  1  0.84701825  0.32633875  0.62871641  1
  In  In70  1  0.82514275  0.68503251  0.13449559  1
  In  In71  1  0.83991824  0.67312805  0.62276496  1
  In  In72  1  0.66517342  0.32716910  0.75395178  1
  In  In73  1  0.16707228  0.83749819  0.49724729  1
  In  In74  1  0.66538725  0.33999105  0.25586637  1
  In  In75  1  0.67050393  -0.00071060  0.74713888  1
  In  In76  1  0.66377948  0.66148481  0.76016872  1
  In  In77  1  0.82657741  0.49359502  0.48553694  1
  In  In78  1  0.66417943  -0.00308356  0.24206393  1
  In  In79  1  0.01530730  0.66752216  0.76351370  1
  In  In80  1  0.16562328  0.16655355  0.00021428  1
  In  In81  1  0.16834683  0.49815261  0.50305016  1
  In  In82  1  0.82837950  0.83443480  0.49464778  1
  In  In83  1  0.49985484  0.50163900  0.49805582  1
  In  In84  1  0.17011134  0.16308019  0.50009875  1
  In  In85  1  0.83072095  0.50431425  0.00240414  1
  Cu  Cu86  1  0.33851092  0.32723805  0.49852519  1
  Cu  Cu87  1  0.66635429  0.33089943  0.00484672  1
  Cu  Cu88  1  0.49656465  0.82999559  0.75603072  1
  Cu  Cu89  1  0.16372519  0.17218188  0.24571126  1
  Cu  Cu90  1  -0.00295011  0.00041929  0.49434545  1
  Cu  Cu91  1  0.83239248  0.17062187  0.24599521  1
  Cu  Cu92  1  0.34329654  0.67836461  0.49697118  1
  Cu  Cu93  1  0.67238918  0.33235279  0.50320924  1
  Cu  Cu94  1  0.33922779  -0.00268239  0.49598467  1
  Cu  Cu95  1  0.65992429  -0.00143954  0.49825864  1
  Cu  Cu96  1  0.83877298  0.15641706  0.75124271  1
  Cu  Cu97  1  0.17104428  0.50551330  0.75901423  1
  Cu  Cu98  1  -0.00300391  0.33001704  -0.00090829  1
  Cu  Cu99  1  -0.00079262  0.31916957  0.50091125  1
  Cu  Cu100  1  0.84193851  0.50472696  0.24141276  1
  Cu  Cu101  1  0.66996697  -0.00241013  0.00366940  1
  Cu  Cu102  1  0.32869755  0.33095773  0.00089741  1
  Cu  Cu103  1  0.49502414  0.17378711  0.75680023  1
  Cu  Cu104  1  0.33734590  0.00397664  0.00274491  1
  Cu  Cu105  1  0.16639784  0.16618973  0.75411485  1
  Cu  Cu106  1  0.17079011  0.82892456  0.75921846  1
  Cu  Cu107  1  0.16108015  0.82665135  0.23660026  1
  Cu  Cu108  1  0.66416372  0.66939352  0.00110035  1
  Cu  Cu109  1  0.00218418  -0.00067401  0.00156643  1
  Cu  Cu110  1  0.16730077  0.50201355  0.24123990  1
  Cu  Cu111  1  0.48382984  0.50670797  0.76160835  1
  Cu  Cu112  1  0.49338829  0.49959760  0.23939205  1
  Cu  Cu113  1  0.83986729  0.50174079  0.75129064  1
  Cu  Cu114  1  -0.00315115  0.66086321  0.48733433  1
  Se  Se115  1  0.08205283  0.07717455  0.06431475  1
  Se  Se116  1  0.08052735  0.07033245  0.55859317  1
  Se  Se117  1  0.08262842  0.41468943  0.04704886  1
  Se  Se118  1  0.07442515  0.40449486  0.55835458  1
  Se  Se119  1  0.09545140  0.76596696  0.05004140  1
  Se  Se120  1  0.07404411  0.73843915  0.55213841  1
  Se  Se121  1  0.41939208  0.08623632  0.05688475  1
  Se  Se122  1  0.41452396  0.08389598  0.55411060  1
  Se  Se123  1  0.41307934  0.41426327  0.05380288  1
  Se  Se124  1  0.41091959  0.41181637  0.56182467  1
  Se  Se125  1  0.40486215  0.74006614  0.04493321  1
  Se  Se126  1  0.41821996  0.75583926  0.56019853  1
  Se  Se127  1  0.75222912  0.08498984  0.05400058  1
  Se  Se128  1  0.74903906  0.07848386  0.54939475  1
  Se  Se129  1  0.74326542  0.41381995  0.06588856  1
  Se  Se130  1  0.74868379  0.41254364  0.56434919  1
  Se  Se131  1  0.74767714  0.75177582  0.05400079  1
  Se  Se132  1  0.74164516  0.74250323  0.55665471  1
  Se  Se133  1  0.25604784  0.24861207  0.06467759  1
  Se  Se134  1  0.25416550  0.25682735  0.56155687  1
  Se  Se135  1  0.23667953  0.57114636  0.04181236  1
  Se  Se136  1  0.26087259  0.59693185  0.55479329  1
  Se  Se137  1  0.25367910  0.91624259  0.05003779  1
  Se  Se138  1  0.25678881  0.92472876  0.56002281  1
  Se  Se139  1  0.57964916  0.24807986  0.05501905  1
  Se  Se140  1  0.58326939  0.25315629  0.55468669  1
  Se  Se141  1  0.58176694  0.58593262  0.05311985  1
  Se  Se142  1  0.59375919  0.59267956  0.55576259  1
  Se  Se143  1  0.58023663  0.91699586  0.05420447  1
  Se  Se144  1  0.57984272  0.91427195  0.55274707  1
  Se  Se145  1  0.91325846  0.24627833  0.04909537  1
  Se  Se146  1  0.91577926  0.24014496  0.55557190  1
  Se  Se147  1  0.91096661  0.58909254  0.06910267  1
  Se  Se148  1  0.91904796  0.58341960  0.54928860  1
  Se  Se149  1  0.91748777  0.91729023  0.05476315  1
  Se  Se150  1  0.92345614  0.91680166  0.55830791  1
  Se  Se151  1  0.08291717  0.25076791  0.43654939  1
  Se  Se152  1  0.07735908  0.25243503  0.93545983  1
  Se  Se153  1  0.08761450  0.58722406  0.43508071  1
  Se  Se154  1  0.05757576  0.60634055  0.95762181  1
  Se  Se155  1  0.07002260  0.91665777  0.43363975  1
  Se  Se156  1  0.09074413  0.91634798  0.95304531  1
  Se  Se157  1  0.41718184  0.24417078  0.44355107  1
  Se  Se158  1  0.41469494  0.24573054  0.95043922  1
  Se  Se159  1  0.41469764  0.59120460  0.43744278  1
  Se  Se160  1  0.43536016  0.55818410  0.94901650  1
  Se  Se161  1  0.41743606  0.91139884  0.44126671  1
  Se  Se162  1  0.41958105  0.92260823  0.94556796  1
  Se  Se163  1  0.75419386  0.24732219  0.45105291  1
  Se  Se164  1  0.75229017  0.25259465  0.95080288  1
  Se  Se165  1  0.74197845  0.59819660  0.43827355  1
  Se  Se166  1  0.74174098  0.59093700  0.93687080  1
  Se  Se167  1  0.73998342  0.92441575  0.43386333  1
  Se  Se168  1  0.75148596  0.91488747  0.94812402  1
  Se  Se169  1  0.25638588  0.07543516  0.43689987  1
  Se  Se170  1  0.25467599  0.07832960  0.93885977  1
  Se  Se171  1  0.25966290  0.41066340  0.44195222  1
  Se  Se172  1  0.24460941  0.41419414  0.94820466  1
  Se  Se173  1  0.25966959  0.75359496  0.43785710  1
  Se  Se174  1  0.28602444  0.73863210  0.95661703  1
  Se  Se175  1  0.57874295  0.08653319  0.44743202  1
  Se  Se176  1  0.58714096  0.08377854  0.95082193  1
  Se  Se177  1  0.59388268  0.40918532  0.43930548  1
  Se  Se178  1  0.58359282  0.41762907  0.95535643  1
  Se  Se179  1  0.57423130  0.74120087  0.43610714  1
  Se  Se180  1  0.58307344  0.75614014  0.94996469  1
  Se  Se181  1  0.91335721  0.08602215  0.44539213  1
  Se  Se182  1  0.91698136  0.08500750  0.95080920  1
  Se  Se183  1  0.92955840  0.40572435  0.43761980  1
  Se  Se184  1  0.91895626  0.41450909  0.93852682  1
  Se  Se185  1  0.92190826  0.74853094  0.43242218  1
  Se  Se186  1  0.92067105  0.74640325  0.96129801  1
  Se  Se187  1  0.25142469  0.25235946  0.29884585  1
  Se  Se188  1  0.25276847  0.25093845  0.80195653  1
  Se  Se189  1  0.24631862  0.58253521  0.30042664  1
  Se  Se190  1  0.24247084  0.58961595  0.82014886  1
  Se  Se191  1  0.23611528  0.90905145  0.29880301  1
  Se  Se192  1  0.25191037  0.92056660  0.80630973  1
  Se  Se193  1  0.57640670  0.24140432  0.30722841  1
  Se  Se194  1  0.57399291  0.24908743  0.81952642  1
  Se  Se195  1  0.58432788  0.58092446  0.28946215  1
  Se  Se196  1  0.56551893  0.58550483  0.81925962  1
  Se  Se197  1  0.57601296  0.91309367  0.30719304  1
  Se  Se198  1  0.58084539  0.91231383  0.81002481  1
  Se  Se199  1  0.91592217  0.25477075  0.29952297  1
  Se  Se200  1  0.91701862  0.24660643  0.80219344  1
  Se  Se201  1  0.92466465  0.58806217  0.29658369  1
  Se  Se202  1  0.91519156  0.57769697  0.81653078  1
  Se  Se203  1  0.91156794  0.92719861  0.29245979  1
  Se  Se204  1  0.93314860  0.90740729  0.81330320  1
  Se  Se205  1  0.08098363  0.08786326  0.30017387  1
  Se  Se206  1  0.08140658  0.07952064  0.80179627  1
  Se  Se207  1  0.08655365  0.41734473  0.29773774  1
  Se  Se208  1  0.08281993  0.42040527  0.80486047  1
  Se  Se209  1  0.07967968  0.74340884  0.29224500  1
  Se  Se210  1  0.10482894  0.74786579  0.82787556  1
  Se  Se211  1  0.40106287  0.06300254  0.30361425  1
  Se  Se212  1  0.41585118  0.08196629  0.80485601  1
  Se  Se213  1  0.41913797  0.41807685  0.30114624  1
  Se  Se214  1  0.40685435  0.41369963  0.80986152  1
  Se  Se215  1  0.38741816  0.72920334  0.30213912  1
  Se  Se216  1  0.41540103  0.75066223  0.81444603  1
  Se  Se217  1  0.74917736  0.09300049  0.30628344  1
  Se  Se218  1  0.75767024  0.08221279  0.81398905  1
  Se  Se219  1  0.76292092  0.43163805  0.31092302  1
  Se  Se220  1  0.75654415  0.42414530  0.81003768  1
  Se  Se221  1  0.75900506  0.76477859  0.29843704  1
  Se  Se222  1  0.76112217  0.75625965  0.80640501  1
  Se  Se223  1  0.24760788  0.08405398  0.19829617  1
  Se  Se224  1  0.25248748  0.08517779  0.69972766  1
  Se  Se225  1  0.25272365  0.41861905  0.19047904  1
  Se  Se226  1  0.24986138  0.42176841  0.70075362  1
  Se  Se227  1  0.24822463  0.74654336  0.18568644  1
  Se  Se228  1  0.25289529  0.74665794  0.70308169  1
  Se  Se229  1  0.56793053  0.09099425  0.19427315  1
  Se  Se230  1  0.57502039  0.09368561  0.69483974  1
  Se  Se231  1  0.58003814  0.41880134  0.18521653  1
  Se  Se232  1  0.57025707  0.42817655  0.70418566  1
  Se  Se233  1  0.56926774  0.74973611  0.19395676  1
  Se  Se234  1  0.58154721  0.75581203  0.69455882  1
  Se  Se235  1  0.91668458  0.08811648  0.19373990  1
  Se  Se236  1  0.91958109  0.07378863  0.69556302  1
  Se  Se237  1  0.92311982  0.41474124  0.19494736  1
  Se  Se238  1  0.91908451  0.41380920  0.70000050  1
  Se  Se239  1  0.92314135  0.75548048  0.19650409  1
  Se  Se240  1  0.92049603  0.74927571  0.69757423  1
  Se  Se241  1  0.08149841  0.25694739  0.19363881  1
  Se  Se242  1  0.08162532  0.24737295  0.69884301  1
  Se  Se243  1  0.08739621  0.58523175  0.18560953  1
  Se  Se244  1  0.09219759  0.57750207  0.68856552  1
  Se  Se245  1  0.08005541  0.92105152  0.19301854  1
  Se  Se246  1  0.08784144  0.90905820  0.70149813  1
  Se  Se247  1  0.41494991  0.25479109  0.20357944  1
  Se  Se248  1  0.41594472  0.25578330  0.69859530  1
  Se  Se249  1  0.41195920  0.58292632  0.18583060  1
  Se  Se250  1  0.41196066  0.59064273  0.69939954  1
  Se  Se251  1  0.40774641  0.91381531  0.19399105  1
  Se  Se252  1  0.42162386  0.91849647  0.69890810  1
  Se  Se253  1  0.74745412  0.24973311  0.18798754  1
  Se  Se254  1  0.75320128  0.23592446  0.69293133  1
  Se  Se255  1  0.75044995  0.59004352  0.20094261  1
  Se  Se256  1  0.75935522  0.57747488  0.69030291  1
  Se  Se257  1  0.75139238  0.90889201  0.18279812  1
  Se  Se258  1  0.76470008  0.90388769  0.69474820  1
