# generated using pymatgen
data_In86Cu29Se144
_symmetry_space_group_name_H-M   'P 1'
_cell_length_a   17.59609786
_cell_length_b   17.59619741
_cell_length_c   23.45430433
_cell_angle_alpha   89.98565777
_cell_angle_beta   90.01908237
_cell_angle_gamma   90.00747386
_symmetry_Int_Tables_number   1
_chemical_formula_structural   In86Cu29Se144
_chemical_formula_sum   'In86 Cu29 Se144'
_cell_volume   7262.02448395
_cell_formula_units_Z   1
loop_
 _symmetry_equiv_pos_site_id
 _symmetry_equiv_pos_as_xyz
  1  'x, y, z'
loop_
 _atom_site_type_symbol
 _atom_site_label
 _atom_site_symmetry_multiplicity
 _atom_site_fract_x
 _atom_site_fract_y
 _atom_site_fract_z
 _atom_site_occupancy
  In  In0  1  -0.00616034  0.17120252  0.13432830  1
  In  In1  1  -0.00335464  0.16105458  0.61055088  1
  In  In2  1  -0.00096191  0.49268127  0.11665005  1
  In  In3  1  0.00807494  0.51182739  0.62056930  1
  In  In4  1  0.00495485  0.84277299  0.11133406  1
  In  In5  1  -0.00393367  0.82520420  0.62641875  1
  In  In6  1  0.34554727  0.17114345  0.13775470  1
  In  In7  1  0.33103804  0.16560011  0.60562081  1
  In  In8  1  0.32695117  0.50688444  0.13725806  1
  In  In9  1  0.32710132  0.49527615  0.60728999  1
  In  In10  1  0.32644926  0.82248901  0.12022513  1
  In  In11  1  0.33291756  0.83074502  0.61667670  1
  In  In12  1  0.65943927  0.16002294  0.13304555  1
  In  In13  1  0.66245481  0.14641569  0.61164386  1
  In  In14  1  0.68692872  0.49626535  0.12712950  1
  In  In15  1  0.66691058  0.50055961  0.61536504  1
  In  In16  1  0.67745596  0.84392797  0.12097679  1
  In  In17  1  0.68039387  0.85014048  0.60803453  1
  In  In18  1  0.15367618  0.00674893  0.37735379  1
  In  In19  1  0.15252338  -0.01862791  0.87462066  1
  In  In20  1  0.16763395  0.33777477  0.37273619  1
  In  In21  1  0.17446886  0.34685273  0.87870250  1
  In  In22  1  0.17137708  0.65496811  0.37981618  1
  In  In23  1  0.13300083  0.69072174  0.90397676  1
  In  In24  1  0.50715988  -0.00282040  0.38516906  1
  In  In25  1  0.49898891  -0.01521709  0.87508077  1
  In  In26  1  0.48768047  0.33976808  0.39082813  1
  In  In27  1  0.49681707  0.34335668  0.87263125  1
  In  In28  1  0.48947127  0.67918956  0.37507082  1
  In  In29  1  0.51515853  0.67454268  0.87126361  1
  In  In30  1  0.83272686  0.00147217  0.37584143  1
  In  In31  1  0.83261423  0.00680337  0.88494744  1
  In  In32  1  0.84279986  0.32700293  0.37454759  1
  In  In33  1  0.83239959  0.32263026  0.88738618  1
  In  In34  1  0.83234043  0.67136787  0.38167187  1
  In  In35  1  0.83900166  0.66985207  0.87905594  1
  In  In36  1  0.00217312  0.16862976  0.36821055  1
  In  In37  1  -0.01291273  0.14993688  0.87522766  1
  In  In38  1  0.00976065  0.49222332  0.37847291  1
  In  In39  1  -0.01681423  0.52373458  0.89611247  1
  In  In40  1  -0.01277294  0.84088561  0.38123076  1
  In  In41  1  0.00375983  0.83237725  0.88773860  1
  In  In42  1  0.32054686  0.18394837  0.39469844  1
  In  In43  1  0.33100620  0.17858388  0.87459429  1
  In  In44  1  0.32845296  0.50095885  0.37545179  1
  In  In45  1  0.32347235  0.49513026  0.87660057  1
  In  In46  1  0.33209425  0.82442886  0.37407005  1
  In  In47  1  0.33047853  0.82814580  0.87989724  1
  In  In48  1  0.67238464  0.15111191  0.38962479  1
  In  In49  1  0.68421054  0.15988738  0.87874507  1
  In  In50  1  0.67190038  0.49411723  0.38001032  1
  In  In51  1  0.66846039  0.50724990  0.87546726  1
  In  In52  1  0.66214739  0.85230405  0.38942632  1
  In  In53  1  0.66170846  0.84190841  0.87895560  1
  In  In54  1  0.16222180  -0.01656039  0.12721847  1
  In  In55  1  0.15881121  -0.00447573  0.61248437  1
  In  In56  1  0.16160132  0.33875834  0.13598892  1
  In  In57  1  0.16839332  0.33577769  0.60607566  1
  In  In58  1  0.16738495  0.67300688  0.11814758  1
  In  In59  1  0.16122820  0.66636032  0.62393666  1
  In  In60  1  0.51022020  0.00366746  0.13165466  1
  In  In61  1  0.51448208  0.00171356  0.61515226  1
  In  In62  1  0.49915043  0.32688492  0.13825687  1
  In  In63  1  0.49363135  0.33148623  0.60437568  1
  In  In64  1  0.48884328  0.66381754  0.12880294  1
  In  In65  1  0.50392640  0.67023577  0.61130900  1
  In  In66  1  0.82984524  0.00075116  0.12941600  1
  In  In67  1  0.82021825  -0.01538714  0.60758537  1
  In  In68  1  0.84251946  0.34754079  0.11680628  1
  In  In69  1  0.83063629  0.32876107  0.61615976  1
  In  In70  1  0.84982185  0.67338522  0.10906247  1
  In  In71  1  0.84777253  0.68086399  0.62372335  1
  In  In72  1  0.33194412  0.00165983  0.25868018  1
  In  In73  1  0.00335606  0.33496502  0.74700744  1
  In  In74  1  0.50669992  0.16528832  0.01662008  1
  In  In75  1  0.66553814  0.32826455  0.25502051  1
  In  In76  1  0.16709201  0.16119629  0.00254425  1
  In  In77  1  0.32988912  0.66275361  0.74474906  1
  In  In78  1  0.66639297  0.67465366  0.24988165  1
  In  In79  1  0.50564883  0.50407552  -0.00244253  1
  In  In80  1  0.33258281  -0.00138886  0.75333142  1
  In  In81  1  0.00117825  0.67025547  0.24210191  1
  In  In82  1  0.67328541  0.66965375  0.74827463  1
  In  In83  1  0.66944628  0.33027165  0.75360087  1
  In  In84  1  0.32937270  0.32959923  0.72261560  1
  In  In85  1  -0.00601589  -0.00871608  0.74766898  1
  Cu  Cu86  1  0.51433365  0.15510189  0.74224414  1
  Cu  Cu87  1  0.67193147  0.33388109  0.49605328  1
  Cu  Cu88  1  0.83222553  0.16540963  0.25307998  1
  Cu  Cu89  1  0.33322145  -0.00850250  0.49408088  1
  Cu  Cu90  1  0.17010115  0.49587415  0.25466866  1
  Cu  Cu91  1  0.15718630  0.82475645  0.24659338  1
  Cu  Cu92  1  0.15428998  0.51357729  0.75211194  1
  Cu  Cu93  1  0.16672169  0.16560204  0.74111886  1
  Cu  Cu94  1  0.33652757  0.66701630  0.00334295  1
  Cu  Cu95  1  0.01046189  0.32615332  0.00356388  1
  Cu  Cu96  1  0.49693716  0.50081623  0.25888558  1
  Cu  Cu97  1  0.00520156  0.00578440  0.49365150  1
  Cu  Cu98  1  0.66699713  0.00180843  0.00566258  1
  Cu  Cu99  1  0.50820750  0.83803707  0.74593683  1
  Cu  Cu100  1  0.82827612  0.15621309  0.74825743  1
  Cu  Cu101  1  0.84555176  0.50395769  0.24483403  1
  Cu  Cu102  1  -0.00109239  0.67024504  0.50051292  1
  Cu  Cu103  1  0.32920098  0.66641040  0.49639350  1
  Cu  Cu104  1  0.66606365  0.66956740  -0.00320597  1
  Cu  Cu105  1  0.84316787  0.50591509  0.75254940  1
  Cu  Cu106  1  0.49980869  0.84034056  0.25566923  1
  Cu  Cu107  1  0.82893457  0.84578099  0.25229932  1
  Cu  Cu108  1  0.49402310  0.49108630  0.73816232  1
  Cu  Cu109  1  0.49681621  0.17020951  0.26574003  1
  Cu  Cu110  1  0.32641227  -0.00884178  -0.00018784  1
  Cu  Cu111  1  0.33925951  0.33533611  0.00967783  1
  Cu  Cu112  1  0.66645242  0.65790671  0.49662992  1
  Cu  Cu113  1  -0.00386961  0.33596463  0.49305293  1
  Cu  Cu114  1  0.16612224  0.16810350  0.25755576  1
  Se  Se115  1  0.07799251  0.07871959  0.06574643  1
  Se  Se116  1  0.09170200  0.09095731  0.54447372  1
  Se  Se117  1  0.09336656  0.41131467  0.05438118  1
  Se  Se118  1  0.07625869  0.42077804  0.54865349  1
  Se  Se119  1  0.06429837  0.73179113  0.05407721  1
  Se  Se120  1  0.08306131  0.75245689  0.55461540  1
  Se  Se121  1  0.40399329  0.07155662  0.06225818  1
  Se  Se122  1  0.41677397  0.07284013  0.54946281  1
  Se  Se123  1  0.42135409  0.41699077  0.06604665  1
  Se  Se124  1  0.41198905  0.41663599  0.54104729  1
  Se  Se125  1  0.42277690  0.74985329  0.05403024  1
  Se  Se126  1  0.41520905  0.75089669  0.54720479  1
  Se  Se127  1  0.74394729  0.08683237  0.06148198  1
  Se  Se128  1  0.77001224  0.09627410  0.54784112  1
  Se  Se129  1  0.75158825  0.42063016  0.04922458  1
  Se  Se130  1  0.75393190  0.41903209  0.55026793  1
  Se  Se131  1  0.74738512  0.74993218  0.05363038  1
  Se  Se132  1  0.74553029  0.73825229  0.55569289  1
  Se  Se133  1  0.25923942  0.24993430  0.06497774  1
  Se  Se134  1  0.25274239  0.25416754  0.54149479  1
  Se  Se135  1  0.25739007  0.58320151  0.05848258  1
  Se  Se136  1  0.24182443  0.58816328  0.55076826  1
  Se  Se137  1  0.24358290  0.90927835  0.05411067  1
  Se  Se138  1  0.24737104  0.91182716  0.54967271  1
  Se  Se139  1  0.59514696  0.26650287  0.06491150  1
  Se  Se140  1  0.59221496  0.24910285  0.55081351  1
  Se  Se141  1  0.59384779  0.58967838  0.06408381  1
  Se  Se142  1  0.57816639  0.57591775  0.54732497  1
  Se  Se143  1  0.57990131  0.92028431  0.05742928  1
  Se  Se144  1  0.57170265  0.90231348  0.54649618  1
  Se  Se145  1  0.92189692  0.25018889  0.05712776  1
  Se  Se146  1  0.91522398  0.25033579  0.54744837  1
  Se  Se147  1  0.91800569  0.57388025  0.04817581  1
  Se  Se148  1  0.91477853  0.58638017  0.55456133  1
  Se  Se149  1  0.89065849  0.90255359  0.06027727  1
  Se  Se150  1  0.93293754  0.92203297  0.55550979  1
  Se  Se151  1  0.07981500  0.25395909  0.43871247  1
  Se  Se152  1  0.08365030  0.24961563  0.93409117  1
  Se  Se153  1  0.07949482  0.58372852  0.44835029  1
  Se  Se154  1  0.11464199  0.55308124  0.93766121  1
  Se  Se155  1  0.08517245  0.91222537  0.44578533  1
  Se  Se156  1  0.07110730  0.93113707  0.95477710  1
  Se  Se157  1  0.43156932  0.23461498  0.45469617  1
  Se  Se158  1  0.41809684  0.25587650  0.94862487  1
  Se  Se159  1  0.41452520  0.58760348  0.44123396  1
  Se  Se160  1  0.41369064  0.59334090  0.93526531  1
  Se  Se161  1  0.41542933  0.90769338  0.44183194  1
  Se  Se162  1  0.41450628  0.91216284  0.94699900  1
  Se  Se163  1  0.75515244  0.25113137  0.44347709  1
  Se  Se164  1  0.74157951  0.24921850  0.95265990  1
  Se  Se165  1  0.75526335  0.57880079  0.44568085  1
  Se  Se166  1  0.74950110  0.58559571  0.94456143  1
  Se  Se167  1  0.76770267  0.91173712  0.45012639  1
  Se  Se168  1  0.74707006  0.91856403  0.94924820  1
  Se  Se169  1  0.24673591  0.07662371  0.44628408  1
  Se  Se170  1  0.25648021  0.07502691  0.93523281  1
  Se  Se171  1  0.23915191  0.42626990  0.44320456  1
  Se  Se172  1  0.25643712  0.41622499  0.95529389  1
  Se  Se173  1  0.24457084  0.75079627  0.44493959  1
  Se  Se174  1  0.25077654  0.75178701  0.95353459  1
  Se  Se175  1  0.59033343  0.07076371  0.45786122  1
  Se  Se176  1  0.58173975  0.07787758  0.94316450  1
  Se  Se177  1  0.58499568  0.41984239  0.44920241  1
  Se  Se178  1  0.59448948  0.40705707  0.94184046  1
  Se  Se179  1  0.58836226  0.74382381  0.44151963  1
  Se  Se180  1  0.58049321  0.75472160  0.94810393  1
  Se  Se181  1  0.92166942  0.08691355  0.43957617  1
  Se  Se182  1  0.90931687  0.09248361  0.95504212  1
  Se  Se183  1  0.91113094  0.42199925  0.44289853  1
  Se  Se184  1  0.92596220  0.40488061  0.94632768  1
  Se  Se185  1  0.91177431  0.75402021  0.45144527  1
  Se  Se186  1  0.92833057  0.73615747  0.95106039  1
  Se  Se187  1  0.25331501  0.24806583  0.30820182  1
  Se  Se188  1  0.24310233  0.25270569  0.79916098  1
  Se  Se189  1  0.25099357  0.58635249  0.30220529  1
  Se  Se190  1  0.24169052  0.58412365  0.81198181  1
  Se  Se191  1  0.23528463  0.90776841  0.30843471  1
  Se  Se192  1  0.24166142  0.90242648  0.80577637  1
  Se  Se193  1  0.58127619  0.24758854  0.32379024  1
  Se  Se194  1  0.57528019  0.24065098  0.81175947  1
  Se  Se195  1  0.58383196  0.58073175  0.31198358  1
  Se  Se196  1  0.57374932  0.57085814  0.79891679  1
  Se  Se197  1  0.58451257  0.92001746  0.30885043  1
  Se  Se198  1  0.58787744  0.92110697  0.80109939  1
  Se  Se199  1  0.91841056  0.25237631  0.29842645  1
  Se  Se200  1  0.90796743  0.24287198  0.80460706  1
  Se  Se201  1  0.91672703  0.58444026  0.31060173  1
  Se  Se202  1  0.92230229  0.58801458  0.80819830  1
  Se  Se203  1  0.91889777  0.92230198  0.30432324  1
  Se  Se204  1  0.91074658  0.91144914  0.81739265  1
  Se  Se205  1  0.07950176  0.07847077  0.29868087  1
  Se  Se206  1  0.08994289  0.08815766  0.80462208  1
  Se  Se207  1  0.07994745  0.41402038  0.30094043  1
  Se  Se208  1  0.08267091  0.42569377  0.81211061  1
  Se  Se209  1  0.08223595  0.75082920  0.31463340  1
  Se  Se210  1  0.08321656  0.75434120  0.81382890  1
  Se  Se211  1  0.41522825  0.08892543  0.32328781  1
  Se  Se212  1  0.42430435  0.09438998  0.80926480  1
  Se  Se213  1  0.41715800  0.41463962  0.31067137  1
  Se  Se214  1  0.40858050  0.41693645  0.79731381  1
  Se  Se215  1  0.41257940  0.75193686  0.29747497  1
  Se  Se216  1  0.42526562  0.75637386  0.80351172  1
  Se  Se217  1  0.74724652  0.08549412  0.30700178  1
  Se  Se218  1  0.75007939  0.07405339  0.80484371  1
  Se  Se219  1  0.76160622  0.42558431  0.30357089  1
  Se  Se220  1  0.76309360  0.42314935  0.81049780  1
  Se  Se221  1  0.75258559  0.76231725  0.31251321  1
  Se  Se222  1  0.75485728  0.75930271  0.81218564  1
  Se  Se223  1  0.24186692  0.08713010  0.19211698  1
  Se  Se224  1  0.24878582  0.08624775  0.68426691  1
  Se  Se225  1  0.25628189  0.41053277  0.20286511  1
  Se  Se226  1  0.23031044  0.43255470  0.68632484  1
  Se  Se227  1  0.24593650  0.74698016  0.19465704  1
  Se  Se228  1  0.24377565  0.76026595  0.69130246  1
  Se  Se229  1  0.57575266  0.08930232  0.20720184  1
  Se  Se230  1  0.59584851  0.07056696  0.69278989  1
  Se  Se231  1  0.58186254  0.43015244  0.19577415  1
  Se  Se232  1  0.57973930  0.41146385  0.68452158  1
  Se  Se233  1  0.57561999  0.76202155  0.18948942  1
  Se  Se234  1  0.58115463  0.75330908  0.68626351  1
  Se  Se235  1  0.91434672  0.08117353  0.19935353  1
  Se  Se236  1  0.91347193  0.08662624  0.68638077  1
  Se  Se237  1  0.92406361  0.41600860  0.19403471  1
  Se  Se238  1  0.91058405  0.42161342  0.68731327  1
  Se  Se239  1  0.90484812  0.76168221  0.19164210  1
  Se  Se240  1  0.91379321  0.75743931  0.70218209  1
  Se  Se241  1  0.08333052  0.24938261  0.20099712  1
  Se  Se242  1  0.08877923  0.24692847  0.68178174  1
  Se  Se243  1  0.09140388  0.57351891  0.18926090  1
  Se  Se244  1  0.07327304  0.59589933  0.69794945  1
  Se  Se245  1  0.07337070  0.90974175  0.19642219  1
  Se  Se246  1  0.09433077  0.91062059  0.69129022  1
  Se  Se247  1  0.41596518  0.25512388  0.21176611  1
  Se  Se248  1  0.43189889  0.23327525  0.68169880  1
  Se  Se249  1  0.41617535  0.58581054  0.20422153  1
  Se  Se250  1  0.41866247  0.57551979  0.68030704  1
  Se  Se251  1  0.41521072  0.91379938  0.19125791  1
  Se  Se252  1  0.42132050  0.91445665  0.68805132  1
  Se  Se253  1  0.75791557  0.24962477  0.18992613  1
  Se  Se254  1  0.75100276  0.24002931  0.68822691  1
  Se  Se255  1  0.76663455  0.59131024  0.19150364  1
  Se  Se256  1  0.75773502  0.57468948  0.68910641  1
  Se  Se257  1  0.73975335  0.92464236  0.20067438  1
  Se  Se258  1  0.75025331  0.91778547  0.68944428  1
