# generated using pymatgen
data_In86Cu29Se144
_symmetry_space_group_name_H-M   'P 1'
_cell_length_a   17.57706314
_cell_length_b   17.58094818
_cell_length_c   23.43234561
_cell_angle_alpha   90.00940432
_cell_angle_beta   90.00842499
_cell_angle_gamma   89.99318809
_symmetry_Int_Tables_number   1
_chemical_formula_structural   In86Cu29Se144
_chemical_formula_sum   'In86 Cu29 Se144'
_cell_volume   7241.09686527
_cell_formula_units_Z   1
loop_
 _symmetry_equiv_pos_site_id
 _symmetry_equiv_pos_as_xyz
  1  'x, y, z'
loop_
 _atom_site_type_symbol
 _atom_site_label
 _atom_site_symmetry_multiplicity
 _atom_site_fract_x
 _atom_site_fract_y
 _atom_site_fract_z
 _atom_site_occupancy
  In  In0  1  0.00085757  0.17026680  0.11310592  1
  In  In1  1  0.00827351  0.18106765  0.62006426  1
  In  In2  1  -0.00876624  0.51001320  0.12415119  1
  In  In3  1  -0.00571384  0.49280718  0.63446011  1
  In  In4  1  0.00178185  0.83463771  0.11243986  1
  In  In5  1  -0.01198893  0.82751505  0.62782234  1
  In  In6  1  0.32796968  0.15511626  0.11904890  1
  In  In7  1  0.33116309  0.18064336  0.62540867  1
  In  In8  1  0.33514214  0.48799711  0.12924933  1
  In  In9  1  0.32128493  0.49775789  0.62614556  1
  In  In10  1  0.34766925  0.84656794  0.12081239  1
  In  In11  1  0.34269218  0.82042862  0.62201586  1
  In  In12  1  0.66243756  0.16875986  0.11764336  1
  In  In13  1  0.67153793  0.16566506  0.62728893  1
  In  In14  1  0.67595861  0.49220309  0.12866530  1
  In  In15  1  0.69520008  0.47361404  0.66257103  1
  In  In16  1  0.66163284  0.83268063  0.12657950  1
  In  In17  1  0.66824704  0.82974986  0.62945178  1
  In  In18  1  0.18052533  0.00373016  0.37238366  1
  In  In19  1  0.16910609  -0.00040366  0.88458113  1
  In  In20  1  0.15948822  0.33576533  0.38724043  1
  In  In21  1  0.15584080  0.33046664  0.86007311  1
  In  In22  1  0.15890005  0.66196125  0.37779902  1
  In  In23  1  0.16393799  0.66822315  0.87812993  1
  In  In24  1  0.49562785  -0.00837576  0.36121120  1
  In  In25  1  0.51087723  -0.01002777  0.88547489  1
  In  In26  1  0.50537348  0.32181433  0.37440682  1
  In  In27  1  0.49906668  0.33110769  0.86517683  1
  In  In28  1  0.51824480  0.66634478  0.37779341  1
  In  In29  1  0.51349153  0.66985078  0.87390900  1
  In  In30  1  0.83032940  0.01465721  0.36943932  1
  In  In31  1  0.82073433  0.01192668  0.88528577  1
  In  In32  1  0.82077308  0.33796729  0.38946516  1
  In  In33  1  0.82666415  0.33428298  0.86742274  1
  In  In34  1  0.82718449  0.66748954  0.37929540  1
  In  In35  1  0.83513931  0.66361110  0.87456097  1
  In  In36  1  -0.01196628  0.17785499  0.38300127  1
  In  In37  1  -0.00756915  0.17569066  0.88088961  1
  In  In38  1  -0.00093943  0.49399645  0.38935087  1
  In  In39  1  -0.02650304  0.47556110  0.84116667  1
  In  In40  1  0.00124230  0.82284897  0.37248776  1
  In  In41  1  0.00215196  0.82648581  0.88314596  1
  In  In42  1  0.33999334  0.15491791  0.37694208  1
  In  In43  1  0.32862855  0.17640783  0.88253353  1
  In  In44  1  0.32710600  0.49184608  0.37842404  1
  In  In45  1  0.33919428  0.48904004  0.86541194  1
  In  In46  1  0.33791942  0.85184752  0.36622930  1
  In  In47  1  0.32955318  0.83137262  0.88919535  1
  In  In48  1  0.67149057  0.16858984  0.36515719  1
  In  In49  1  0.67011888  0.16553317  0.87398974  1
  In  In50  1  0.67438695  0.50275305  0.37398401  1
  In  In51  1  0.68344079  0.51894674  0.85226721  1
  In  In52  1  0.65822071  0.82422302  0.36023004  1
  In  In53  1  0.66473287  0.83744603  0.88081244  1
  In  In54  1  0.17180746  0.00217191  0.12367314  1
  In  In55  1  0.15489780  0.00255627  0.62154439  1
  In  In56  1  0.17744220  0.32845927  0.12344222  1
  In  In57  1  0.16300291  0.33945575  0.63180081  1
  In  In58  1  0.15764570  0.66595816  0.12414182  1
  In  In59  1  0.16605973  0.63809393  0.62798815  1
  In  In60  1  0.49722979  -0.00223282  0.12620539  1
  In  In61  1  0.51971337  -0.00291696  0.62317782  1
  In  In62  1  0.51831262  0.33920717  0.11988374  1
  In  In63  1  0.50948540  0.33244879  0.63899317  1
  In  In64  1  0.50994564  0.68612131  0.12221736  1
  In  In65  1  0.50807460  0.67995397  0.61904594  1
  In  In66  1  0.82222120  -0.00808330  0.11394324  1
  In  In67  1  0.81639408  0.00148341  0.62597339  1
  In  In68  1  0.82446511  0.32433575  0.11040972  1
  In  In69  1  0.83360426  0.33738181  0.62966072  1
  In  In70  1  0.82201559  0.65863601  0.11579553  1
  In  In71  1  0.85270059  0.63880639  0.65807332  1
  In  In72  1  0.50241991  0.16729858  0.50660495  1
  In  In73  1  0.33885547  0.67098638  0.24751164  1
  In  In74  1  -0.00308812  0.33541200  0.25865576  1
  In  In75  1  0.51063056  0.49997491  0.50433575  1
  In  In76  1  0.33475063  0.66415524  0.75007584  1
  In  In77  1  0.15726703  0.49960245  -0.00635223  1
  In  In78  1  0.00010184  0.66733523  0.25178962  1
  In  In79  1  0.16752049  0.83511540  0.49299391  1
  In  In80  1  -0.00179611  0.00216359  0.24105489  1
  In  In81  1  0.33764938  0.32713193  0.25271253  1
  In  In82  1  0.33587629  0.00375589  0.76004837  1
  In  In83  1  -0.01017967  0.00353391  0.75925027  1
  In  In84  1  0.50774343  0.50043049  -0.01465342  1
  In  In85  1  0.82265556  0.83533398  0.50435752  1
  Cu  Cu86  1  0.83072363  0.49484729  0.25090324  1
  Cu  Cu87  1  0.66726074  0.67114587  -0.00286897  1
  Cu  Cu88  1  -0.00515428  0.33426946  0.51057275  1
  Cu  Cu89  1  0.67890475  0.66397151  0.50420096  1
  Cu  Cu90  1  0.33788219  0.00381135  0.00272322  1
  Cu  Cu91  1  0.33487455  0.00156147  0.49416874  1
  Cu  Cu92  1  0.82102684  0.83050488  0.75751500  1
  Cu  Cu93  1  0.66179060  -0.00142865  0.49627738  1
  Cu  Cu94  1  0.00309433  -0.00024030  -0.00068073  1
  Cu  Cu95  1  0.50594974  0.84151062  0.75338981  1
  Cu  Cu96  1  0.50214436  0.16329493  0.24464125  1
  Cu  Cu97  1  0.32923466  0.66774687  0.00265111  1
  Cu  Cu98  1  0.66629646  0.00285592  0.00474081  1
  Cu  Cu99  1  0.00021509  0.33848788  -0.01274133  1
  Cu  Cu100  1  0.16835761  0.17344141  0.75063227  1
  Cu  Cu101  1  0.33489270  0.32583569  -0.00419095  1
  Cu  Cu102  1  0.81878029  0.16851710  0.24130625  1
  Cu  Cu103  1  0.83186918  0.83213556  0.24337163  1
  Cu  Cu104  1  0.33857392  0.66797155  0.50212230  1
  Cu  Cu105  1  0.83398174  0.16970887  0.75125764  1
  Cu  Cu106  1  0.16575551  0.16321990  0.25079992  1
  Cu  Cu107  1  0.15904524  0.82569240  0.75327687  1
  Cu  Cu108  1  -0.00326745  0.01300277  0.49817398  1
  Cu  Cu109  1  -0.00066481  0.65934276  0.51312405  1
  Cu  Cu110  1  0.51187749  0.50518071  0.24951589  1
  Cu  Cu111  1  -0.01010666  0.66088016  -0.00340337  1
  Cu  Cu112  1  0.32387043  0.33817082  0.50755736  1
  Cu  Cu113  1  0.67348831  0.33442027  -0.00702991  1
  Cu  Cu114  1  0.50852962  0.16242270  0.75136333  1
  Se  Se115  1  0.08763059  0.08220934  0.05340839  1
  Se  Se116  1  0.08485905  0.09011072  0.55137982  1
  Se  Se117  1  0.07428603  0.40808218  0.06113474  1
  Se  Se118  1  0.07994776  0.41934535  0.56061240  1
  Se  Se119  1  0.07953921  0.73991951  0.04921040  1
  Se  Se120  1  0.08424641  0.74790948  0.56266145  1
  Se  Se121  1  0.42463019  0.08706649  0.05310207  1
  Se  Se122  1  0.41013826  0.07427463  0.56436575  1
  Se  Se123  1  0.41455029  0.41305044  0.05150764  1
  Se  Se124  1  0.41704700  0.40926662  0.56274114  1
  Se  Se125  1  0.41665386  0.75041844  0.05172888  1
  Se  Se126  1  0.42529259  0.75585965  0.54484074  1
  Se  Se127  1  0.75373457  0.09137867  0.04988549  1
  Se  Se128  1  0.74350222  0.08209005  0.55108538  1
  Se  Se129  1  0.75080122  0.42304394  0.04799126  1
  Se  Se130  1  0.74533661  0.42414901  0.56761638  1
  Se  Se131  1  0.74716335  0.75467508  0.05368418  1
  Se  Se132  1  0.75948915  0.73576629  0.57091459  1
  Se  Se133  1  0.25010632  0.24631707  0.05130562  1
  Se  Se134  1  0.24029082  0.25228533  0.55814259  1
  Se  Se135  1  0.25544502  0.57936767  0.05980923  1
  Se  Se136  1  0.25318672  0.58225176  0.54952811  1
  Se  Se137  1  0.25258331  0.91834651  0.05416154  1
  Se  Se138  1  0.25738464  0.92132852  0.55948464  1
  Se  Se139  1  0.58515221  0.25503456  0.04511063  1
  Se  Se140  1  0.59198600  0.26203838  0.55962382  1
  Se  Se141  1  0.58878530  0.58479780  0.05728580  1
  Se  Se142  1  0.59955108  0.58502844  0.56538544  1
  Se  Se143  1  0.58267695  0.91727789  0.05594952  1
  Se  Se144  1  0.58980597  0.90853831  0.55253631  1
  Se  Se145  1  0.92027945  0.25376721  0.04474639  1
  Se  Se146  1  0.90750847  0.24840029  0.55705731  1
  Se  Se147  1  0.90784647  0.57543031  0.04859295  1
  Se  Se148  1  0.91197430  0.58157568  0.56602269  1
  Se  Se149  1  0.91489433  0.91615739  0.04801422  1
  Se  Se150  1  0.92165305  0.92810575  0.55825774  1
  Se  Se151  1  0.07630481  0.25166893  0.45240414  1
  Se  Se152  1  0.09016525  0.25435683  0.94181263  1
  Se  Se153  1  0.08277590  0.58433430  0.45187636  1
  Se  Se154  1  0.06404675  0.58006564  0.93242249  1
  Se  Se155  1  0.07170358  0.92751460  0.43736008  1
  Se  Se156  1  0.08597124  0.91306858  0.94868479  1
  Se  Se157  1  0.40592327  0.25850774  0.44704919  1
  Se  Se158  1  0.42747490  0.25221777  0.94364066  1
  Se  Se159  1  0.41593334  0.58556169  0.43984496  1
  Se  Se160  1  0.40487765  0.59109011  0.93658958  1
  Se  Se161  1  0.42032950  0.92050071  0.44227444  1
  Se  Se162  1  0.41770923  0.91511143  0.95120980  1
  Se  Se163  1  0.74580196  0.23571586  0.44452802  1
  Se  Se164  1  0.75684753  0.24784621  0.94186474  1
  Se  Se165  1  0.75686543  0.57783700  0.44890834  1
  Se  Se166  1  0.74356535  0.58335569  0.94122736  1
  Se  Se167  1  0.74440185  0.92164025  0.43467828  1
  Se  Se168  1  0.74889546  0.91731757  0.95133729  1
  Se  Se169  1  0.24814735  0.08763878  0.44848541  1
  Se  Se170  1  0.25240492  0.08534696  0.94910759  1
  Se  Se171  1  0.24376459  0.42188550  0.45232347  1
  Se  Se172  1  0.25381142  0.40942386  0.93860443  1
  Se  Se173  1  0.26199876  0.74573343  0.43574601  1
  Se  Se174  1  0.24041602  0.74842770  0.95216556  1
  Se  Se175  1  0.58052316  0.07963521  0.43692181  1
  Se  Se176  1  0.58715787  0.08649879  0.94696134  1
  Se  Se177  1  0.59184953  0.40648664  0.44072448  1
  Se  Se178  1  0.59992076  0.41410225  0.92747265  1
  Se  Se179  1  0.60007540  0.74875081  0.44679037  1
  Se  Se180  1  0.57827250  0.75459812  0.94980920  1
  Se  Se181  1  0.90567980  0.08830219  0.44670063  1
  Se  Se182  1  0.91905092  0.08486516  0.94814415  1
  Se  Se183  1  0.91096505  0.41634760  0.45504966  1
  Se  Se184  1  0.91563239  0.41932364  0.93361706  1
  Se  Se185  1  0.92516272  0.74383231  0.45034546  1
  Se  Se186  1  0.90819712  0.75052339  0.94778641  1
  Se  Se187  1  0.24112589  0.24420691  0.31471968  1
  Se  Se188  1  0.25772439  0.25122020  0.80332871  1
  Se  Se189  1  0.24764331  0.57925467  0.30779727  1
  Se  Se190  1  0.24171364  0.57663690  0.80781604  1
  Se  Se191  1  0.24236339  0.91602954  0.29924065  1
  Se  Se192  1  0.24188504  0.90504798  0.81024461  1
  Se  Se193  1  0.58214043  0.24928671  0.29832592  1
  Se  Se194  1  0.59114022  0.24873730  0.80258314  1
  Se  Se195  1  0.59401538  0.58679071  0.30419451  1
  Se  Se196  1  0.55787383  0.56607777  0.80558944  1
  Se  Se197  1  0.59680940  0.92778154  0.29869464  1
  Se  Se198  1  0.58950786  0.92301127  0.80651094  1
  Se  Se199  1  0.89803427  0.24372716  0.30621974  1
  Se  Se200  1  0.92010121  0.25116306  0.80343747  1
  Se  Se201  1  0.91325552  0.57242941  0.31186909  1
  Se  Se202  1  0.91190230  0.59318273  0.79511465  1
  Se  Se203  1  0.91217867  0.90914252  0.30679708  1
  Se  Se204  1  0.90350192  0.91068999  0.81788437  1
  Se  Se205  1  0.07779152  0.09183583  0.31148791  1
  Se  Se206  1  0.09171621  0.08946230  0.81165341  1
  Se  Se207  1  0.09079052  0.42738144  0.31206318  1
  Se  Se208  1  0.09681195  0.42978282  0.79384429  1
  Se  Se209  1  0.09968546  0.75994757  0.30234187  1
  Se  Se210  1  0.07745068  0.74593557  0.80829342  1
  Se  Se211  1  0.41381062  0.08490555  0.29827601  1
  Se  Se212  1  0.42829110  0.09065567  0.81757987  1
  Se  Se213  1  0.42876130  0.42550706  0.30855101  1
  Se  Se214  1  0.42318180  0.41746029  0.79456278  1
  Se  Se215  1  0.42902383  0.75386809  0.31133688  1
  Se  Se216  1  0.41807972  0.76283671  0.81014844  1
  Se  Se217  1  0.74314894  0.07796453  0.29395357  1
  Se  Se218  1  0.75276502  0.08218903  0.80274592  1
  Se  Se219  1  0.75209477  0.41077926  0.30732530  1
  Se  Se220  1  0.75512144  0.41851834  0.79242420  1
  Se  Se221  1  0.75824969  0.74573337  0.30213574  1
  Se  Se222  1  0.74060466  0.74736180  0.81252887  1
  Se  Se223  1  0.25025739  0.08364948  0.19687413  1
  Se  Se224  1  0.24315080  0.08447419  0.69324078  1
  Se  Se225  1  0.24008022  0.42104570  0.20040891  1
  Se  Se226  1  0.25575989  0.41205702  0.69912429  1
  Se  Se227  1  0.24952553  0.75412127  0.18326605  1
  Se  Se228  1  0.24032282  0.75359543  0.68827648  1
  Se  Se229  1  0.58646468  0.08425544  0.18935099  1
  Se  Se230  1  0.59005858  0.07987591  0.69659642  1
  Se  Se231  1  0.58922535  0.41427903  0.19829313  1
  Se  Se232  1  0.56847955  0.42870866  0.70847673  1
  Se  Se233  1  0.59185689  0.74525941  0.19987906  1
  Se  Se234  1  0.58101691  0.75196135  0.69946068  1
  Se  Se235  1  0.90733673  0.09346660  0.18362577  1
  Se  Se236  1  0.91229194  0.08956121  0.68798484  1
  Se  Se237  1  0.90934103  0.41593971  0.18901320  1
  Se  Se238  1  0.91082619  0.41514634  0.70521390  1
  Se  Se239  1  0.91394440  0.75247350  0.18509554  1
  Se  Se240  1  0.91526088  0.75735733  0.70630391  1
  Se  Se241  1  0.08638521  0.24583376  0.19314016  1
  Se  Se242  1  0.07931024  0.25273510  0.69981441  1
  Se  Se243  1  0.09066632  0.57015574  0.19632754  1
  Se  Se244  1  0.06696615  0.59331427  0.69842532  1
  Se  Se245  1  0.08811514  0.90623948  0.18890323  1
  Se  Se246  1  0.08295128  0.91281346  0.69581663  1
  Se  Se247  1  0.42431572  0.24779591  0.18389082  1
  Se  Se248  1  0.42171054  0.24215515  0.69818873  1
  Se  Se249  1  0.42881529  0.57672843  0.18665043  1
  Se  Se250  1  0.42109473  0.58537571  0.68151175  1
  Se  Se251  1  0.42237694  0.91416403  0.19915538  1
  Se  Se252  1  0.41972935  0.91445826  0.69225680  1
  Se  Se253  1  0.74263258  0.25710071  0.18748835  1
  Se  Se254  1  0.74855526  0.25046570  0.69730424  1
  Se  Se255  1  0.75350355  0.58256962  0.19614333  1
  Se  Se256  1  0.72444251  0.60627006  0.70436767  1
  Se  Se257  1  0.75054904  0.91829365  0.19250754  1
  Se  Se258  1  0.74726488  0.91607035  0.69913032  1
