# generated using pymatgen
data_In86Cu29Se144
_symmetry_space_group_name_H-M   'P 1'
_cell_length_a   17.58812640
_cell_length_b   17.58180352
_cell_length_c   23.43954360
_cell_angle_alpha   90.03764992
_cell_angle_beta   89.99917394
_cell_angle_gamma   90.01971534
_symmetry_Int_Tables_number   1
_chemical_formula_structural   In86Cu29Se144
_chemical_formula_sum   'In86 Cu29 Se144'
_cell_volume   7248.23110669
_cell_formula_units_Z   1
loop_
 _symmetry_equiv_pos_site_id
 _symmetry_equiv_pos_as_xyz
  1  'x, y, z'
loop_
 _atom_site_type_symbol
 _atom_site_label
 _atom_site_symmetry_multiplicity
 _atom_site_fract_x
 _atom_site_fract_y
 _atom_site_fract_z
 _atom_site_occupancy
  In  In0  1  0.00659136  0.17144243  0.12199915  1
  In  In1  1  -0.00363999  0.17433838  0.63536121  1
  In  In2  1  -0.01074080  0.49901831  0.11866777  1
  In  In3  1  -0.00260620  0.49845676  0.62427148  1
  In  In4  1  0.00142276  0.83879336  0.12400808  1
  In  In5  1  -0.00290344  0.82852578  0.62621747  1
  In  In6  1  0.34619433  0.16889415  0.12043873  1
  In  In7  1  0.32019574  0.16604102  0.62764248  1
  In  In8  1  0.31956399  0.51392720  0.13340015  1
  In  In9  1  0.35260595  0.52771251  0.59925534  1
  In  In10  1  0.33053356  0.82138383  0.13091866  1
  In  In11  1  0.33346726  0.82355249  0.62246446  1
  In  In12  1  0.66730919  0.18628758  0.11884993  1
  In  In13  1  0.67742244  0.16974282  0.62586029  1
  In  In14  1  0.67630547  0.50257389  0.13546340  1
  In  In15  1  0.67380243  0.50496956  0.63170767  1
  In  In16  1  0.67523504  0.81458417  0.13298479  1
  In  In17  1  0.65385948  0.81498483  0.61704474  1
  In  In18  1  0.16309717  -0.00947995  0.37792073  1
  In  In19  1  0.16168670  -0.01163574  0.86497983  1
  In  In20  1  0.17540322  0.34274244  0.36576517  1
  In  In21  1  0.16188965  0.35368388  0.87775801  1
  In  In22  1  0.17117978  0.66124949  0.38585919  1
  In  In23  1  0.16385826  0.66651985  0.86777670  1
  In  In24  1  0.48765175  -0.00941588  0.37587734  1
  In  In25  1  0.50246651  0.01032785  0.87505586  1
  In  In26  1  0.51577641  0.35442497  0.36620378  1
  In  In27  1  0.50262957  0.32823772  0.87651016  1
  In  In28  1  0.49646335  0.65784845  0.38271041  1
  In  In29  1  0.49847620  0.66123202  0.86646611  1
  In  In30  1  0.83181650  -0.01118224  0.37512376  1
  In  In31  1  0.83536048  -0.01633755  0.87787129  1
  In  In32  1  0.84363723  0.35153405  0.35871038  1
  In  In33  1  0.85163672  0.35570751  0.85729334  1
  In  In34  1  0.82813072  0.66565734  0.37605587  1
  In  In35  1  0.83831024  0.66262539  0.86968237  1
  In  In36  1  -0.01101484  0.17324535  0.37390008  1
  In  In37  1  -0.00348906  0.16302927  0.87043317  1
  In  In38  1  -0.00269591  0.49995791  0.37841984  1
  In  In39  1  -0.00359185  0.50869884  0.86685190  1
  In  In40  1  0.00379974  0.82607001  0.38607779  1
  In  In41  1  -0.00256419  0.82660857  0.86680330  1
  In  In42  1  0.32146199  0.17045164  0.37342699  1
  In  In43  1  0.34789174  0.16804521  0.87403386  1
  In  In44  1  0.33558470  0.50706017  0.37915121  1
  In  In45  1  0.32111075  0.50397607  0.87654231  1
  In  In46  1  0.34008740  0.81223283  0.39638116  1
  In  In47  1  0.32604617  0.82594006  0.86474335  1
  In  In48  1  0.65971108  0.17835786  0.37421110  1
  In  In49  1  0.65587068  0.17318223  0.87794623  1
  In  In50  1  0.66880577  0.50150261  0.37655654  1
  In  In51  1  0.68880504  0.51921501  0.85415187  1
  In  In52  1  0.68643642  0.80498852  0.38546561  1
  In  In53  1  0.67980890  0.82925300  0.87570217  1
  In  In54  1  0.15871215  -0.00597339  0.12127411  1
  In  In55  1  0.17454063  -0.01035041  0.63661414  1
  In  In56  1  0.15115126  0.35211798  0.13316448  1
  In  In57  1  0.15739579  0.34543362  0.62649825  1
  In  In58  1  0.18543776  0.65994309  0.12843517  1
  In  In59  1  0.16578668  0.66135428  0.62006612  1
  In  In60  1  0.48832188  0.00428070  0.12023020  1
  In  In61  1  0.50333487  -0.02368584  0.62570067  1
  In  In62  1  0.50709298  0.33492600  0.12624229  1
  In  In63  1  0.49945560  0.35072360  0.62125424  1
  In  In64  1  0.49872769  0.66494382  0.13509492  1
  In  In65  1  0.50187068  0.66801487  0.62747148  1
  In  In66  1  0.83895292  -0.01732573  0.12015837  1
  In  In67  1  0.84549131  -0.00550435  0.62989184  1
  In  In68  1  0.82656112  0.35235357  0.13470782  1
  In  In69  1  0.81875758  0.35494114  0.64610668  1
  In  In70  1  0.83152015  0.66322061  0.12073065  1
  In  In71  1  0.83123554  0.65846395  0.62923864  1
  In  In72  1  -0.00199225  0.66427775  0.25736610  1
  In  In73  1  0.83434491  0.16952596  0.50423375  1
  In  In74  1  0.66478833  0.00194658  0.24917098  1
  In  In75  1  0.17036492  0.16789290  0.00389087  1
  In  In76  1  0.49669237  0.16412955  0.49501449  1
  In  In77  1  0.32975260  -0.00118690  0.24896889  1
  In  In78  1  0.66618315  -0.00162762  0.75330429  1
  In  In79  1  0.82964159  0.17317589  -0.00657214  1
  In  In80  1  0.50428854  0.49767114  -0.00085912  1
  In  In81  1  0.16327793  0.82512603  -0.00268567  1
  In  In82  1  0.16212917  0.16855394  0.50499205  1
  In  In83  1  0.50390817  0.83347327  0.00860699  1
  In  In84  1  0.32758237  0.33783575  0.74876959  1
  In  In85  1  0.00385087  0.00043575  0.24595770  1
  Cu  Cu86  1  0.00259332  -0.00827805  0.50733067  1
  Cu  Cu87  1  0.66898381  0.65837798  0.50325093  1
  Cu  Cu88  1  0.16750685  0.16322496  0.75334440  1
  Cu  Cu89  1  0.33358480  0.34472580  0.49077865  1
  Cu  Cu90  1  0.33349003  -0.01056676  0.50779777  1
  Cu  Cu91  1  -0.00385166  0.34079717  -0.00184863  1
  Cu  Cu92  1  0.49526351  0.16381413  0.75154216  1
  Cu  Cu93  1  0.49515096  0.50261012  0.25470087  1
  Cu  Cu94  1  0.66976138  -0.01539402  0.49622807  1
  Cu  Cu95  1  0.50015208  0.50138542  0.74310379  1
  Cu  Cu96  1  0.33496196  -0.00052271  -0.00572235  1
  Cu  Cu97  1  0.66681099  0.00181011  -0.00312150  1
  Cu  Cu98  1  -0.00550344  0.66339817  0.50471627  1
  Cu  Cu99  1  0.83160565  0.17478809  0.24702667  1
  Cu  Cu100  1  0.16845923  0.50504461  0.74542675  1
  Cu  Cu101  1  0.67469763  0.66522817  -0.00147546  1
  Cu  Cu102  1  0.49495822  0.82673158  0.74523062  1
  Cu  Cu103  1  0.66738517  0.34380252  -0.00063916  1
  Cu  Cu104  1  0.33274515  0.33786331  -0.00089907  1
  Cu  Cu105  1  -0.00231359  0.34047469  0.50050988  1
  Cu  Cu106  1  -0.00199511  0.66430585  -0.00715578  1
  Cu  Cu107  1  0.16669466  0.17559545  0.24678188  1
  Cu  Cu108  1  0.16450063  0.50226754  0.25726925  1
  Cu  Cu109  1  0.16335246  0.82750512  0.74321039  1
  Cu  Cu110  1  0.83235592  0.82850568  0.74905990  1
  Cu  Cu111  1  0.50359007  0.82570070  0.26208628  1
  Cu  Cu112  1  0.49884851  0.17959942  0.24663538  1
  Cu  Cu113  1  0.83388198  0.16900298  0.75215348  1
  Cu  Cu114  1  0.66984948  0.34173467  0.50069041  1
  Se  Se115  1  0.07154582  0.07236367  0.05084973  1
  Se  Se116  1  0.07617947  0.07804820  0.56669587  1
  Se  Se117  1  0.08173939  0.42233104  0.05134310  1
  Se  Se118  1  0.08526169  0.42282117  0.55037633  1
  Se  Se119  1  0.07785028  0.73500514  0.06114870  1
  Se  Se120  1  0.07876623  0.74845645  0.55553338  1
  Se  Se121  1  0.41745574  0.08611705  0.04528522  1
  Se  Se122  1  0.41208397  0.07799546  0.56302433  1
  Se  Se123  1  0.40998698  0.41770941  0.06250527  1
  Se  Se124  1  0.42354890  0.42037558  0.54357475  1
  Se  Se125  1  0.41021770  0.73792366  0.05801865  1
  Se  Se126  1  0.43006361  0.75591964  0.55663399  1
  Se  Se127  1  0.74665938  0.07997923  0.06070601  1
  Se  Se128  1  0.74370883  0.06914801  0.55755464  1
  Se  Se129  1  0.74800555  0.42343595  0.05736235  1
  Se  Se130  1  0.75307813  0.41813088  0.55993699  1
  Se  Se131  1  0.75359836  0.75365908  0.05151152  1
  Se  Se132  1  0.75345516  0.74310724  0.55650074  1
  Se  Se133  1  0.25201890  0.26353280  0.06417632  1
  Se  Se134  1  0.25842501  0.26469236  0.55538151  1
  Se  Se135  1  0.24920388  0.57994027  0.05079367  1
  Se  Se136  1  0.24407527  0.58717792  0.54308231  1
  Se  Se137  1  0.25998805  0.91921358  0.05679244  1
  Se  Se138  1  0.24438319  0.91204717  0.55914785  1
  Se  Se139  1  0.58104605  0.25794774  0.04717713  1
  Se  Se140  1  0.59005365  0.25322863  0.55570613  1
  Se  Se141  1  0.58967436  0.59165074  0.06012761  1
  Se  Se142  1  0.58657052  0.58021887  0.56174153  1
  Se  Se143  1  0.59616113  0.92388704  0.06725858  1
  Se  Se144  1  0.58129611  0.90731234  0.54843777  1
  Se  Se145  1  0.91718877  0.25985641  0.05876026  1
  Se  Se146  1  0.91993845  0.26182947  0.56332470  1
  Se  Se147  1  0.91259069  0.58420732  0.04865007  1
  Se  Se148  1  0.91131174  0.57790731  0.55579860  1
  Se  Se149  1  0.92412306  0.91280546  0.04956528  1
  Se  Se150  1  0.91245140  0.91067590  0.55492354  1
  Se  Se151  1  0.07699468  0.25767071  0.44058995  1
  Se  Se152  1  0.07703504  0.25562725  0.94219351  1
  Se  Se153  1  0.07680449  0.58202955  0.44812132  1
  Se  Se154  1  0.08310381  0.58474523  0.93812118  1
  Se  Se155  1  0.08708754  0.91335724  0.45183451  1
  Se  Se156  1  0.07559385  0.91885428  0.94071494  1
  Se  Se157  1  0.41339716  0.25850137  0.43405170  1
  Se  Se158  1  0.41652223  0.25371784  0.94813494  1
  Se  Se159  1  0.40505777  0.59064260  0.45430574  1
  Se  Se160  1  0.41304831  0.58938570  0.94222428  1
  Se  Se161  1  0.42066090  0.91238819  0.45338800  1
  Se  Se162  1  0.41475889  0.91418678  0.93799861  1
  Se  Se163  1  0.74918578  0.25961905  0.44085009  1
  Se  Se164  1  0.74750382  0.26838502  0.93425418  1
  Se  Se165  1  0.75363508  0.57917493  0.44760455  1
  Se  Se166  1  0.75312888  0.58199369  0.94146014  1
  Se  Se167  1  0.75991196  0.90562103  0.44745131  1
  Se  Se168  1  0.74931833  0.91290812  0.95074659  1
  Se  Se169  1  0.25708973  0.07460830  0.44779126  1
  Se  Se170  1  0.25164974  0.07701959  0.93583073  1
  Se  Se171  1  0.24216970  0.42287397  0.44290366  1
  Se  Se172  1  0.24747735  0.42260649  0.95115562  1
  Se  Se173  1  0.23280585  0.75663879  0.45730333  1
  Se  Se174  1  0.25933790  0.73920711  0.94176851  1
  Se  Se175  1  0.59273141  0.07148389  0.43874276  1
  Se  Se176  1  0.58160729  0.08658368  0.94928224  1
  Se  Se177  1  0.58248178  0.42275029  0.44930712  1
  Se  Se178  1  0.59575251  0.42238056  0.93167662  1
  Se  Se179  1  0.58494990  0.74218510  0.44935970  1
  Se  Se180  1  0.58700395  0.74270027  0.94184028  1
  Se  Se181  1  0.92491598  0.07345866  0.44514142  1
  Se  Se182  1  0.92111777  0.07544653  0.94352193  1
  Se  Se183  1  0.90960144  0.41575343  0.44493642  1
  Se  Se184  1  0.91738762  0.42443178  0.94094571  1
  Se  Se185  1  0.91271636  0.74482648  0.44723008  1
  Se  Se186  1  0.91650581  0.74913992  0.93971842  1
  Se  Se187  1  0.25490354  0.25406336  0.29842238  1
  Se  Se188  1  0.24281473  0.24777391  0.81534258  1
  Se  Se189  1  0.24796458  0.58617148  0.30921353  1
  Se  Se190  1  0.25300593  0.58557831  0.80052587  1
  Se  Se191  1  0.25610319  0.90872759  0.31655301  1
  Se  Se192  1  0.24848828  0.91219375  0.79655229  1
  Se  Se193  1  0.58644502  0.25728928  0.29986490  1
  Se  Se194  1  0.57887152  0.24870015  0.80171370  1
  Se  Se195  1  0.58015100  0.58350516  0.30938730  1
  Se  Se196  1  0.58341654  0.58706503  0.79530670  1
  Se  Se197  1  0.58532023  0.91069553  0.31580118  1
  Se  Se198  1  0.57420052  0.90473760  0.81089409  1
  Se  Se199  1  0.92109326  0.25354380  0.29793364  1
  Se  Se200  1  0.92361976  0.25077114  0.80063986  1
  Se  Se201  1  0.90266568  0.56973076  0.30569584  1
  Se  Se202  1  0.89657709  0.56706656  0.79562555  1
  Se  Se203  1  0.92026912  0.90804525  0.30823997  1
  Se  Se204  1  0.91460020  0.91547704  0.80042081  1
  Se  Se205  1  0.09230684  0.09307191  0.30995387  1
  Se  Se206  1  0.08047427  0.08022250  0.80309880  1
  Se  Se207  1  0.07715658  0.41832224  0.30560395  1
  Se  Se208  1  0.08481318  0.42255115  0.80048853  1
  Se  Se209  1  0.09166036  0.75368662  0.31301400  1
  Se  Se210  1  0.07965490  0.74491101  0.79800551  1
  Se  Se211  1  0.42389780  0.09371479  0.30641707  1
  Se  Se212  1  0.41382972  0.07726702  0.80144868  1
  Se  Se213  1  0.40981445  0.41901422  0.30666050  1
  Se  Se214  1  0.42180470  0.42469200  0.80931453  1
  Se  Se215  1  0.41558103  0.74782064  0.31415754  1
  Se  Se216  1  0.41268856  0.74313882  0.79987082  1
  Se  Se217  1  0.75871002  0.09297399  0.31062338  1
  Se  Se218  1  0.75572980  0.08890695  0.81517455  1
  Se  Se219  1  0.73106814  0.40685750  0.30418275  1
  Se  Se220  1  0.73232854  0.39771332  0.80260186  1
  Se  Se221  1  0.75463107  0.74629292  0.30028048  1
  Se  Se222  1  0.74897197  0.74580218  0.80235849  1
  Se  Se223  1  0.24096507  0.09146058  0.18558645  1
  Se  Se224  1  0.25348143  0.08175594  0.70204962  1
  Se  Se225  1  0.24754020  0.41950985  0.20056696  1
  Se  Se226  1  0.25455515  0.43271472  0.68324866  1
  Se  Se227  1  0.24940706  0.74894815  0.20208420  1
  Se  Se228  1  0.24788986  0.74398357  0.69162221  1
  Se  Se229  1  0.57510813  0.09355971  0.18763288  1
  Se  Se230  1  0.57656274  0.08632041  0.68805154  1
  Se  Se231  1  0.57918136  0.42420914  0.19582280  1
  Se  Se232  1  0.58510843  0.41525841  0.69545860  1
  Se  Se233  1  0.58344659  0.74703578  0.20237512  1
  Se  Se234  1  0.58769610  0.74516520  0.70029201  1
  Se  Se235  1  0.90720045  0.08971494  0.18688888  1
  Se  Se236  1  0.91578984  0.08375978  0.69977240  1
  Se  Se237  1  0.92717108  0.41722596  0.19725104  1
  Se  Se238  1  0.94320414  0.39463953  0.69315553  1
  Se  Se239  1  0.91607280  0.75446515  0.19056239  1
  Se  Se240  1  0.91569270  0.74552062  0.69567968  1
  Se  Se241  1  0.07715832  0.25359918  0.19599803  1
  Se  Se242  1  0.09389770  0.25037612  0.69644270  1
  Se  Se243  1  0.08650902  0.57864446  0.19145973  1
  Se  Se244  1  0.08100628  0.58431828  0.69215238  1
  Se  Se245  1  0.10026869  0.90247573  0.19807498  1
  Se  Se246  1  0.07620436  0.91507382  0.69729494  1
  Se  Se247  1  0.41314663  0.25763176  0.19253306  1
  Se  Se248  1  0.42161750  0.24752797  0.68794125  1
  Se  Se249  1  0.41107375  0.58685678  0.20197839  1
  Se  Se250  1  0.41247433  0.58199286  0.69168933  1
  Se  Se251  1  0.42977899  0.90650618  0.19565443  1
  Se  Se252  1  0.41105821  0.91226492  0.69565267  1
  Se  Se253  1  0.74582126  0.25586582  0.19497398  1
  Se  Se254  1  0.74512742  0.24911079  0.70215735  1
  Se  Se255  1  0.74071250  0.60554400  0.19652576  1
  Se  Se256  1  0.77084442  0.56535001  0.70448555  1
  Se  Se257  1  0.76051551  0.90904816  0.19867234  1
  Se  Se258  1  0.74782369  0.90748454  0.68888938  1
