# generated using pymatgen
data_In86Cu29Se144
_symmetry_space_group_name_H-M   'P 1'
_cell_length_a   17.59111599
_cell_length_b   17.58179808
_cell_length_c   23.45336197
_cell_angle_alpha   89.99781667
_cell_angle_beta   90.00715916
_cell_angle_gamma   90.01396690
_symmetry_Int_Tables_number   1
_chemical_formula_structural   In86Cu29Se144
_chemical_formula_sum   'In86 Cu29 Se144'
_cell_volume   7253.73640994
_cell_formula_units_Z   1
loop_
 _symmetry_equiv_pos_site_id
 _symmetry_equiv_pos_as_xyz
  1  'x, y, z'
loop_
 _atom_site_type_symbol
 _atom_site_label
 _atom_site_symmetry_multiplicity
 _atom_site_fract_x
 _atom_site_fract_y
 _atom_site_fract_z
 _atom_site_occupancy
  In  In0  1  -0.00758481  0.17208994  0.12938783  1
  In  In1  1  -0.01645457  0.16430350  0.61671078  1
  In  In2  1  -0.00147457  0.50201688  0.13574223  1
  In  In3  1  0.00729771  0.49596315  0.62149143  1
  In  In4  1  0.00416161  0.83405792  0.12928518  1
  In  In5  1  0.01964269  0.84958118  0.60691443  1
  In  In6  1  0.35076988  0.16447108  0.12248743  1
  In  In7  1  0.33438411  0.15952663  0.64149584  1
  In  In8  1  0.33932141  0.49740246  0.13066121  1
  In  In9  1  0.34318595  0.49671077  0.63013026  1
  In  In10  1  0.32430772  0.82747974  0.11891161  1
  In  In11  1  0.33177576  0.83472174  0.62903499  1
  In  In12  1  0.65418923  0.15629293  0.11306467  1
  In  In13  1  0.66872652  0.14955863  0.62817720  1
  In  In14  1  0.65669347  0.50542420  0.12264626  1
  In  In15  1  0.66465189  0.51798921  0.62132739  1
  In  In16  1  0.67218383  0.84089929  0.12136709  1
  In  In17  1  0.67528490  0.84665021  0.61922530  1
  In  In18  1  0.15685074  -0.00064543  0.37627502  1
  In  In19  1  0.15558033  -0.00232944  0.86276302  1
  In  In20  1  0.16818845  0.32634644  0.36402028  1
  In  In21  1  0.17663700  0.31886695  0.86963269  1
  In  In22  1  0.17245364  0.67161199  0.37174647  1
  In  In23  1  0.17481301  0.66682370  0.87566983  1
  In  In24  1  0.49726882  -0.03260329  0.36593241  1
  In  In25  1  0.50080926  -0.00211853  0.87415186  1
  In  In26  1  0.49996679  0.34512039  0.37675406  1
  In  In27  1  0.49170845  0.33993944  0.88737045  1
  In  In28  1  0.48608942  0.68035568  0.37779178  1
  In  In29  1  0.48727322  0.67635155  0.88424355  1
  In  In30  1  0.83239969  -0.00466540  0.37435524  1
  In  In31  1  0.83185528  -0.00059475  0.87669750  1
  In  In32  1  0.83678933  0.31539656  0.37790699  1
  In  In33  1  0.81815163  0.32816040  0.88322190  1
  In  In34  1  0.85131133  0.67329112  0.37228540  1
  In  In35  1  0.84100004  0.68636629  0.88003114  1
  In  In36  1  -0.00352494  0.15410582  0.36750554  1
  In  In37  1  0.00148240  0.14866225  0.87539037  1
  In  In38  1  0.00518351  0.49997040  0.36549848  1
  In  In39  1  0.00908703  0.50965838  0.87638198  1
  In  In40  1  -0.00284007  0.83131416  0.37849623  1
  In  In41  1  -0.01349274  0.84513497  0.88834319  1
  In  In42  1  0.32334388  0.15929220  0.37289561  1
  In  In43  1  0.33471797  0.17360871  0.86284855  1
  In  In44  1  0.33894131  0.50964667  0.37038228  1
  In  In45  1  0.34016958  0.50572319  0.86901044  1
  In  In46  1  0.34745116  0.82225323  0.38811807  1
  In  In47  1  0.33370874  0.83458972  0.87391289  1
  In  In48  1  0.67914658  0.15898946  0.37808272  1
  In  In49  1  0.67973719  0.15804472  0.88698518  1
  In  In50  1  0.65558486  0.49512523  0.37757607  1
  In  In51  1  0.65541863  0.48799636  0.88410633  1
  In  In52  1  0.65480408  0.84771168  0.37600368  1
  In  In53  1  0.65628685  0.84384255  0.88178403  1
  In  In54  1  0.16579494  -0.02009578  0.12268111  1
  In  In55  1  0.17454681  -0.01167189  0.63863658  1
  In  In56  1  0.16573157  0.33791579  0.13194859  1
  In  In57  1  0.17383419  0.34110000  0.62282515  1
  In  In58  1  0.15875697  0.68091579  0.13439384  1
  In  In59  1  0.17452016  0.70053605  0.61538007  1
  In  In60  1  0.50641961  0.00389826  0.11762125  1
  In  In61  1  0.50130079  -0.00456470  0.63202988  1
  In  In62  1  0.49276030  0.32208419  0.11703186  1
  In  In63  1  0.48730825  0.33441174  0.62525800  1
  In  In64  1  0.49325745  0.66483872  0.12065371  1
  In  In65  1  0.49028360  0.66376699  0.62000563  1
  In  In66  1  0.83497877  -0.00144868  0.12712674  1
  In  In67  1  0.83435218  0.00100183  0.62432210  1
  In  In68  1  0.84186126  0.33147955  0.12630527  1
  In  In69  1  0.84534428  0.32010550  0.62071796  1
  In  In70  1  0.83839490  0.68097372  0.12479438  1
  In  In71  1  0.83461247  0.67843452  0.61709674  1
  In  In72  1  0.33222885  -0.00126540  0.24748286  1
  In  In73  1  0.00817983  0.67539864  0.73865862  1
  In  In74  1  0.66858791  0.32956686  0.24988981  1
  In  In75  1  0.65820719  0.67307970  0.75300296  1
  In  In76  1  0.16822493  0.50084861  0.49669509  1
  In  In77  1  0.82616664  0.50159313  0.49091716  1
  In  In78  1  0.50083130  0.15934749  0.50903511  1
  In  In79  1  0.82722837  0.50411175  0.00902098  1
  In  In80  1  0.16435422  0.16071448  0.49663841  1
  In  In81  1  0.16732671  0.50919656  -0.00204146  1
  In  In82  1  0.66914972  0.67003849  0.24364727  1
  In  In83  1  0.00787014  0.32207155  0.74876447  1
  In  In84  1  0.16732332  0.15988937  -0.00718998  1
  In  In85  1  0.65950280  0.33019951  0.75677835  1
  Cu  Cu86  1  0.49244143  0.50283208  0.25034227  1
  Cu  Cu87  1  0.66595353  0.33523937  0.49866547  1
  Cu  Cu88  1  0.33295517  0.67010739  0.49968441  1
  Cu  Cu89  1  0.50447826  0.16561511  0.24354072  1
  Cu  Cu90  1  0.83491909  0.15791135  0.75279744  1
  Cu  Cu91  1  0.67166154  -0.00608180  -0.00064405  1
  Cu  Cu92  1  0.50321443  0.16192799  0.75378146  1
  Cu  Cu93  1  0.16667941  0.16728430  0.24696346  1
  Cu  Cu94  1  0.33643197  0.33194148  0.50110568  1
  Cu  Cu95  1  -0.00759868  0.33472607  0.00279474  1
  Cu  Cu96  1  0.83834964  0.83670389  0.25031416  1
  Cu  Cu97  1  0.33443648  0.66721912  -0.00096608  1
  Cu  Cu98  1  0.16743393  0.83177415  0.75114948  1
  Cu  Cu99  1  0.66357265  0.66715772  0.00383561  1
  Cu  Cu100  1  0.83936018  0.49545037  0.25107433  1
  Cu  Cu101  1  0.83515440  0.84811788  0.74970910  1
  Cu  Cu102  1  0.66891082  0.00211151  0.49978630  1
  Cu  Cu103  1  0.17311712  0.50235233  0.25060651  1
  Cu  Cu104  1  0.33981577  -0.00365387  -0.00330012  1
  Cu  Cu105  1  -0.00650679  -0.00061548  0.49661120  1
  Cu  Cu106  1  0.49606824  0.83465109  0.75241431  1
  Cu  Cu107  1  0.17846155  0.50017772  0.74753615  1
  Cu  Cu108  1  0.49487448  0.49860742  0.75268244  1
  Cu  Cu109  1  -0.00436493  -0.00395454  0.00206379  1
  Cu  Cu110  1  0.16542283  0.83341400  0.25264506  1
  Cu  Cu111  1  0.65627744  0.67523091  0.49804959  1
  Cu  Cu112  1  0.33354430  0.33054957  0.00037273  1
  Cu  Cu113  1  0.83500652  0.15957804  0.25079550  1
  Cu  Cu114  1  0.83913387  0.50515989  0.75095705  1
  Se  Se115  1  0.07937397  0.07792617  0.06037657  1
  Se  Se116  1  0.07874993  0.07156168  0.56013676  1
  Se  Se117  1  0.07652679  0.41527668  0.05763900  1
  Se  Se118  1  0.07592610  0.40241856  0.54988048  1
  Se  Se119  1  0.09814763  0.76711766  0.05914538  1
  Se  Se120  1  0.06144213  0.72985747  0.55162430  1
  Se  Se121  1  0.42112946  0.08405062  0.04743116  1
  Se  Se122  1  0.40369004  0.07408814  0.56412927  1
  Se  Se123  1  0.41194547  0.41638523  0.05530271  1
  Se  Se124  1  0.41718214  0.41979654  0.55199604  1
  Se  Se125  1  0.41700901  0.75265509  0.05128092  1
  Se  Se126  1  0.41370863  0.75543719  0.55508904  1
  Se  Se127  1  0.75259924  0.07808176  0.05465440  1
  Se  Se128  1  0.75305418  0.08534289  0.55259244  1
  Se  Se129  1  0.74003224  0.40733375  0.06284716  1
  Se  Se130  1  0.74567242  0.41296943  0.56310637  1
  Se  Se131  1  0.74968885  0.74971483  0.05391118  1
  Se  Se132  1  0.74517764  0.75301841  0.55052623  1
  Se  Se133  1  0.24962734  0.25221452  0.05915654  1
  Se  Se134  1  0.25992494  0.24779703  0.55900116  1
  Se  Se135  1  0.25475856  0.59148003  0.06373824  1
  Se  Se136  1  0.25510529  0.58840390  0.56174842  1
  Se  Se137  1  0.25122008  0.91579733  0.04705625  1
  Se  Se138  1  0.22867291  0.89678206  0.56337935  1
  Se  Se139  1  0.58261902  0.25147171  0.04967453  1
  Se  Se140  1  0.59207934  0.25584166  0.56527761  1
  Se  Se141  1  0.57703343  0.58221288  0.05084333  1
  Se  Se142  1  0.57788677  0.58619752  0.54965904  1
  Se  Se143  1  0.58317375  0.91308682  0.05042321  1
  Se  Se144  1  0.58167970  0.92367805  0.55509519  1
  Se  Se145  1  0.91356392  0.24618323  0.05279596  1
  Se  Se146  1  0.91767421  0.25076659  0.54277903  1
  Se  Se147  1  0.92769162  0.59045382  0.06021558  1
  Se  Se148  1  0.91928467  0.58201842  0.55641519  1
  Se  Se149  1  0.91706680  0.91306016  0.05923475  1
  Se  Se150  1  0.91012981  0.91613879  0.55185017  1
  Se  Se151  1  0.07860123  0.25103339  0.43538884  1
  Se  Se152  1  0.07381875  0.25858268  0.94018431  1
  Se  Se153  1  0.07688808  0.58908149  0.43917200  1
  Se  Se154  1  0.07233012  0.60438766  0.94797912  1
  Se  Se155  1  0.08135622  0.91588925  0.44766555  1
  Se  Se156  1  0.08670333  0.92496293  0.94472441  1
  Se  Se157  1  0.41392260  0.24804139  0.44103792  1
  Se  Se158  1  0.40848387  0.24258166  0.94446657  1
  Se  Se159  1  0.41585287  0.58531996  0.44630736  1
  Se  Se160  1  0.41491759  0.57749353  0.94801368  1
  Se  Se161  1  0.41353493  0.92628647  0.44881529  1
  Se  Se162  1  0.42183164  0.91109475  0.94356884  1
  Se  Se163  1  0.74803659  0.24789885  0.45023433  1
  Se  Se164  1  0.74837726  0.24939045  0.95696769  1
  Se  Se165  1  0.73724368  0.59806633  0.43450192  1
  Se  Se166  1  0.74407160  0.59146727  0.93834252  1
  Se  Se167  1  0.74869967  0.91552345  0.44547008  1
  Se  Se168  1  0.75622522  0.91053631  0.94655876  1
  Se  Se169  1  0.25957346  0.06613494  0.44605593  1
  Se  Se170  1  0.25867911  0.07357293  0.93339452  1
  Se  Se171  1  0.25665563  0.40743128  0.43730931  1
  Se  Se172  1  0.25235315  0.41041231  0.94052490  1
  Se  Se173  1  0.24524728  0.75102170  0.44851126  1
  Se  Se174  1  0.25241056  0.75064280  0.94520643  1
  Se  Se175  1  0.58199242  0.07515013  0.43879240  1
  Se  Se176  1  0.58539499  0.07585972  0.94622201  1
  Se  Se177  1  0.57851664  0.41931205  0.45285921  1
  Se  Se178  1  0.58379499  0.40848953  0.95683924  1
  Se  Se179  1  0.57576906  0.75958694  0.44352222  1
  Se  Se180  1  0.58242817  0.75047510  0.94757594  1
  Se  Se181  1  0.91307821  0.08432977  0.44264543  1
  Se  Se182  1  0.91481269  0.08182208  0.94839475  1
  Se  Se183  1  0.92256639  0.41319549  0.43713040  1
  Se  Se184  1  0.92009654  0.41941406  0.94002310  1
  Se  Se185  1  0.91261021  0.75388151  0.45000665  1
  Se  Se186  1  0.91913111  0.75111055  0.95671826  1
  Se  Se187  1  0.25649484  0.24511230  0.29854274  1
  Se  Se188  1  0.24608048  0.24615433  0.79236323  1
  Se  Se189  1  0.25425106  0.58911342  0.30253488  1
  Se  Se190  1  0.25344920  0.58764287  0.80337403  1
  Se  Se191  1  0.24782509  0.91174722  0.31296356  1
  Se  Se192  1  0.25077255  0.91590384  0.80346103  1
  Se  Se193  1  0.57825420  0.24251558  0.31285033  1
  Se  Se194  1  0.57685130  0.24065907  0.81979497  1
  Se  Se195  1  0.57733236  0.58237346  0.30743493  1
  Se  Se196  1  0.57545778  0.57714847  0.81373220  1
  Se  Se197  1  0.59181384  0.91860204  0.29197098  1
  Se  Se198  1  0.58441610  0.91626386  0.80243571  1
  Se  Se199  1  0.91743195  0.24689337  0.30154087  1
  Se  Se200  1  0.90738424  0.24656203  0.81226186  1
  Se  Se201  1  0.92003007  0.58482321  0.30026959  1
  Se  Se202  1  0.91657899  0.58906887  0.80770272  1
  Se  Se203  1  0.92127217  0.91769695  0.30649767  1
  Se  Se204  1  0.92176482  0.92234491  0.80726322  1
  Se  Se205  1  0.08739370  0.07974466  0.29945915  1
  Se  Se206  1  0.08864736  0.09701316  0.79802626  1
  Se  Se207  1  0.08776349  0.41532612  0.29932936  1
  Se  Se208  1  0.09241658  0.42423287  0.80681116  1
  Se  Se209  1  0.08149568  0.75099665  0.30707177  1
  Se  Se210  1  0.08315955  0.75752649  0.81353841  1
  Se  Se211  1  0.42692009  0.08610393  0.30883751  1
  Se  Se212  1  0.41684380  0.07836564  0.80382623  1
  Se  Se213  1  0.41414639  0.41480132  0.30427073  1
  Se  Se214  1  0.41741920  0.40983821  0.80631249  1
  Se  Se215  1  0.41575306  0.76112173  0.30324028  1
  Se  Se216  1  0.41517877  0.74766797  0.80424282  1
  Se  Se217  1  0.74914919  0.07805154  0.30302282  1
  Se  Se218  1  0.74711627  0.08118439  0.80695047  1
  Se  Se219  1  0.75708084  0.42110849  0.31245374  1
  Se  Se220  1  0.75584375  0.42744760  0.80880092  1
  Se  Se221  1  0.75461786  0.75633846  0.30973883  1
  Se  Se222  1  0.75555536  0.76270517  0.80683521  1
  Se  Se223  1  0.24410005  0.08854464  0.18285064  1
  Se  Se224  1  0.24502799  0.08179522  0.70467521  1
  Se  Se225  1  0.25420844  0.41554025  0.19816599  1
  Se  Se226  1  0.25779470  0.41188380  0.69607822  1
  Se  Se227  1  0.25401735  0.75403073  0.20011926  1
  Se  Se228  1  0.25236070  0.74701126  0.70067288  1
  Se  Se229  1  0.58633473  0.08020267  0.19328744  1
  Se  Se230  1  0.58566558  0.07853291  0.70073874  1
  Se  Se231  1  0.57438177  0.42032989  0.19310550  1
  Se  Se232  1  0.58154190  0.42707415  0.69111855  1
  Se  Se233  1  0.57714505  0.75731744  0.18682639  1
  Se  Se234  1  0.57608937  0.75974911  0.68650627  1
  Se  Se235  1  0.92089298  0.07892221  0.19680854  1
  Se  Se236  1  0.91877111  0.08213958  0.69493800  1
  Se  Se237  1  0.92075282  0.40896854  0.19966631  1
  Se  Se238  1  0.91380340  0.41984806  0.69310835  1
  Se  Se239  1  0.92100356  0.74987440  0.19978274  1
  Se  Se240  1  0.91118084  0.76653350  0.68764970  1
  Se  Se241  1  0.08168744  0.25156110  0.19574422  1
  Se  Se242  1  0.08933015  0.24077880  0.67918245  1
  Se  Se243  1  0.08592285  0.58482274  0.19936565  1
  Se  Se244  1  0.09936683  0.57798765  0.68541042  1
  Se  Se245  1  0.08295331  0.91945572  0.20147685  1
  Se  Se246  1  0.07585233  0.90923851  0.69855937  1
  Se  Se247  1  0.41760809  0.25113577  0.19715542  1
  Se  Se248  1  0.42324303  0.24903916  0.70033741  1
  Se  Se249  1  0.41436995  0.59052771  0.19703600  1
  Se  Se250  1  0.41813795  0.58701341  0.69847578  1
  Se  Se251  1  0.41888411  0.91412238  0.18311316  1
  Se  Se252  1  0.41196172  0.91827475  0.69950587  1
  Se  Se253  1  0.75337738  0.23794354  0.18891894  1
  Se  Se254  1  0.75640458  0.24577457  0.69565734  1
  Se  Se255  1  0.76093171  0.57315043  0.18847755  1
  Se  Se256  1  0.75927240  0.58730458  0.69398172  1
  Se  Se257  1  0.75152363  0.91544703  0.19667186  1
  Se  Se258  1  0.74669066  0.92533594  0.69619494  1
