# generated using pymatgen
data_In86Cu29Se144
_symmetry_space_group_name_H-M   'P 1'
_cell_length_a   17.57378065
_cell_length_b   17.57155501
_cell_length_c   23.42839365
_cell_angle_alpha   89.98524200
_cell_angle_beta   89.99872766
_cell_angle_gamma   89.97235838
_symmetry_Int_Tables_number   1
_chemical_formula_structural   In86Cu29Se144
_chemical_formula_sum   'In86 Cu29 Se144'
_cell_volume   7234.65532348
_cell_formula_units_Z   1
loop_
 _symmetry_equiv_pos_site_id
 _symmetry_equiv_pos_as_xyz
  1  'x, y, z'
loop_
 _atom_site_type_symbol
 _atom_site_label
 _atom_site_symmetry_multiplicity
 _atom_site_fract_x
 _atom_site_fract_y
 _atom_site_fract_z
 _atom_site_occupancy
  In  In0  1  -0.01708204  0.14661968  0.11470491  1
  In  In1  1  -0.01820088  0.16488656  0.62540690  1
  In  In2  1  0.01430122  0.50990928  0.11527544  1
  In  In3  1  0.01613919  0.50454360  0.62768921  1
  In  In4  1  0.00399686  0.83224840  0.12582046  1
  In  In5  1  0.01096748  0.82562428  0.63704529  1
  In  In6  1  0.32444575  0.16831350  0.12607436  1
  In  In7  1  0.34566984  0.17054487  0.62746216  1
  In  In8  1  0.34292067  0.51134951  0.12039245  1
  In  In9  1  0.33463641  0.50789617  0.62809367  1
  In  In10  1  0.32205492  0.84223731  0.13074473  1
  In  In11  1  0.32816313  0.82941873  0.61945843  1
  In  In12  1  0.68173374  0.14905280  0.13093065  1
  In  In13  1  0.68084434  0.16635032  0.62843123  1
  In  In14  1  0.65997800  0.50240490  0.11284045  1
  In  In15  1  0.64997381  0.50110083  0.62767991  1
  In  In16  1  0.68228422  0.83930298  0.11287533  1
  In  In17  1  0.66445783  0.84300186  0.62159478  1
  In  In18  1  0.15416202  -0.01589227  0.36714649  1
  In  In19  1  0.15727494  0.01081101  0.88408443  1
  In  In20  1  0.17764463  0.33797150  0.37814846  1
  In  In21  1  0.17069959  0.32943992  0.87857540  1
  In  In22  1  0.16786730  0.66636374  0.37459597  1
  In  In23  1  0.16836734  0.66735968  0.87761670  1
  In  In24  1  0.48304439  -0.01069568  0.35575923  1
  In  In25  1  0.51291169  -0.00469712  0.87706702  1
  In  In26  1  0.50650174  0.33836332  0.38037440  1
  In  In27  1  0.51204367  0.34565130  0.86921599  1
  In  In28  1  0.48978101  0.66953596  0.37824453  1
  In  In29  1  0.47712411  0.67065577  0.87070089  1
  In  In30  1  0.84365010  0.01106892  0.35949981  1
  In  In31  1  0.83733906  -0.01260774  0.88904387  1
  In  In32  1  0.81932781  0.32711090  0.37781460  1
  In  In33  1  0.83055876  0.33528822  0.87975611  1
  In  In34  1  0.84474915  0.65991516  0.36572350  1
  In  In35  1  0.84484665  0.65673109  0.88604949  1
  In  In36  1  -0.00308597  0.15196824  0.37463343  1
  In  In37  1  0.00149873  0.15975870  0.87831047  1
  In  In38  1  0.00398503  0.51396159  0.37051912  1
  In  In39  1  -0.00414991  0.50880784  0.88160437  1
  In  In40  1  0.00673218  0.83698495  0.37040632  1
  In  In41  1  0.00504576  0.83385226  0.87945129  1
  In  In42  1  0.34438856  0.16206647  0.36975868  1
  In  In43  1  0.31943953  0.16860291  0.87410882  1
  In  In44  1  0.32714503  0.50534889  0.38012605  1
  In  In45  1  0.33151901  0.50260090  0.87571237  1
  In  In46  1  0.33087438  0.82716592  0.37194455  1
  In  In47  1  0.33640327  0.81370544  0.87276009  1
  In  In48  1  0.67503255  0.16505272  0.37095778  1
  In  In49  1  0.66914126  0.17290612  0.87861478  1
  In  In50  1  0.65932126  0.48904688  0.37544876  1
  In  In51  1  0.67870692  0.49796911  0.88713314  1
  In  In52  1  0.65151645  0.83276990  0.37419460  1
  In  In53  1  0.67245173  0.84179251  0.88106470  1
  In  In54  1  0.16393332  -0.00460940  0.12354641  1
  In  In55  1  0.16639839  -0.01659745  0.62455968  1
  In  In56  1  0.16616316  0.32985268  0.11315139  1
  In  In57  1  0.16460553  0.35492069  0.62743011  1
  In  In58  1  0.16939770  0.66818723  0.12563065  1
  In  In59  1  0.17103853  0.67202839  0.62786850  1
  In  In60  1  0.50459794  -0.00056213  0.13979023  1
  In  In61  1  0.50655436  -0.00203091  0.61797374  1
  In  In62  1  0.49377573  0.34391737  0.12164545  1
  In  In63  1  0.48770742  0.34489846  0.63931811  1
  In  In64  1  0.49597750  0.64996226  0.13040234  1
  In  In65  1  0.49078729  0.66428676  0.62064473  1
  In  In66  1  0.84014705  0.00153503  0.12577129  1
  In  In67  1  0.83393791  0.01506111  0.62783624  1
  In  In68  1  0.82986976  0.33048199  0.11396992  1
  In  In69  1  0.83536303  0.31451261  0.63184414  1
  In  In70  1  0.84214655  0.68108540  0.11088392  1
  In  In71  1  0.84034839  0.67737336  0.63159148  1
  In  In72  1  0.49999496  0.17207582  0.00444289  1
  In  In73  1  0.00255569  0.33691924  0.75552445  1
  In  In74  1  0.82940090  0.49755938  0.49718379  1
  In  In75  1  0.66348879  0.32963217  0.24275147  1
  In  In76  1  0.83182858  0.83722552  0.50057189  1
  In  In77  1  0.66746857  0.66957411  0.24586491  1
  In  In78  1  0.67066112  -0.00048780  0.75554632  1
  In  In79  1  0.66780039  0.66529644  0.75146954  1
  In  In80  1  0.50628695  0.16737195  0.49735020  1
  In  In81  1  0.49870549  0.82750527  0.00213766  1
  In  In82  1  0.33492271  0.33306410  0.25064161  1
  In  In83  1  -0.00185582  0.32504525  0.24507449  1
  In  In84  1  0.33114148  0.00004872  0.74673163  1
  In  In85  1  0.16421892  0.16579794  0.49670408  1
  Cu  Cu86  1  -0.00368212  0.33514454  0.50760469  1
  Cu  Cu87  1  0.00020520  0.33236440  -0.00497859  1
  Cu  Cu88  1  0.49805858  0.82745482  0.24903071  1
  Cu  Cu89  1  0.16594184  0.83536361  0.75527556  1
  Cu  Cu90  1  0.83777186  0.50404361  0.24035938  1
  Cu  Cu91  1  0.83616665  0.83498825  0.24044690  1
  Cu  Cu92  1  0.16198222  0.15400978  0.24454494  1
  Cu  Cu93  1  -0.00376178  -0.00456416  0.49545221  1
  Cu  Cu94  1  0.33417577  0.33863029  -0.00278914  1
  Cu  Cu95  1  0.33020565  -0.01119181  0.49073364  1
  Cu  Cu96  1  0.84516222  0.83326615  0.75839863  1
  Cu  Cu97  1  0.32954918  0.34503172  0.50681206  1
  Cu  Cu98  1  0.00882624  0.66655538  0.50194939  1
  Cu  Cu99  1  0.66225529  0.33315593  0.50410589  1
  Cu  Cu100  1  0.49884547  0.50055422  0.75312577  1
  Cu  Cu101  1  0.17594445  0.51194755  0.75047339  1
  Cu  Cu102  1  0.16161816  0.17030570  0.75393914  1
  Cu  Cu103  1  0.33086372  0.66752008  0.49996820  1
  Cu  Cu104  1  0.65582004  0.66291390  0.49818781  1
  Cu  Cu105  1  0.17010093  0.50358212  0.24679986  1
  Cu  Cu106  1  0.66361110  -0.00155535  0.49592129  1
  Cu  Cu107  1  0.16677924  0.82789471  0.24954115  1
  Cu  Cu108  1  0.00643683  0.67115806  0.00033679  1
  Cu  Cu109  1  0.83393885  0.49700421  0.75974193  1
  Cu  Cu110  1  0.66864533  0.33466761  -0.00056207  1
  Cu  Cu111  1  0.00221496  -0.00403703  0.00323031  1
  Cu  Cu112  1  0.32981515  -0.00248571  0.00193062  1
  Cu  Cu113  1  0.32631573  0.66409052  0.00092972  1
  Cu  Cu114  1  0.49970081  0.17227473  0.75488954  1
  Se  Se115  1  0.08805601  0.08323890  0.05263570  1
  Se  Se116  1  0.07583772  0.07669815  0.55867299  1
  Se  Se117  1  0.08501400  0.41605433  0.04726206  1
  Se  Se118  1  0.08291937  0.42244314  0.55025311  1
  Se  Se119  1  0.08931194  0.75279135  0.05558963  1
  Se  Se120  1  0.08443157  0.75326702  0.55794821  1
  Se  Se121  1  0.41340887  0.07402234  0.06163550  1
  Se  Se122  1  0.40630844  0.07436456  0.55089798  1
  Se  Se123  1  0.41750354  0.42283955  0.04890738  1
  Se  Se124  1  0.41845365  0.42086038  0.56017097  1
  Se  Se125  1  0.40561560  0.74423623  0.06412087  1
  Se  Se126  1  0.41653796  0.75284487  0.55059418  1
  Se  Se127  1  0.76053421  0.08443012  0.05372985  1
  Se  Se128  1  0.74524750  0.07912795  0.55269874  1
  Se  Se129  1  0.75201284  0.42217939  0.04977930  1
  Se  Se130  1  0.74616962  0.41111562  0.56444559  1
  Se  Se131  1  0.73495104  0.73556666  0.04675008  1
  Se  Se132  1  0.74141027  0.73890969  0.55722658  1
  Se  Se133  1  0.25590445  0.24846305  0.04855385  1
  Se  Se134  1  0.25243301  0.25506776  0.56162503  1
  Se  Se135  1  0.24473739  0.57875838  0.05466905  1
  Se  Se136  1  0.24911657  0.58605303  0.55786988  1
  Se  Se137  1  0.24574511  0.91225869  0.05202679  1
  Se  Se138  1  0.24644505  0.91281617  0.54891833  1
  Se  Se139  1  0.59411931  0.25638148  0.06579505  1
  Se  Se140  1  0.58273810  0.25529411  0.56808856  1
  Se  Se141  1  0.57158280  0.58558596  0.05053072  1
  Se  Se142  1  0.57616533  0.57974581  0.55327618  1
  Se  Se143  1  0.58223515  0.92762008  0.05788993  1
  Se  Se144  1  0.58082699  0.91279903  0.54643842  1
  Se  Se145  1  0.91839700  0.24881887  0.04993131  1
  Se  Se146  1  0.91020495  0.24747182  0.55029042  1
  Se  Se147  1  0.92057213  0.58466452  0.04976130  1
  Se  Se148  1  0.91975993  0.58920807  0.55831769  1
  Se  Se149  1  0.91840527  0.91245411  0.05677607  1
  Se  Se150  1  0.92256794  0.91954562  0.56489682  1
  Se  Se151  1  0.07241165  0.25880956  0.43853317  1
  Se  Se152  1  0.08436756  0.24692721  0.94397024  1
  Se  Se153  1  0.08645526  0.58111667  0.44609381  1
  Se  Se154  1  0.08765821  0.58376465  0.94802883  1
  Se  Se155  1  0.08304938  0.91130655  0.44795024  1
  Se  Se156  1  0.08838251  0.91448502  0.95033956  1
  Se  Se157  1  0.40514658  0.26001304  0.44568456  1
  Se  Se158  1  0.41455841  0.25657663  0.93670055  1
  Se  Se159  1  0.41549602  0.58179740  0.44902842  1
  Se  Se160  1  0.41343483  0.58493184  0.94734843  1
  Se  Se161  1  0.41957443  0.91275004  0.43752191  1
  Se  Se162  1  0.40971306  0.92105562  0.93927243  1
  Se  Se163  1  0.74171747  0.24725052  0.45002832  1
  Se  Se164  1  0.75268235  0.24867937  0.95024109  1
  Se  Se165  1  0.74220782  0.59251397  0.43603461  1
  Se  Se166  1  0.74599776  0.59415809  0.95249545  1
  Se  Se167  1  0.74689623  0.92210773  0.43424624  1
  Se  Se168  1  0.74427114  0.91708917  0.95671756  1
  Se  Se169  1  0.25270426  0.07654902  0.43448315  1
  Se  Se170  1  0.25090795  0.08701416  0.95001201  1
  Se  Se171  1  0.24446030  0.42345793  0.45161953  1
  Se  Se172  1  0.24770120  0.41996102  0.94495511  1
  Se  Se173  1  0.24782628  0.75029023  0.44482075  1
  Se  Se174  1  0.24869537  0.75300166  0.94854916  1
  Se  Se175  1  0.58171947  0.07305359  0.43245407  1
  Se  Se176  1  0.59154752  0.07835695  0.94835256  1
  Se  Se177  1  0.58049057  0.42023965  0.45398181  1
  Se  Se178  1  0.58243642  0.41830666  0.94931363  1
  Se  Se179  1  0.57685740  0.75073564  0.44625886  1
  Se  Se180  1  0.58180071  0.74300323  0.93432219  1
  Se  Se181  1  0.91016201  0.07880648  0.44598429  1
  Se  Se182  1  0.91948042  0.08126846  0.95029923  1
  Se  Se183  1  0.92295088  0.41111830  0.43589848  1
  Se  Se184  1  0.91525048  0.41891295  0.94610499  1
  Se  Se185  1  0.92131829  0.74205810  0.44308556  1
  Se  Se186  1  0.91946990  0.75362691  0.94885762  1
  Se  Se187  1  0.23813374  0.23838930  0.30544906  1
  Se  Se188  1  0.24840075  0.25446745  0.80100204  1
  Se  Se189  1  0.25128385  0.58291324  0.30468416  1
  Se  Se190  1  0.25761667  0.59372643  0.80608643  1
  Se  Se191  1  0.25047366  0.91354961  0.30236040  1
  Se  Se192  1  0.24644701  0.91698116  0.81510329  1
  Se  Se193  1  0.57360992  0.24554829  0.30882562  1
  Se  Se194  1  0.58877904  0.25029917  0.80607308  1
  Se  Se195  1  0.58058759  0.58099747  0.30952105  1
  Se  Se196  1  0.58056684  0.57798472  0.81505887  1
  Se  Se197  1  0.58482361  0.91341533  0.29693662  1
  Se  Se198  1  0.57599349  0.90098503  0.80326526  1
  Se  Se199  1  0.90759015  0.24318735  0.31052114  1
  Se  Se200  1  0.91203470  0.24504401  0.80988439  1
  Se  Se201  1  0.92448972  0.58387182  0.29286403  1
  Se  Se202  1  0.91811575  0.58498464  0.80556737  1
  Se  Se203  1  0.91970338  0.91239258  0.30058087  1
  Se  Se204  1  0.92149843  0.92091477  0.81201003  1
  Se  Se205  1  0.07758876  0.07689215  0.30161733  1
  Se  Se206  1  0.08288032  0.08248747  0.80432398  1
  Se  Se207  1  0.09067307  0.41769170  0.30468775  1
  Se  Se208  1  0.09366620  0.43058882  0.81035672  1
  Se  Se209  1  0.08235925  0.74531485  0.30417829  1
  Se  Se210  1  0.08417005  0.74972463  0.80831405  1
  Se  Se211  1  0.41445542  0.08827466  0.29271222  1
  Se  Se212  1  0.42349834  0.08623846  0.81298063  1
  Se  Se213  1  0.42214727  0.42289877  0.31177655  1
  Se  Se214  1  0.41372814  0.41737302  0.80601556  1
  Se  Se215  1  0.41438100  0.74460210  0.30151555  1
  Se  Se216  1  0.41663108  0.75438283  0.79288714  1
  Se  Se217  1  0.74175654  0.07838256  0.29863430  1
  Se  Se218  1  0.75997664  0.08371436  0.81651151  1
  Se  Se219  1  0.75850082  0.42545725  0.30246792  1
  Se  Se220  1  0.74733975  0.41646968  0.80940377  1
  Se  Se221  1  0.75891716  0.75925903  0.30837201  1
  Se  Se222  1  0.75837097  0.75350882  0.81320824  1
  Se  Se223  1  0.25167153  0.07646807  0.19294375  1
  Se  Se224  1  0.23980400  0.09288656  0.68712760  1
  Se  Se225  1  0.24410334  0.41771964  0.18704334  1
  Se  Se226  1  0.25383953  0.42154963  0.69866545  1
  Se  Se227  1  0.25295703  0.74589339  0.19786172  1
  Se  Se228  1  0.25086782  0.75779572  0.69755380  1
  Se  Se229  1  0.58479899  0.09128757  0.20007692  1
  Se  Se230  1  0.57569209  0.08870204  0.69322703  1
  Se  Se231  1  0.57564459  0.43034012  0.19318298  1
  Se  Se232  1  0.58621567  0.41598826  0.70399783  1
  Se  Se233  1  0.58036051  0.75856838  0.18261998  1
  Se  Se234  1  0.58229295  0.75384349  0.68740863  1
  Se  Se235  1  0.92135060  0.07954916  0.19916524  1
  Se  Se236  1  0.91774890  0.08253070  0.70134801  1
  Se  Se237  1  0.91644559  0.42056095  0.18265360  1
  Se  Se238  1  0.91295417  0.42478972  0.69001985  1
  Se  Se239  1  0.91783001  0.74588723  0.19258588  1
  Se  Se240  1  0.92422096  0.74543488  0.70532470  1
  Se  Se241  1  0.08819822  0.23867890  0.18351617  1
  Se  Se242  1  0.08669785  0.24827190  0.68631697  1
  Se  Se243  1  0.08354392  0.58519002  0.19492768  1
  Se  Se244  1  0.08597632  0.59110520  0.69911656  1
  Se  Se245  1  0.08475724  0.91459791  0.19671788  1
  Se  Se246  1  0.08342731  0.92144392  0.70305935  1
  Se  Se247  1  0.42590954  0.24487686  0.18980913  1
  Se  Se248  1  0.41034545  0.25216479  0.70473753  1
  Se  Se249  1  0.41051440  0.58036581  0.20249109  1
  Se  Se250  1  0.41945039  0.58701604  0.69876267  1
  Se  Se251  1  0.41378253  0.91492926  0.19957631  1
  Se  Se252  1  0.42366702  0.91400399  0.68719177  1
  Se  Se253  1  0.76714170  0.24467761  0.19472229  1
  Se  Se254  1  0.74823286  0.24806902  0.70349032  1
  Se  Se255  1  0.75449373  0.58159072  0.18226072  1
  Se  Se256  1  0.75912314  0.57357066  0.69035170  1
  Se  Se257  1  0.74937263  0.91734657  0.19176874  1
  Se  Se258  1  0.76254427  0.90707424  0.69411757  1
