# generated using pymatgen
data_In86Cu29Se144
_symmetry_space_group_name_H-M   'P 1'
_cell_length_a   17.58294732
_cell_length_b   17.58275142
_cell_length_c   23.43056782
_cell_angle_alpha   90.02416274
_cell_angle_beta   89.97043636
_cell_angle_gamma   90.01857586
_symmetry_Int_Tables_number   1
_chemical_formula_structural   In86Cu29Se144
_chemical_formula_sum   'In86 Cu29 Se144'
_cell_volume   7243.71250451
_cell_formula_units_Z   1
loop_
 _symmetry_equiv_pos_site_id
 _symmetry_equiv_pos_as_xyz
  1  'x, y, z'
loop_
 _atom_site_type_symbol
 _atom_site_label
 _atom_site_symmetry_multiplicity
 _atom_site_fract_x
 _atom_site_fract_y
 _atom_site_fract_z
 _atom_site_occupancy
  In  In0  1  0.02070587  0.18760722  0.10444390  1
  In  In1  1  -0.00051480  0.15159784  0.62942123  1
  In  In2  1  0.00389377  0.48178217  0.12019322  1
  In  In3  1  -0.00502027  0.51219774  0.62633014  1
  In  In4  1  0.00873806  0.83693178  0.11380697  1
  In  In5  1  0.00761567  0.84210605  0.61569000  1
  In  In6  1  0.33228557  0.16305137  0.12029672  1
  In  In7  1  0.33816730  0.17252943  0.62057559  1
  In  In8  1  0.33632411  0.49616114  0.12050867  1
  In  In9  1  0.32002599  0.49413278  0.63063818  1
  In  In10  1  0.31369751  0.84410565  0.14694181  1
  In  In11  1  0.33627497  0.84035513  0.61195510  1
  In  In12  1  0.65776638  0.15416229  0.12383227  1
  In  In13  1  0.65610948  0.17779420  0.61916380  1
  In  In14  1  0.66018033  0.51545326  0.12859642  1
  In  In15  1  0.68718434  0.50363004  0.62346589  1
  In  In16  1  0.67083606  0.82887004  0.13253017  1
  In  In17  1  0.66042222  0.82697062  0.61728222  1
  In  In18  1  0.18229195  -0.01072366  0.37539882  1
  In  In19  1  0.16105871  0.00966705  0.88658533  1
  In  In20  1  0.16460303  0.32620768  0.36650124  1
  In  In21  1  0.16980641  0.32583984  0.89557485  1
  In  In22  1  0.18001780  0.67343011  0.36581952  1
  In  In23  1  0.15617089  0.66834456  0.89465221  1
  In  In24  1  0.49748643  -0.00087087  0.37178907  1
  In  In25  1  0.49841524  0.00964859  0.87910211  1
  In  In26  1  0.48551786  0.33568210  0.37216014  1
  In  In27  1  0.48852539  0.33843826  0.89217358  1
  In  In28  1  0.51239758  0.66986943  0.36538212  1
  In  In29  1  0.49889792  0.65542564  0.87398939  1
  In  In30  1  0.82358905  -0.00021548  0.37282632  1
  In  In31  1  0.84173017  -0.01334243  0.87889286  1
  In  In32  1  0.84831659  0.32788902  0.37499965  1
  In  In33  1  0.82277580  0.33342144  0.87862499  1
  In  In34  1  0.82795410  0.67495139  0.37967255  1
  In  In35  1  0.83916519  0.67517589  0.87152743  1
  In  In36  1  0.00784637  0.18103128  0.36959708  1
  In  In37  1  0.01253752  0.15525913  0.88747585  1
  In  In38  1  0.00165935  0.48769014  0.37520035  1
  In  In39  1  0.00405085  0.51144492  0.88535059  1
  In  In40  1  0.00187135  0.83277174  0.37968030  1
  In  In41  1  -0.01075983  0.83253859  0.88221506  1
  In  In42  1  0.33166169  0.16562125  0.37114471  1
  In  In43  1  0.30720265  0.18966300  0.91293225  1
  In  In44  1  0.33308961  0.49458192  0.36211912  1
  In  In45  1  0.33862876  0.48686853  0.89346434  1
  In  In46  1  0.33510846  0.83709396  0.36977167  1
  In  In47  1  0.33078738  0.82515384  0.87973518  1
  In  In48  1  0.66921727  0.15041657  0.37119194  1
  In  In49  1  0.66173448  0.17039768  0.88575061  1
  In  In50  1  0.66496889  0.51068796  0.37315399  1
  In  In51  1  0.65696390  0.49451715  0.87143582  1
  In  In52  1  0.66579167  0.83341325  0.37432039  1
  In  In53  1  0.68134290  0.83325947  0.87283929  1
  In  In54  1  0.17735016  -0.00023995  0.11811095  1
  In  In55  1  0.16392698  0.00028597  0.61954320  1
  In  In56  1  0.17394596  0.32906650  0.11724676  1
  In  In57  1  0.18276079  0.33762462  0.63132745  1
  In  In58  1  0.18161201  0.68079969  0.11763459  1
  In  In59  1  0.15743284  0.67112925  0.62365738  1
  In  In60  1  0.48720728  0.01004686  0.13548575  1
  In  In61  1  0.50159318  0.00403480  0.61584132  1
  In  In62  1  0.47486432  0.31404361  0.10534704  1
  In  In63  1  0.50241353  0.31952872  0.62189631  1
  In  In64  1  0.50137754  0.66373591  0.12946663  1
  In  In65  1  0.49807087  0.67950486  0.62349512  1
  In  In66  1  0.83033318  -0.00405774  0.12484600  1
  In  In67  1  0.84986724  0.00408873  0.62539058  1
  In  In68  1  0.84963507  0.33175935  0.12379034  1
  In  In69  1  0.82668812  0.34253268  0.62166304  1
  In  In70  1  0.81914187  0.66984762  0.12783585  1
  In  In71  1  0.82263959  0.65780966  0.61729476  1
  In  In72  1  0.00420949  0.66335585  0.24491631  1
  In  In73  1  0.33387608  0.00610902  0.75532715  1
  In  In74  1  0.32810164  0.66266415  0.75291289  1
  In  In75  1  0.49362314  0.83857661  0.00513780  1
  In  In76  1  0.66461102  0.33493744  0.74464929  1
  In  In77  1  0.82971659  0.16490229  0.50221339  1
  In  In78  1  0.50241075  0.49667389  0.49335479  1
  In  In79  1  0.66907978  -0.00010399  0.74326296  1
  In  In80  1  0.00519909  0.00780541  0.23714661  1
  In  In81  1  0.00094637  0.32953418  0.75388868  1
  In  In82  1  0.66068197  0.33889653  0.24630185  1
  In  In83  1  -0.00125585  0.66796168  0.75445538  1
  In  In84  1  0.83272723  0.50479573  -0.00175332  1
  In  In85  1  0.16236579  0.50622834  0.50134020  1
  Cu  Cu86  1  -0.00358038  0.67151674  0.50012249  1
  Cu  Cu87  1  -0.00758408  -0.00382987  0.00170491  1
  Cu  Cu88  1  0.50311890  0.83016805  0.25157166  1
  Cu  Cu89  1  0.33364631  0.66771342  0.00425645  1
  Cu  Cu90  1  0.66422268  0.67351787  0.00381676  1
  Cu  Cu91  1  0.16266729  0.84062644  0.74616577  1
  Cu  Cu92  1  0.66901443  0.33675230  0.00376074  1
  Cu  Cu93  1  0.32960568  0.32751687  0.49807723  1
  Cu  Cu94  1  0.17168393  0.16814687  0.24186900  1
  Cu  Cu95  1  0.49274955  0.49430148  0.24342877  1
  Cu  Cu96  1  0.83177267  0.83585272  0.25215400  1
  Cu  Cu97  1  0.16853658  0.49167442  0.24304699  1
  Cu  Cu98  1  0.17484529  0.49362202  0.76303154  1
  Cu  Cu99  1  0.33137043  0.00393240  0.49296070  1
  Cu  Cu100  1  0.48865147  0.17884471  0.75278514  1
  Cu  Cu101  1  0.17212090  0.16886070  0.76554159  1
  Cu  Cu102  1  0.84010696  0.82736769  0.74999377  1
  Cu  Cu103  1  0.83649251  0.15937222  0.75503972  1
  Cu  Cu104  1  0.66354524  -0.00744551  0.49458156  1
  Cu  Cu105  1  0.00211021  0.33445462  0.49658324  1
  Cu  Cu106  1  0.49590612  0.16407776  0.24584827  1
  Cu  Cu107  1  0.66938963  -0.00351753  0.00274331  1
  Cu  Cu108  1  0.49866936  0.49605763  0.75741102  1
  Cu  Cu109  1  0.33699969  0.67557144  0.49093028  1
  Cu  Cu110  1  0.83572156  0.49983525  0.24447025  1
  Cu  Cu111  1  0.66674073  0.66950802  0.49577401  1
  Cu  Cu112  1  0.50901262  0.83374124  0.74337520  1
  Cu  Cu113  1  0.83752546  0.16853873  0.24829868  1
  Cu  Cu114  1  0.00300758  0.00344579  0.49771984  1
  Se  Se115  1  0.08337057  0.07442802  0.05212841  1
  Se  Se116  1  0.08317411  0.08858133  0.55214639  1
  Se  Se117  1  0.08574695  0.40835387  0.04863284  1
  Se  Se118  1  0.07758826  0.41165414  0.56431655  1
  Se  Se119  1  0.07843331  0.73905927  0.05189391  1
  Se  Se120  1  0.08714610  0.75211213  0.54904538  1
  Se  Se121  1  0.42418235  0.08354364  0.05488270  1
  Se  Se122  1  0.41363215  0.08487419  0.55153756  1
  Se  Se123  1  0.42543085  0.42754592  0.04776849  1
  Se  Se124  1  0.40583893  0.41468259  0.55724061  1
  Se  Se125  1  0.40758151  0.75029045  0.06737470  1
  Se  Se126  1  0.42091795  0.75376770  0.54815539  1
  Se  Se127  1  0.75089685  0.08237255  0.05564234  1
  Se  Se128  1  0.73889176  0.07163716  0.56213047  1
  Se  Se129  1  0.74563788  0.41797246  0.06541992  1
  Se  Se130  1  0.73408537  0.40347010  0.55184267  1
  Se  Se131  1  0.74902692  0.75579766  0.05418818  1
  Se  Se132  1  0.75148402  0.75158253  0.55016994  1
  Se  Se133  1  0.25534222  0.24545697  0.04772006  1
  Se  Se134  1  0.24459609  0.25082487  0.55535202  1
  Se  Se135  1  0.25015187  0.58082891  0.05384665  1
  Se  Se136  1  0.26087951  0.59668549  0.55744729  1
  Se  Se137  1  0.25100975  0.89990604  0.05779507  1
  Se  Se138  1  0.24782941  0.92138165  0.54920155  1
  Se  Se139  1  0.58935604  0.24873958  0.05537744  1
  Se  Se140  1  0.57506596  0.24634550  0.54490929  1
  Se  Se141  1  0.58056983  0.58793868  0.05260463  1
  Se  Se142  1  0.58617074  0.58886664  0.55759872  1
  Se  Se143  1  0.58682940  0.92256858  0.06624700  1
  Se  Se144  1  0.57861642  0.91320676  0.55104725  1
  Se  Se145  1  0.90823016  0.24523069  0.04782770  1
  Se  Se146  1  0.92503010  0.25479817  0.56205227  1
  Se  Se147  1  0.91628149  0.58670035  0.06742045  1
  Se  Se148  1  0.91624519  0.58187076  0.55006608  1
  Se  Se149  1  0.90970195  0.91199378  0.05431992  1
  Se  Se150  1  0.91666482  0.92103137  0.54917846  1
  Se  Se151  1  0.08805600  0.25324993  0.44560011  1
  Se  Se152  1  0.07393572  0.25000355  0.95671081  1
  Se  Se153  1  0.07774145  0.59502032  0.43593742  1
  Se  Se154  1  0.07374488  0.58759579  0.96214514  1
  Se  Se155  1  0.08569765  0.92014794  0.44327754  1
  Se  Se156  1  0.07784599  0.91522943  0.94626847  1
  Se  Se157  1  0.41408486  0.24833366  0.44321709  1
  Se  Se158  1  0.43591788  0.23105188  0.95499834  1
  Se  Se159  1  0.41022064  0.58635374  0.43452767  1
  Se  Se160  1  0.41900213  0.58710252  0.94996268  1
  Se  Se161  1  0.41548421  0.91750145  0.44281282  1
  Se  Se162  1  0.40523061  0.92639453  0.94245981  1
  Se  Se163  1  0.74545131  0.25103781  0.43625827  1
  Se  Se164  1  0.74991922  0.25081021  0.95155280  1
  Se  Se165  1  0.75009288  0.58260572  0.44571593  1
  Se  Se166  1  0.73890630  0.59256064  0.93805871  1
  Se  Se167  1  0.75301057  0.91338800  0.44459760  1
  Se  Se168  1  0.75124360  0.91277613  0.94862199  1
  Se  Se169  1  0.24600514  0.08846369  0.44297457  1
  Se  Se170  1  0.25171673  0.07091406  0.95932769  1
  Se  Se171  1  0.25209864  0.41585956  0.44071387  1
  Se  Se172  1  0.23539101  0.42888778  0.95714186  1
  Se  Se173  1  0.24863942  0.75591910  0.44120894  1
  Se  Se174  1  0.24972949  0.75290796  0.95328317  1
  Se  Se175  1  0.58298330  0.07999775  0.44339338  1
  Se  Se176  1  0.58449670  0.07977949  0.95148511  1
  Se  Se177  1  0.59144271  0.40593739  0.43464706  1
  Se  Se178  1  0.58625455  0.42063758  0.94988935  1
  Se  Se179  1  0.58070515  0.74995854  0.44313952  1
  Se  Se180  1  0.58399387  0.75121856  0.93954693  1
  Se  Se181  1  0.92303453  0.08374140  0.43602039  1
  Se  Se182  1  0.91115766  0.08043813  0.94690722  1
  Se  Se183  1  0.91491345  0.41763819  0.44877304  1
  Se  Se184  1  0.92117218  0.40901353  0.94278884  1
  Se  Se185  1  0.91354689  0.75591867  0.44718127  1
  Se  Se186  1  0.92056007  0.73695832  0.94834961  1
  Se  Se187  1  0.25365349  0.25067018  0.29906669  1
  Se  Se188  1  0.25219095  0.25176506  0.82047644  1
  Se  Se189  1  0.24683890  0.57812409  0.29814208  1
  Se  Se190  1  0.24488936  0.58205046  0.82292802  1
  Se  Se191  1  0.25561970  0.91823078  0.29788470  1
  Se  Se192  1  0.24432444  0.91143169  0.81144006  1
  Se  Se193  1  0.57761139  0.24309587  0.30779192  1
  Se  Se194  1  0.57748056  0.25197802  0.81164978  1
  Se  Se195  1  0.58052940  0.57433167  0.29662065  1
  Se  Se196  1  0.58491185  0.58467976  0.80106687  1
  Se  Se197  1  0.58510474  0.91659669  0.30485207  1
  Se  Se198  1  0.57883608  0.91502257  0.80923574  1
  Se  Se199  1  0.92223084  0.25358075  0.29721145  1
  Se  Se200  1  0.91213127  0.24125897  0.81594830  1
  Se  Se201  1  0.91340495  0.57902862  0.30967356  1
  Se  Se202  1  0.91101988  0.57023826  0.80761087  1
  Se  Se203  1  0.91865233  0.91755707  0.30536838  1
  Se  Se204  1  0.92093165  0.91217330  0.80322179  1
  Se  Se205  1  0.09280293  0.08903575  0.30596638  1
  Se  Se206  1  0.08447607  0.08088194  0.80779270  1
  Se  Se207  1  0.08349173  0.41562163  0.30136224  1
  Se  Se208  1  0.08668866  0.41821626  0.81822355  1
  Se  Se209  1  0.08799494  0.76071520  0.30341428  1
  Se  Se210  1  0.09320731  0.75557416  0.81096252  1
  Se  Se211  1  0.41422668  0.08170459  0.30277237  1
  Se  Se212  1  0.41412923  0.10051916  0.81645063  1
  Se  Se213  1  0.41095815  0.40713854  0.29392235  1
  Se  Se214  1  0.41692852  0.41685864  0.81433145  1
  Se  Se215  1  0.41754490  0.74694795  0.30363352  1
  Se  Se216  1  0.42532326  0.75790790  0.80482080  1
  Se  Se217  1  0.75431420  0.08187750  0.29675581  1
  Se  Se218  1  0.74925498  0.08563588  0.81347226  1
  Se  Se219  1  0.75824035  0.41963009  0.30874802  1
  Se  Se220  1  0.75764191  0.42368792  0.80309950  1
  Se  Se221  1  0.74968180  0.74967431  0.30435781  1
  Se  Se222  1  0.75117649  0.74725095  0.79961881  1
  Se  Se223  1  0.25255059  0.07989067  0.19263506  1
  Se  Se224  1  0.24354967  0.09225042  0.69342045  1
  Se  Se225  1  0.25403202  0.41108422  0.18957379  1
  Se  Se226  1  0.25753150  0.41157608  0.70939890  1
  Se  Se227  1  0.24919762  0.73729555  0.20502416  1
  Se  Se228  1  0.24702219  0.76071192  0.68920585  1
  Se  Se229  1  0.58610554  0.07857292  0.20242227  1
  Se  Se230  1  0.57021971  0.09612931  0.69436944  1
  Se  Se231  1  0.56912007  0.41493455  0.17970573  1
  Se  Se232  1  0.57422781  0.42578963  0.68552958  1
  Se  Se233  1  0.58572095  0.74525278  0.19834182  1
  Se  Se234  1  0.58993260  0.74600859  0.69480357  1
  Se  Se235  1  0.91680811  0.09918732  0.18008013  1
  Se  Se236  1  0.92249849  0.07646597  0.70516242  1
  Se  Se237  1  0.92164318  0.41432217  0.19831600  1
  Se  Se238  1  0.91261095  0.42192632  0.69378860  1
  Se  Se239  1  0.91338106  0.75979285  0.19007028  1
  Se  Se240  1  0.91800867  0.75199514  0.68360423  1
  Se  Se241  1  0.08681699  0.25171612  0.19042442  1
  Se  Se242  1  0.09414483  0.24120317  0.69509534  1
  Se  Se243  1  0.09120762  0.57459269  0.18333545  1
  Se  Se244  1  0.09761294  0.57297636  0.69908083  1
  Se  Se245  1  0.09405161  0.90763888  0.18954649  1
  Se  Se246  1  0.08118893  0.92202584  0.69179121  1
  Se  Se247  1  0.41347257  0.24740592  0.19238823  1
  Se  Se248  1  0.40897492  0.25897333  0.69499783  1
  Se  Se249  1  0.41111828  0.58273559  0.19391966  1
  Se  Se250  1  0.42230301  0.57593856  0.69118447  1
  Se  Se251  1  0.41746607  0.91633376  0.20371180  1
  Se  Se252  1  0.42273367  0.91508128  0.69037225  1
  Se  Se253  1  0.75306519  0.24783160  0.18890636  1
  Se  Se254  1  0.75970674  0.23735237  0.69118754  1
  Se  Se255  1  0.74707416  0.58582537  0.20172112  1
  Se  Se256  1  0.75573682  0.58453093  0.69783109  1
  Se  Se257  1  0.74916486  0.91990173  0.19900725  1
  Se  Se258  1  0.76081981  0.90781397  0.68731572  1
