# generated using pymatgen
data_In86Cu29Se144
_symmetry_space_group_name_H-M   'P 1'
_cell_length_a   17.69919687
_cell_length_b   17.70266348
_cell_length_c   23.56666352
_cell_angle_alpha   89.99372963
_cell_angle_beta   90.00309120
_cell_angle_gamma   90.01182556
_symmetry_Int_Tables_number   1
_chemical_formula_structural   In86Cu29Se144
_chemical_formula_sum   'In86 Cu29 Se144'
_cell_volume   7383.97576039
_cell_formula_units_Z   1
loop_
 _symmetry_equiv_pos_site_id
 _symmetry_equiv_pos_as_xyz
  1  'x, y, z'
loop_
 _atom_site_type_symbol
 _atom_site_label
 _atom_site_symmetry_multiplicity
 _atom_site_fract_x
 _atom_site_fract_y
 _atom_site_fract_z
 _atom_site_occupancy
  In  In0  1  0.00769260  0.16735149  0.12022015  1
  In  In1  1  0.00852336  0.16187587  0.62977929  1
  In  In2  1  0.01601652  0.48974187  0.11819009  1
  In  In3  1  -0.00482143  0.51060517  0.63698692  1
  In  In4  1  0.00468945  0.83163278  0.11600541  1
  In  In5  1  -0.00250716  0.82046599  0.61305396  1
  In  In6  1  0.33648958  0.16800521  0.12495424  1
  In  In7  1  0.33314789  0.16267321  0.61411394  1
  In  In8  1  0.34184280  0.50262883  0.12029686  1
  In  In9  1  0.34502875  0.49604573  0.62340652  1
  In  In10  1  0.33987790  0.83515680  0.12883770  1
  In  In11  1  0.30892903  0.81214281  0.59781541  1
  In  In12  1  0.66396242  0.18375382  0.13471441  1
  In  In13  1  0.65174253  0.16982742  0.62246841  1
  In  In14  1  0.65542566  0.52264608  0.14465920  1
  In  In15  1  0.66298791  0.49523251  0.61468323  1
  In  In16  1  0.65595145  0.82443011  0.12471818  1
  In  In17  1  0.66230502  0.82370367  0.61881829  1
  In  In18  1  0.19380963  -0.01815586  0.38910150  1
  In  In19  1  0.17168877  -0.00658180  0.88404152  1
  In  In20  1  0.17009228  0.32477176  0.37449037  1
  In  In21  1  0.16122218  0.34271378  0.88086981  1
  In  In22  1  0.17907273  0.66429262  0.38127932  1
  In  In23  1  0.16355780  0.67360226  0.87045078  1
  In  In24  1  0.47806545  0.00739699  0.38768661  1
  In  In25  1  0.49367109  0.00711057  0.88280608  1
  In  In26  1  0.49476303  0.33852588  0.36888662  1
  In  In27  1  0.43792267  0.38189429  0.92908020  1
  In  In28  1  0.49510761  0.65971410  0.37592109  1
  In  In29  1  0.47829992  0.67862306  0.89267772  1
  In  In30  1  0.83154647  -0.01298316  0.37890543  1
  In  In31  1  0.81826263  -0.00122503  0.87481636  1
  In  In32  1  0.83236589  0.35068890  0.37480361  1
  In  In33  1  0.83623485  0.32728626  0.87014211  1
  In  In34  1  0.83013530  0.67243302  0.37999962  1
  In  In35  1  0.84172331  0.66084542  0.87380351  1
  In  In36  1  0.02537694  0.16421577  0.37826449  1
  In  In37  1  0.00123148  0.18516459  0.86923331  1
  In  In38  1  0.00075280  0.49807048  0.38222054  1
  In  In39  1  0.00199163  0.50998575  0.86246244  1
  In  In40  1  0.00452821  0.82331664  0.38558111  1
  In  In41  1  0.00745621  0.82019768  0.87531365  1
  In  In42  1  0.32911661  0.17085150  0.36702163  1
  In  In43  1  0.33263292  0.17593995  0.88980238  1
  In  In44  1  0.34595885  0.51975959  0.35977982  1
  In  In45  1  0.29087903  0.54318984  0.92669133  1
  In  In46  1  0.33615678  0.82476240  0.37630936  1
  In  In47  1  0.33465443  0.82780985  0.88320337  1
  In  In48  1  0.64617136  0.16507128  0.37051896  1
  In  In49  1  0.65296377  0.17222778  0.87565110  1
  In  In50  1  0.66612818  0.49786123  0.36747701  1
  In  In51  1  0.65104866  0.48965806  0.87888777  1
  In  In52  1  0.66916713  0.82175049  0.37787918  1
  In  In53  1  0.66142341  0.83534963  0.88485458  1
  In  In54  1  0.17799935  0.01141320  0.11711011  1
  In  In55  1  0.16723718  -0.00907771  0.61406936  1
  In  In56  1  0.18948683  0.34616774  0.10486838  1
  In  In57  1  0.16946167  0.32443022  0.62778794  1
  In  In58  1  0.19289723  0.68252616  0.10581310  1
  In  In59  1  0.16601780  0.66773728  0.62861463  1
  In  In60  1  0.48971699  -0.01054193  0.12232513  1
  In  In61  1  0.47622442  -0.01886953  0.60502648  1
  In  In62  1  0.49920823  0.33615529  0.12732735  1
  In  In63  1  0.49836307  0.33120151  0.61556723  1
  In  In64  1  0.49777128  0.67255604  0.12882098  1
  In  In65  1  0.48501602  0.66024294  0.61609873  1
  In  In66  1  0.84467019  -0.00239560  0.12352216  1
  In  In67  1  0.84081235  -0.01247305  0.62357628  1
  In  In68  1  0.83209276  0.33843626  0.13550094  1
  In  In69  1  0.82871107  0.34618526  0.62496994  1
  In  In70  1  0.82076002  0.66547860  0.12634186  1
  In  In71  1  0.84510734  0.67194534  0.61510134  1
  In  In72  1  0.66816613  0.66330735  0.75077062  1
  In  In73  1  0.00898161  0.65966523  0.25005537  1
  In  In74  1  0.65932115  0.00569358  0.75604706  1
  In  In75  1  0.82713512  0.16463874  0.50201036  1
  In  In76  1  0.83561231  0.16288321  -0.00482606  1
  In  In77  1  0.00696889  0.33361360  0.25357807  1
  In  In78  1  -0.00251851  -0.00074579  0.74589674  1
  In  In79  1  0.66372816  -0.00602618  0.25447997  1
  In  In80  1  0.33282507  -0.00153575  0.74261099  1
  In  In81  1  0.00774056  -0.00065167  0.24469284  1
  In  In82  1  0.82731266  0.50194094  -0.00010377  1
  In  In83  1  0.33839999  0.34196314  0.76115420  1
  In  In84  1  0.66633194  0.33274984  0.75091809  1
  In  In85  1  0.16705034  0.49516741  0.50030942  1
  Cu  Cu86  1  0.83415382  0.82698508  0.25256587  1
  Cu  Cu87  1  0.66382847  0.65622918  0.49649880  1
  Cu  Cu88  1  -0.00116436  0.00029301  0.50368538  1
  Cu  Cu89  1  0.17054522  0.82648124  0.74552598  1
  Cu  Cu90  1  0.66634338  -0.00761794  0.49403422  1
  Cu  Cu91  1  0.83448153  0.83101141  0.74563185  1
  Cu  Cu92  1  0.66212523  0.33498725  0.49178590  1
  Cu  Cu93  1  0.17347929  0.50447394  0.24015113  1
  Cu  Cu94  1  -0.00339786  0.33546195  0.50050267  1
  Cu  Cu95  1  0.17419261  0.16858374  0.24311493  1
  Cu  Cu96  1  0.50000067  0.17195186  0.75041760  1
  Cu  Cu97  1  0.83270661  0.17468770  0.25660471  1
  Cu  Cu98  1  0.49046991  0.82240329  0.75515537  1
  Cu  Cu99  1  0.49955932  0.83070727  0.25368380  1
  Cu  Cu100  1  0.49410336  0.16638107  0.25092506  1
  Cu  Cu101  1  0.33541529  0.33326308  0.49393185  1
  Cu  Cu102  1  0.17912630  0.83348757  0.24947147  1
  Cu  Cu103  1  0.16159337  0.16794425  0.75092328  1
  Cu  Cu104  1  0.33652803  -0.00050078  0.00445117  1
  Cu  Cu105  1  0.67370245  -0.00485130  0.00522629  1
  Cu  Cu106  1  0.00281362  0.33449667  -0.00413760  1
  Cu  Cu107  1  -0.00252313  0.66470535  -0.00440419  1
  Cu  Cu108  1  0.49660705  0.50709852  0.75158289  1
  Cu  Cu109  1  0.83798395  0.50417558  0.74426309  1
  Cu  Cu110  1  0.17166854  0.50254888  0.76005953  1
  Cu  Cu111  1  0.66204013  0.33624382  0.01022085  1
  Cu  Cu112  1  0.49604519  0.50017773  0.24795442  1
  Cu  Cu113  1  0.66163013  0.66942375  0.00766801  1
  Cu  Cu114  1  -0.00477248  -0.01200420  -0.00426243  1
  Se  Se115  1  0.07288665  0.07271577  0.05308908  1
  Se  Se116  1  0.08166520  0.08289320  0.55578782  1
  Se  Se117  1  0.09194558  0.41942079  0.04085297  1
  Se  Se118  1  0.07731033  0.41091029  0.56425934  1
  Se  Se119  1  0.08317191  0.74585343  0.04851176  1
  Se  Se120  1  0.10807489  0.76375730  0.55706179  1
  Se  Se121  1  0.42013819  0.08378937  0.05597446  1
  Se  Se122  1  0.43915657  0.10366574  0.55500121  1
  Se  Se123  1  0.40781604  0.40110154  0.05437944  1
  Se  Se124  1  0.41724877  0.41576682  0.54896216  1
  Se  Se125  1  0.42196347  0.75618173  0.05874110  1
  Se  Se126  1  0.43050832  0.76385823  0.55078363  1
  Se  Se127  1  0.74653193  0.08323479  0.06468939  1
  Se  Se128  1  0.73980388  0.07066691  0.56149881  1
  Se  Se129  1  0.74392804  0.41703667  0.06677660  1
  Se  Se130  1  0.74678570  0.41194463  0.54836047  1
  Se  Se131  1  0.74901133  0.75195003  0.05630393  1
  Se  Se132  1  0.74454908  0.74027165  0.55313852  1
  Se  Se133  1  0.23769045  0.22695719  0.05529147  1
  Se  Se134  1  0.25305991  0.25642837  0.55339579  1
  Se  Se135  1  0.25405618  0.57531182  0.04662446  1
  Se  Se136  1  0.25571943  0.58354392  0.56035295  1
  Se  Se137  1  0.25466507  0.91535531  0.05743330  1
  Se  Se138  1  0.28344262  0.94625111  0.55911142  1
  Se  Se139  1  0.58140025  0.24810913  0.05917328  1
  Se  Se140  1  0.58319296  0.25121323  0.54748823  1
  Se  Se141  1  0.58327732  0.58521386  0.06240104  1
  Se  Se142  1  0.57738987  0.58033932  0.55287597  1
  Se  Se143  1  0.58548311  0.91701683  0.05762154  1
  Se  Se144  1  0.58580194  0.91260462  0.55265757  1
  Se  Se145  1  0.91835794  0.26076368  0.05779074  1
  Se  Se146  1  0.92032097  0.25191479  0.56106072  1
  Se  Se147  1  0.92300425  0.58624623  0.06039553  1
  Se  Se148  1  0.91395317  0.56906461  0.55771765  1
  Se  Se149  1  0.91242982  0.91052639  0.05211526  1
  Se  Se150  1  0.91560574  0.91187815  0.54992552  1
  Se  Se151  1  0.08554789  0.25677941  0.45006948  1
  Se  Se152  1  0.08466234  0.24828348  0.94558896  1
  Se  Se153  1  0.07735812  0.59268170  0.44680448  1
  Se  Se154  1  0.07762720  0.58569518  0.93716942  1
  Se  Se155  1  0.07989883  0.92324214  0.44369875  1
  Se  Se156  1  0.08254882  0.90831614  0.94404754  1
  Se  Se157  1  0.41482236  0.25158059  0.43641585  1
  Se  Se158  1  0.45113600  0.23388019  0.93138974  1
  Se  Se159  1  0.40769304  0.58290178  0.44433085  1
  Se  Se160  1  0.43441775  0.56128472  0.94793218  1
  Se  Se161  1  0.42216534  0.90067078  0.44723229  1
  Se  Se162  1  0.41618563  0.91743569  0.94682252  1
  Se  Se163  1  0.74365597  0.25066017  0.43502869  1
  Se  Se164  1  0.74162355  0.26179664  0.94536390  1
  Se  Se165  1  0.74722861  0.57898952  0.43965041  1
  Se  Se166  1  0.73612050  0.59206014  0.94000661  1
  Se  Se167  1  0.75116029  0.90696590  0.44714098  1
  Se  Se168  1  0.75331534  0.91345595  0.94923527  1
  Se  Se169  1  0.23687246  0.10385361  0.43749889  1
  Se  Se170  1  0.25246233  0.08033764  0.94891545  1
  Se  Se171  1  0.25775193  0.41620176  0.43468304  1
  Se  Se172  1  0.27757844  0.39464459  0.93457092  1
  Se  Se173  1  0.23913179  0.76227431  0.44679141  1
  Se  Se174  1  0.24532671  0.74646805  0.94463685  1
  Se  Se175  1  0.58407924  0.07839525  0.44475965  1
  Se  Se176  1  0.59513114  0.07516027  0.94531319  1
  Se  Se177  1  0.58125771  0.41769005  0.43742921  1
  Se  Se178  1  0.58089933  0.41904794  0.95712087  1
  Se  Se179  1  0.58324585  0.74083709  0.44318687  1
  Se  Se180  1  0.58025578  0.75153499  0.95123795  1
  Se  Se181  1  0.92281023  0.08042276  0.43933419  1
  Se  Se182  1  0.92536784  0.07528076  0.93375582  1
  Se  Se183  1  0.91477838  0.41916141  0.45004911  1
  Se  Se184  1  0.91944758  0.41473983  0.93824406  1
  Se  Se185  1  0.91562151  0.74741740  0.44921854  1
  Se  Se186  1  0.91392216  0.74804648  0.94339028  1
  Se  Se187  1  0.24971031  0.25762219  0.29715068  1
  Se  Se188  1  0.24398352  0.24346899  0.81153058  1
  Se  Se189  1  0.24489564  0.59151065  0.29915946  1
  Se  Se190  1  0.25427451  0.57432241  0.82187051  1
  Se  Se191  1  0.25919846  0.91467703  0.30552739  1
  Se  Se192  1  0.24515970  0.90999691  0.80660202  1
  Se  Se193  1  0.57795113  0.25263940  0.30011904  1
  Se  Se194  1  0.56894109  0.25760395  0.81136971  1
  Se  Se195  1  0.57810918  0.58195170  0.30365328  1
  Se  Se196  1  0.57426818  0.58530712  0.81433153  1
  Se  Se197  1  0.57451782  0.91168130  0.31733358  1
  Se  Se198  1  0.56954574  0.90789648  0.81073411  1
  Se  Se199  1  0.92150671  0.24265280  0.31712644  1
  Se  Se200  1  0.91100841  0.24825993  0.79913819  1
  Se  Se201  1  0.91698820  0.57911820  0.31236477  1
  Se  Se202  1  0.91734839  0.59224238  0.79526888  1
  Se  Se203  1  0.91819728  0.90866157  0.30680472  1
  Se  Se204  1  0.90868871  0.91214468  0.80922476  1
  Se  Se205  1  0.10070017  0.08355395  0.30397265  1
  Se  Se206  1  0.08912052  0.08186496  0.81124441  1
  Se  Se207  1  0.09666329  0.43112179  0.30796007  1
  Se  Se208  1  0.08452309  0.41507688  0.80448220  1
  Se  Se209  1  0.09268779  0.75742996  0.30749860  1
  Se  Se210  1  0.08103918  0.74853331  0.79680680  1
  Se  Se211  1  0.41501540  0.08119753  0.30477503  1
  Se  Se212  1  0.41579835  0.08992512  0.80688085  1
  Se  Se213  1  0.41009567  0.41653917  0.29795161  1
  Se  Se214  1  0.43116438  0.42422201  0.81710888  1
  Se  Se215  1  0.41660586  0.74482647  0.30470142  1
  Se  Se216  1  0.40719375  0.74346742  0.80937775  1
  Se  Se217  1  0.75724069  0.08666077  0.31259790  1
  Se  Se218  1  0.75304160  0.09978904  0.80793143  1
  Se  Se219  1  0.75016333  0.41378197  0.30046731  1
  Se  Se220  1  0.75599247  0.43041442  0.80827120  1
  Se  Se221  1  0.75011828  0.74607770  0.30418581  1
  Se  Se222  1  0.75348153  0.75859845  0.81061911  1
  Se  Se223  1  0.25605901  0.08033200  0.19423958  1
  Se  Se224  1  0.23902330  0.09134005  0.68832694  1
  Se  Se225  1  0.25266979  0.41943081  0.18700593  1
  Se  Se226  1  0.24606573  0.42394442  0.69397869  1
  Se  Se227  1  0.25442198  0.74675735  0.19325519  1
  Se  Se228  1  0.25813439  0.75133432  0.69062667  1
  Se  Se229  1  0.57836693  0.08568103  0.19278757  1
  Se  Se230  1  0.56812298  0.08375199  0.69008272  1
  Se  Se231  1  0.58198621  0.41658967  0.19747253  1
  Se  Se232  1  0.57349262  0.42338862  0.69098726  1
  Se  Se233  1  0.58445146  0.74868490  0.20134969  1
  Se  Se234  1  0.57400565  0.74960091  0.69279961  1
  Se  Se235  1  0.91135558  0.09732371  0.19423302  1
  Se  Se236  1  0.90237606  0.08932071  0.69111526  1
  Se  Se237  1  0.92269783  0.42970339  0.19426572  1
  Se  Se238  1  0.91728055  0.41254591  0.69724338  1
  Se  Se239  1  0.91906791  0.75414033  0.19110278  1
  Se  Se240  1  0.91741481  0.75175380  0.69099373  1
  Se  Se241  1  0.09322841  0.25155443  0.18632397  1
  Se  Se242  1  0.08125017  0.25211288  0.69822814  1
  Se  Se243  1  0.09847839  0.58556197  0.17853752  1
  Se  Se244  1  0.09215448  0.58223443  0.69981427  1
  Se  Se245  1  0.09657853  0.90785979  0.18695430  1
  Se  Se246  1  0.08875720  0.90929657  0.68856325  1
  Se  Se247  1  0.41653774  0.25067625  0.19485354  1
  Se  Se248  1  0.41629869  0.24940232  0.69061785  1
  Se  Se249  1  0.41486738  0.58476374  0.19384210  1
  Se  Se250  1  0.41349574  0.58477309  0.69536333  1
  Se  Se251  1  0.41885222  0.91712998  0.20138848  1
  Se  Se252  1  0.41897368  0.90187241  0.68968146  1
  Se  Se253  1  0.75096140  0.25726720  0.20457141  1
  Se  Se254  1  0.75046332  0.24385722  0.68679105  1
  Se  Se255  1  0.76515490  0.57932941  0.20218811  1
  Se  Se256  1  0.75183474  0.57701743  0.68505504  1
  Se  Se257  1  0.75848317  0.91138952  0.19197645  1
  Se  Se258  1  0.74688460  0.91108824  0.69366736  1
