# generated using pymatgen
data_In86Cu29Se144
_symmetry_space_group_name_H-M   'P 1'
_cell_length_a   17.58045134
_cell_length_b   17.57911683
_cell_length_c   23.44405779
_cell_angle_alpha   90.00884951
_cell_angle_beta   89.99021731
_cell_angle_gamma   89.98247409
_symmetry_Int_Tables_number   1
_chemical_formula_structural   In86Cu29Se144
_chemical_formula_sum   'In86 Cu29 Se144'
_cell_volume   7245.35758545
_cell_formula_units_Z   1
loop_
 _symmetry_equiv_pos_site_id
 _symmetry_equiv_pos_as_xyz
  1  'x, y, z'
loop_
 _atom_site_type_symbol
 _atom_site_label
 _atom_site_symmetry_multiplicity
 _atom_site_fract_x
 _atom_site_fract_y
 _atom_site_fract_z
 _atom_site_occupancy
  In  In0  1  0.00541268  0.18044020  0.12460581  1
  In  In1  1  0.00351843  0.16707407  0.62372837  1
  In  In2  1  -0.01211065  0.48698647  0.11638114  1
  In  In3  1  0.00644294  0.48242313  0.62782359  1
  In  In4  1  -0.00698440  0.83411279  0.12474272  1
  In  In5  1  0.01736216  0.84345323  0.61635733  1
  In  In6  1  0.35488354  0.16768364  0.12671093  1
  In  In7  1  0.32788129  0.15519697  0.62442189  1
  In  In8  1  0.33167421  0.49793805  0.13016973  1
  In  In9  1  0.33497051  0.51278320  0.62653089  1
  In  In10  1  0.32640201  0.82348343  0.13237563  1
  In  In11  1  0.33652568  0.83602538  0.62375806  1
  In  In12  1  0.66462742  0.16423888  0.12625651  1
  In  In13  1  0.65098849  0.14697896  0.60893290  1
  In  In14  1  0.67108695  0.49551727  0.12616184  1
  In  In15  1  0.67597732  0.50362453  0.62937452  1
  In  In16  1  0.67048359  0.83797880  0.14001508  1
  In  In17  1  0.65389089  0.84558553  0.63085973  1
  In  In18  1  0.15547208  0.00559718  0.39879974  1
  In  In19  1  0.16891271  0.01142252  0.85322776  1
  In  In20  1  0.16770160  0.33097520  0.37498910  1
  In  In21  1  0.17241121  0.34793349  0.87287305  1
  In  In22  1  0.17651962  0.66189690  0.38306794  1
  In  In23  1  0.16655823  0.65283955  0.87310557  1
  In  In24  1  0.49950446  -0.00019176  0.38139992  1
  In  In25  1  0.51107342  0.01894783  0.85686810  1
  In  In26  1  0.49544240  0.32242209  0.36273106  1
  In  In27  1  0.48857130  0.31601866  0.88176534  1
  In  In28  1  0.50282490  0.67581619  0.36854756  1
  In  In29  1  0.50493341  0.67077983  0.87013367  1
  In  In30  1  0.83561420  0.01135226  0.37682029  1
  In  In31  1  0.83914156  0.01110354  0.86522483  1
  In  In32  1  0.82258908  0.32099138  0.36413154  1
  In  In33  1  0.83941187  0.32416511  0.88427422  1
  In  In34  1  0.81606636  0.67269918  0.36958213  1
  In  In35  1  0.82453424  0.66957732  0.88067527  1
  In  In36  1  -0.00701105  0.17096832  0.38242549  1
  In  In37  1  -0.00925570  0.16122686  0.86187818  1
  In  In38  1  0.01482862  0.49565278  0.37652452  1
  In  In39  1  0.00599017  0.49076277  0.88196559  1
  In  In40  1  0.00058629  0.85107980  0.38539441  1
  In  In41  1  -0.00813802  0.84393938  0.86888371  1
  In  In42  1  0.33250977  0.16692019  0.37974514  1
  In  In43  1  0.33694039  0.16982210  0.86934120  1
  In  In44  1  0.32560730  0.49037640  0.36920301  1
  In  In45  1  0.32031344  0.49262744  0.87510834  1
  In  In46  1  0.33746875  0.83429532  0.38251087  1
  In  In47  1  0.33172747  0.83252142  0.86630517  1
  In  In48  1  0.66688757  0.16838411  0.37436344  1
  In  In49  1  0.66871470  0.16801248  0.87782750  1
  In  In50  1  0.66246138  0.49718173  0.36400235  1
  In  In51  1  0.66979076  0.51515267  0.88413264  1
  In  In52  1  0.65468735  0.82226440  0.36670978  1
  In  In53  1  0.66341457  0.83390707  0.86776488  1
  In  In54  1  0.16224456  -0.00291481  0.12605447  1
  In  In55  1  0.16958344  0.01099122  0.62783483  1
  In  In56  1  0.15658588  0.34105399  0.13426185  1
  In  In57  1  0.15551302  0.31878388  0.61336157  1
  In  In58  1  0.18450487  0.65569468  0.13249221  1
  In  In59  1  0.18279564  0.67815313  0.61448044  1
  In  In60  1  0.51130504  0.01571060  0.12243712  1
  In  In61  1  0.50203810  0.00176049  0.62516057  1
  In  In62  1  0.50664635  0.32256541  0.13696337  1
  In  In63  1  0.50430853  0.31788466  0.62175221  1
  In  In64  1  0.50209443  0.65972905  0.13100983  1
  In  In65  1  0.48944129  0.67715354  0.63290615  1
  In  In66  1  0.81269128  -0.00025210  0.12564041  1
  In  In67  1  0.82044245  0.01018995  0.62916121  1
  In  In68  1  0.83361837  0.33060299  0.12373419  1
  In  In69  1  0.85064692  0.32623502  0.63021073  1
  In  In70  1  0.83324766  0.66046471  0.12387514  1
  In  In71  1  0.82465696  0.66314990  0.62995675  1
  In  In72  1  0.50130010  0.83349542  -0.00919504  1
  In  In73  1  0.66900990  0.33321213  0.75562259  1
  In  In74  1  0.16448293  0.83389315  -0.00014363  1
  In  In75  1  0.00246462  0.67442082  0.74697647  1
  In  In76  1  0.49784970  0.49590263  0.49606685  1
  In  In77  1  0.17328925  0.18144122  -0.00695674  1
  In  In78  1  0.33618127  0.00177520  0.26138879  1
  In  In79  1  0.50307431  0.49096425  0.00669927  1
  In  In80  1  0.83283677  0.83606625  0.00108687  1
  In  In81  1  0.83128167  0.83233576  0.49871390  1
  In  In82  1  -0.00656828  0.66428461  0.25102709  1
  In  In83  1  0.83501983  0.49413653  0.50283813  1
  In  In84  1  0.32771676  0.32883166  0.74661578  1
  In  In85  1  -0.00707454  0.00396089  0.26313166  1
  Cu  Cu86  1  0.66802538  0.33084604  0.00765508  1
  Cu  Cu87  1  0.82670768  0.17105853  0.74823910  1
  Cu  Cu88  1  0.49111444  0.83705490  0.25322891  1
  Cu  Cu89  1  0.66570191  0.00018578  0.49948871  1
  Cu  Cu90  1  0.66289549  0.00691928  -0.00330594  1
  Cu  Cu91  1  0.65533746  0.66825005  0.49742134  1
  Cu  Cu92  1  0.83222791  0.83993891  0.74845849  1
  Cu  Cu93  1  0.16531481  0.82981922  0.25980838  1
  Cu  Cu94  1  0.49931563  0.83180102  0.74781621  1
  Cu  Cu95  1  0.17560835  0.17167525  0.25282135  1
  Cu  Cu96  1  0.49581499  0.50576283  0.24901086  1
  Cu  Cu97  1  0.00845040  0.65867192  0.00213220  1
  Cu  Cu98  1  0.83345491  0.16731795  0.24799535  1
  Cu  Cu99  1  0.00318112  0.33036914  0.49946952  1
  Cu  Cu100  1  0.16718014  0.50312477  0.74923587  1
  Cu  Cu101  1  0.83299241  0.50713906  0.75440461  1
  Cu  Cu102  1  0.00368507  0.66027574  0.49915699  1
  Cu  Cu103  1  0.16546019  0.49593003  0.25285034  1
  Cu  Cu104  1  0.33497480  0.66996918  0.50136763  1
  Cu  Cu105  1  0.50218133  0.50200815  0.75344254  1
  Cu  Cu106  1  0.33603055  0.65598544  0.00207181  1
  Cu  Cu107  1  -0.00344599  0.33371593  0.00059055  1
  Cu  Cu108  1  0.33199954  0.33167028  0.49376061  1
  Cu  Cu109  1  0.33529581  0.00137637  0.50549283  1
  Cu  Cu110  1  0.17309402  0.83534017  0.73975599  1
  Cu  Cu111  1  0.67347476  0.32061203  0.49465953  1
  Cu  Cu112  1  -0.00046140  0.01258662  -0.01092615  1
  Cu  Cu113  1  0.34186781  0.00293806  -0.00278249  1
  Cu  Cu114  1  0.83569328  0.49517628  0.24356864  1
  Se  Se115  1  0.08345793  0.08251181  0.05370375  1
  Se  Se116  1  0.08687246  0.08646800  0.55532857  1
  Se  Se117  1  0.08519387  0.41321741  0.05292626  1
  Se  Se118  1  0.08571923  0.41910986  0.54819651  1
  Se  Se119  1  0.08199107  0.74054044  0.06496471  1
  Se  Se120  1  0.08478316  0.74772030  0.54979714  1
  Se  Se121  1  0.42368790  0.08578885  0.05003615  1
  Se  Se122  1  0.42141902  0.08627394  0.55486889  1
  Se  Se123  1  0.41381937  0.40398205  0.06556131  1
  Se  Se124  1  0.40979653  0.40776637  0.56046121  1
  Se  Se125  1  0.41205428  0.74493950  0.05716114  1
  Se  Se126  1  0.42027501  0.75197496  0.55358788  1
  Se  Se127  1  0.74845228  0.08622321  0.05152140  1
  Se  Se128  1  0.75575384  0.08407761  0.54571095  1
  Se  Se129  1  0.75287928  0.41717128  0.05471771  1
  Se  Se130  1  0.74334252  0.40272486  0.56104481  1
  Se  Se131  1  0.74149265  0.75112278  0.06176476  1
  Se  Se132  1  0.73859814  0.74426538  0.55924129  1
  Se  Se133  1  0.25103438  0.25145383  0.07124575  1
  Se  Se134  1  0.25640411  0.24709285  0.55377564  1
  Se  Se135  1  0.25085555  0.57554898  0.05471088  1
  Se  Se136  1  0.25322232  0.57964538  0.54935000  1
  Se  Se137  1  0.26238402  0.92364150  0.05779964  1
  Se  Se138  1  0.25003600  0.92065348  0.55968623  1
  Se  Se139  1  0.58107993  0.24899147  0.05771736  1
  Se  Se140  1  0.57980018  0.24533079  0.54457246  1
  Se  Se141  1  0.59146041  0.59108569  0.05676980  1
  Se  Se142  1  0.58384174  0.58481854  0.56162742  1
  Se  Se143  1  0.59139770  0.91760807  0.05608459  1
  Se  Se144  1  0.58095836  0.91686259  0.55177814  1
  Se  Se145  1  0.91614608  0.24682845  0.05271491  1
  Se  Se146  1  0.91719739  0.24839325  0.55160728  1
  Se  Se147  1  0.91564989  0.58382140  0.05261853  1
  Se  Se148  1  0.92320356  0.58770255  0.56324082  1
  Se  Se149  1  0.92536115  0.93278732  0.05578166  1
  Se  Se150  1  0.91321182  0.92319783  0.56130682  1
  Se  Se151  1  0.08760295  0.24755426  0.44579613  1
  Se  Se152  1  0.07234537  0.25783511  0.93346147  1
  Se  Se153  1  0.08911307  0.57812142  0.44826609  1
  Se  Se154  1  0.09106942  0.57680710  0.94794196  1
  Se  Se155  1  0.08896474  0.90507240  0.46142614  1
  Se  Se156  1  0.08229390  0.92765730  0.93616903  1
  Se  Se157  1  0.42176200  0.25262074  0.44355043  1
  Se  Se158  1  0.39450405  0.25244133  0.94936740  1
  Se  Se159  1  0.41095917  0.58892661  0.43691577  1
  Se  Se160  1  0.41835987  0.58237026  0.93964618  1
  Se  Se161  1  0.41785347  0.91802352  0.45087627  1
  Se  Se162  1  0.41499849  0.92554714  0.93182980  1
  Se  Se163  1  0.76190905  0.24052758  0.44480291  1
  Se  Se164  1  0.74833031  0.24754742  0.94985618  1
  Se  Se165  1  0.73949601  0.58406954  0.44407322  1
  Se  Se166  1  0.75952147  0.58313307  0.95400789  1
  Se  Se167  1  0.74058580  0.91794701  0.43609975  1
  Se  Se168  1  0.74500750  0.92585405  0.93745104  1
  Se  Se169  1  0.25360541  0.08779573  0.45295210  1
  Se  Se170  1  0.24970427  0.07296451  0.93923284  1
  Se  Se171  1  0.24760704  0.41749215  0.44547071  1
  Se  Se172  1  0.25685986  0.40772404  0.94973438  1
  Se  Se173  1  0.24956323  0.75444549  0.44999118  1
  Se  Se174  1  0.25739306  0.74097415  0.94279278  1
  Se  Se175  1  0.58533858  0.08638986  0.44517081  1
  Se  Se176  1  0.57685550  0.08614311  0.94234935  1
  Se  Se177  1  0.59279621  0.40803357  0.43966470  1
  Se  Se178  1  0.59010672  0.40384676  0.93910594  1
  Se  Se179  1  0.57525049  0.75437378  0.44589319  1
  Se  Se180  1  0.59892862  0.73964266  0.94373154  1
  Se  Se181  1  0.94226012  0.05834437  0.44234038  1
  Se  Se182  1  0.91093047  0.09275078  0.94100500  1
  Se  Se183  1  0.91929682  0.40723850  0.43755384  1
  Se  Se184  1  0.91228425  0.42004369  0.94947309  1
  Se  Se185  1  0.91970844  0.73630022  0.43886152  1
  Se  Se186  1  0.93208340  0.74635081  0.94404941  1
  Se  Se187  1  0.25793894  0.25237980  0.30748953  1
  Se  Se188  1  0.23332152  0.24271367  0.80542619  1
  Se  Se189  1  0.24608177  0.58352820  0.30478235  1
  Se  Se190  1  0.25460341  0.58273872  0.80124401  1
  Se  Se191  1  0.23632034  0.91905792  0.31856291  1
  Se  Se192  1  0.25418750  0.91702274  0.79696625  1
  Se  Se193  1  0.60711078  0.26788561  0.30534427  1
  Se  Se194  1  0.57155228  0.24203796  0.80622683  1
  Se  Se195  1  0.58190373  0.58802284  0.30119077  1
  Se  Se196  1  0.58836557  0.58218620  0.80639555  1
  Se  Se197  1  0.57486723  0.91864835  0.30685365  1
  Se  Se198  1  0.58451321  0.91693407  0.79862461  1
  Se  Se199  1  0.92124046  0.24522315  0.30273752  1
  Se  Se200  1  0.90903858  0.25660693  0.80100891  1
  Se  Se201  1  0.90713374  0.57161784  0.31374016  1
  Se  Se202  1  0.91839570  0.58565053  0.81249730  1
  Se  Se203  1  0.90238343  0.90303252  0.31021226  1
  Se  Se204  1  0.91878309  0.92493257  0.79603083  1
  Se  Se205  1  0.09603382  0.08908886  0.31305049  1
  Se  Se206  1  0.07133449  0.08162551  0.79271958  1
  Se  Se207  1  0.08191753  0.40993908  0.30283833  1
  Se  Se208  1  0.08331409  0.42145682  0.80275417  1
  Se  Se209  1  0.07914324  0.75251248  0.31728030  1
  Se  Se210  1  0.09547466  0.76159677  0.80920431  1
  Se  Se211  1  0.43067238  0.09647257  0.30881241  1
  Se  Se212  1  0.39915212  0.07533975  0.79990158  1
  Se  Se213  1  0.41675676  0.41784181  0.30167163  1
  Se  Se214  1  0.42256808  0.41716583  0.80938541  1
  Se  Se215  1  0.40713911  0.75343476  0.30510557  1
  Se  Se216  1  0.41741376  0.74728232  0.80227057  1
  Se  Se217  1  0.75275591  0.08574418  0.30477146  1
  Se  Se218  1  0.74395624  0.08793365  0.80264938  1
  Se  Se219  1  0.74965777  0.41542002  0.29894653  1
  Se  Se220  1  0.75632364  0.42492657  0.81584212  1
  Se  Se221  1  0.73941188  0.74608811  0.29619899  1
  Se  Se222  1  0.75675726  0.75342291  0.80522461  1
  Se  Se223  1  0.24619898  0.08479796  0.19165311  1
  Se  Se224  1  0.25456471  0.08288986  0.70177378  1
  Se  Se225  1  0.25134835  0.41426568  0.20009255  1
  Se  Se226  1  0.24209297  0.42126760  0.68512504  1
  Se  Se227  1  0.24772706  0.74718125  0.20604951  1
  Se  Se228  1  0.25747343  0.74670323  0.69396051  1
  Se  Se229  1  0.59588394  0.07430165  0.19848660  1
  Se  Se230  1  0.58922648  0.08136931  0.69355138  1
  Se  Se231  1  0.58160620  0.42352685  0.19582574  1
  Se  Se232  1  0.57584048  0.42075357  0.69037557  1
  Se  Se233  1  0.57411647  0.75481435  0.19663831  1
  Se  Se234  1  0.58739348  0.74713725  0.69779428  1
  Se  Se235  1  0.91581129  0.08643150  0.18805262  1
  Se  Se236  1  0.91133425  0.09036958  0.69294248  1
  Se  Se237  1  0.92027541  0.40952595  0.19516495  1
  Se  Se238  1  0.91313145  0.42236378  0.70061888  1
  Se  Se239  1  0.90433485  0.75975910  0.19452430  1
  Se  Se240  1  0.91242401  0.76301804  0.68485526  1
  Se  Se241  1  0.08318162  0.24851323  0.20259030  1
  Se  Se242  1  0.06660461  0.26788802  0.69091520  1
  Se  Se243  1  0.08245270  0.57383576  0.19042191  1
  Se  Se244  1  0.09101931  0.58497400  0.68578153  1
  Se  Se245  1  0.08512129  0.90830983  0.19856665  1
  Se  Se246  1  0.08508807  0.92013543  0.69455021  1
  Se  Se247  1  0.41874937  0.24525060  0.20504194  1
  Se  Se248  1  0.42394692  0.23857780  0.69400355  1
  Se  Se249  1  0.40917945  0.58786607  0.19750261  1
  Se  Se250  1  0.41675491  0.58411562  0.70087004  1
  Se  Se251  1  0.41778236  0.91741227  0.18779352  1
  Se  Se252  1  0.41920428  0.91680072  0.69363539  1
  Se  Se253  1  0.75034033  0.24943792  0.19285456  1
  Se  Se254  1  0.74501193  0.24578499  0.68463764  1
  Se  Se255  1  0.75176032  0.58220084  0.19518039  1
  Se  Se256  1  0.74531652  0.58781353  0.70417795  1
  Se  Se257  1  0.74970521  0.92431424  0.20523513  1
  Se  Se258  1  0.74481599  0.92103308  0.69733859  1
