# generated using pymatgen
data_In86Cu29Se144
_symmetry_space_group_name_H-M   'P 1'
_cell_length_a   17.56899695
_cell_length_b   17.57068963
_cell_length_c   23.42814463
_cell_angle_alpha   89.99477697
_cell_angle_beta   90.00287586
_cell_angle_gamma   89.98770684
_symmetry_Int_Tables_number   1
_chemical_formula_structural   In86Cu29Se144
_chemical_formula_sum   'In86 Cu29 Se144'
_cell_volume   7232.25380783
_cell_formula_units_Z   1
loop_
 _symmetry_equiv_pos_site_id
 _symmetry_equiv_pos_as_xyz
  1  'x, y, z'
loop_
 _atom_site_type_symbol
 _atom_site_label
 _atom_site_symmetry_multiplicity
 _atom_site_fract_x
 _atom_site_fract_y
 _atom_site_fract_z
 _atom_site_occupancy
  In  In0  1  -0.00233176  0.14903041  0.12501402  1
  In  In1  1  -0.00092068  0.16273468  0.62545209  1
  In  In2  1  -0.00273929  0.51795332  0.12473677  1
  In  In3  1  -0.00954531  0.48204663  0.62890213  1
  In  In4  1  0.00111967  0.83975081  0.12058455  1
  In  In5  1  0.01162780  0.84671529  0.61568036  1
  In  In6  1  0.32217578  0.16803127  0.12360278  1
  In  In7  1  0.32708316  0.16915484  0.61741039  1
  In  In8  1  0.34139048  0.48634236  0.12421633  1
  In  In9  1  0.31022168  0.46359037  0.59560735  1
  In  In10  1  0.33113522  0.84618356  0.12571690  1
  In  In11  1  0.32943864  0.84867730  0.62642237  1
  In  In12  1  0.66713978  0.15981689  0.14445244  1
  In  In13  1  0.67622056  0.17647831  0.61233646  1
  In  In14  1  0.66549382  0.50062153  0.11869241  1
  In  In15  1  0.65590757  0.49728868  0.62025529  1
  In  In16  1  0.67481513  0.83540211  0.13547889  1
  In  In17  1  0.67399121  0.82263640  0.61700149  1
  In  In18  1  0.16292511  0.00292774  0.37369190  1
  In  In19  1  0.16638553  0.00290553  0.87283355  1
  In  In20  1  0.18479231  0.32216315  0.40096020  1
  In  In21  1  0.15925830  0.31925835  0.86310281  1
  In  In22  1  0.15396801  0.67334511  0.39562907  1
  In  In23  1  0.17508373  0.67373436  0.87769676  1
  In  In24  1  0.50550565  0.02616830  0.35983366  1
  In  In25  1  0.50103452  0.01076985  0.87416712  1
  In  In26  1  0.51681753  0.31503011  0.39383439  1
  In  In27  1  0.51004279  0.33854358  0.86230266  1
  In  In28  1  0.51171430  0.65797856  0.37428555  1
  In  In29  1  0.49764706  0.65460619  0.88101121  1
  In  In30  1  0.83911292  -0.00241176  0.37324189  1
  In  In31  1  0.83764490  -0.01369709  0.87806599  1
  In  In32  1  0.81558557  0.33752376  0.37679085  1
  In  In33  1  0.83867987  0.34462921  0.86394535  1
  In  In34  1  0.83344397  0.69413350  0.37025904  1
  In  In35  1  0.83343944  0.66400547  0.88568954  1
  In  In36  1  0.00932088  0.15738100  0.38300832  1
  In  In37  1  0.00918365  0.17611243  0.86754189  1
  In  In38  1  0.00927649  0.50971418  0.38121721  1
  In  In39  1  -0.00428410  0.48846249  0.86883466  1
  In  In40  1  -0.01824570  0.84566685  0.38767224  1
  In  In41  1  -0.00717488  0.84099993  0.87865513  1
  In  In42  1  0.34580962  0.15745787  0.39047832  1
  In  In43  1  0.32631658  0.15516368  0.86285532  1
  In  In44  1  0.34520345  0.49085060  0.39262709  1
  In  In45  1  0.34397958  0.49347000  0.87115070  1
  In  In46  1  0.31795133  0.84215910  0.37640774  1
  In  In47  1  0.31738595  0.83551346  0.87863313  1
  In  In48  1  0.66640276  0.16826630  0.37644204  1
  In  In49  1  0.65606585  0.17139458  0.87516903  1
  In  In50  1  0.65955126  0.49176763  0.36581734  1
  In  In51  1  0.67912398  0.48782151  0.89126961  1
  In  In52  1  0.68945532  0.85603256  0.35033622  1
  In  In53  1  0.68512023  0.83352834  0.88925807  1
  In  In54  1  0.16534636  -0.00151440  0.12331408  1
  In  In55  1  0.16493914  0.00205555  0.62162504  1
  In  In56  1  0.18255268  0.33303776  0.12306523  1
  In  In57  1  0.16527252  0.32194040  0.62306146  1
  In  In58  1  0.15077589  0.67192180  0.12669274  1
  In  In59  1  0.15926439  0.66974310  0.61373887  1
  In  In60  1  0.50296185  -0.00233759  0.14392531  1
  In  In61  1  0.48228218  0.00450781  0.62408354  1
  In  In62  1  0.50173646  0.34489093  0.12054359  1
  In  In63  1  0.49711903  0.33093190  0.62017110  1
  In  In64  1  0.52979122  0.66240236  0.12118296  1
  In  In65  1  0.50468424  0.65326655  0.62215046  1
  In  In66  1  0.83654305  -0.00661325  0.13473800  1
  In  In67  1  0.84042744  0.00909007  0.61668841  1
  In  In68  1  0.82056328  0.33210812  0.12593240  1
  In  In69  1  0.84640548  0.32475875  0.63968948  1
  In  In70  1  0.82134785  0.66655234  0.11275903  1
  In  In71  1  0.82602048  0.66831211  0.61998372  1
  In  In72  1  0.33679391  0.66408163  0.75058979  1
  In  In73  1  0.34560743  0.31939877  0.26612796  1
  In  In74  1  -0.00545251  0.67185791  0.25518230  1
  In  In75  1  -0.00293870  0.66329525  0.75231166  1
  In  In76  1  0.83476006  0.16584226  0.00693901  1
  In  In77  1  0.00178985  0.33144104  0.25570522  1
  In  In78  1  0.66619846  0.66018179  0.75120624  1
  In  In79  1  0.83632765  0.50203363  0.50026091  1
  In  In80  1  0.50454744  0.83869009  0.49331254  1
  In  In81  1  0.33395760  0.66296603  0.25850477  1
  In  In82  1  0.66686982  0.00276661  0.75316480  1
  In  In83  1  0.50061464  0.83208472  0.01186082  1
  In  In84  1  0.16274913  0.50253866  -0.00385550  1
  In  In85  1  0.49774057  0.16756642  0.00089622  1
  Cu  Cu86  1  0.17556174  0.49586445  0.26609394  1
  Cu  Cu87  1  0.32758652  0.00139960  0.49897895  1
  Cu  Cu88  1  0.16874312  0.16194812  0.74288317  1
  Cu  Cu89  1  0.49769953  0.16734476  0.74392912  1
  Cu  Cu90  1  0.49952919  0.83640600  0.75218738  1
  Cu  Cu91  1  0.66677516  -0.00208697  0.48959107  1
  Cu  Cu92  1  0.15986283  0.15805068  0.25014837  1
  Cu  Cu93  1  -0.00129922  0.00053094  0.49914564  1
  Cu  Cu94  1  0.16778405  0.84471294  0.74753688  1
  Cu  Cu95  1  0.33139677  0.32358858  -0.00625304  1
  Cu  Cu96  1  0.33223369  0.66509178  0.00059754  1
  Cu  Cu97  1  0.16262497  0.83990015  0.25076584  1
  Cu  Cu98  1  0.83430174  0.16288023  0.25462527  1
  Cu  Cu99  1  0.49461224  0.48818185  0.74225022  1
  Cu  Cu100  1  0.67857994  0.67482496  0.49011513  1
  Cu  Cu101  1  0.34221400  0.67346777  0.49650268  1
  Cu  Cu102  1  -0.00622828  0.67589462  0.00047901  1
  Cu  Cu103  1  0.66792182  0.33063054  0.50148601  1
  Cu  Cu104  1  0.82550823  0.50101463  0.24606914  1
  Cu  Cu105  1  0.00512734  0.00073129  -0.00026465  1
  Cu  Cu106  1  0.66834562  0.33485837  -0.00048285  1
  Cu  Cu107  1  0.00155181  0.33618046  -0.00792110  1
  Cu  Cu108  1  0.49451359  0.83500152  0.24776912  1
  Cu  Cu109  1  0.16956182  0.48897163  0.74170155  1
  Cu  Cu110  1  0.32828820  0.00074713  -0.00042939  1
  Cu  Cu111  1  0.83981397  0.83778114  0.74791409  1
  Cu  Cu112  1  0.83498484  0.16547963  0.74477924  1
  Cu  Cu113  1  -0.00363815  0.32695208  0.50810196  1
  Cu  Cu114  1  0.50711816  0.50063042  0.24673278  1
  Se  Se115  1  0.08775041  0.08605034  0.05194455  1
  Se  Se116  1  0.08151170  0.08469432  0.55295403  1
  Se  Se117  1  0.07676721  0.41305712  0.06174446  1
  Se  Se118  1  0.07941258  0.41225077  0.55889135  1
  Se  Se119  1  0.08347699  0.75434558  0.05126065  1
  Se  Se120  1  0.08234568  0.75574249  0.54770817  1
  Se  Se121  1  0.41286312  0.07328339  0.06202928  1
  Se  Se122  1  0.41457552  0.08602519  0.54813078  1
  Se  Se123  1  0.41258918  0.41007675  0.04625666  1
  Se  Se124  1  0.44334750  0.43956046  0.55574012  1
  Se  Se125  1  0.40906946  0.73749070  0.06866453  1
  Se  Se126  1  0.41862866  0.75293157  0.56218693  1
  Se  Se127  1  0.74429563  0.08036771  0.06748420  1
  Se  Se128  1  0.74813549  0.07990425  0.54796316  1
  Se  Se129  1  0.75476918  0.41724221  0.05119563  1
  Se  Se130  1  0.75237372  0.40811329  0.56170713  1
  Se  Se131  1  0.73416000  0.75538169  0.05423165  1
  Se  Se132  1  0.76228408  0.75591733  0.54391366  1
  Se  Se133  1  0.24557310  0.24574375  0.04765355  1
  Se  Se134  1  0.25414839  0.25823439  0.54812324  1
  Se  Se135  1  0.25164835  0.58566018  0.06487251  1
  Se  Se136  1  0.26374385  0.59578868  0.55868979  1
  Se  Se137  1  0.24631032  0.91412784  0.05161550  1
  Se  Se138  1  0.24596677  0.91570640  0.55123832  1
  Se  Se139  1  0.59519046  0.24974301  0.06155995  1
  Se  Se140  1  0.57733749  0.24644520  0.54823651  1
  Se  Se141  1  0.56951999  0.56389440  0.04784723  1
  Se  Se142  1  0.59729079  0.59462960  0.54824568  1
  Se  Se143  1  0.58645465  0.92834051  0.06660504  1
  Se  Se144  1  0.59017160  0.92663349  0.56084817  1
  Se  Se145  1  0.92841723  0.26003013  0.06255288  1
  Se  Se146  1  0.90941251  0.24548667  0.55897831  1
  Se  Se147  1  0.91464077  0.58438371  0.04934483  1
  Se  Se148  1  0.92771627  0.58830197  0.56170565  1
  Se  Se149  1  0.91629723  0.92522478  0.05506210  1
  Se  Se150  1  0.91246017  0.91486161  0.54989054  1
  Se  Se151  1  0.08159854  0.24472781  0.45472703  1
  Se  Se152  1  0.08637254  0.25036304  0.94487525  1
  Se  Se153  1  0.09148189  0.57073622  0.45856564  1
  Se  Se154  1  0.07046368  0.59381164  0.93643948  1
  Se  Se155  1  0.08426307  0.91846832  0.44537307  1
  Se  Se156  1  0.08620829  0.91770415  0.94302257  1
  Se  Se157  1  0.38879298  0.28102652  0.44021297  1
  Se  Se158  1  0.41449682  0.24988531  0.93120494  1
  Se  Se159  1  0.42828245  0.58879946  0.44899913  1
  Se  Se160  1  0.40958481  0.57734421  0.94849540  1
  Se  Se161  1  0.41441177  0.93007209  0.43550342  1
  Se  Se162  1  0.41468823  0.92102473  0.94286575  1
  Se  Se163  1  0.75178897  0.24663978  0.44896861  1
  Se  Se164  1  0.74933887  0.25364045  0.94037271  1
  Se  Se165  1  0.75096652  0.58518154  0.43129886  1
  Se  Se166  1  0.73654972  0.59621495  0.94970143  1
  Se  Se167  1  0.75163203  0.91251989  0.44105864  1
  Se  Se168  1  0.75049199  0.92942230  0.95451328  1
  Se  Se169  1  0.24155078  0.08518447  0.44699094  1
  Se  Se170  1  0.25111804  0.08562778  0.94267811  1
  Se  Se171  1  0.24116066  0.43439173  0.45764339  1
  Se  Se172  1  0.24959617  0.40887236  0.93655467  1
  Se  Se173  1  0.25231390  0.75653843  0.45124257  1
  Se  Se174  1  0.24735751  0.75197163  0.95391971  1
  Se  Se175  1  0.57925584  0.08515555  0.44495428  1
  Se  Se176  1  0.59482886  0.07379148  0.94848114  1
  Se  Se177  1  0.59030544  0.42141762  0.44869524  1
  Se  Se178  1  0.57583364  0.40942844  0.94623370  1
  Se  Se179  1  0.59834395  0.75720552  0.43117592  1
  Se  Se180  1  0.58453268  0.74549702  0.94365435  1
  Se  Se181  1  0.91287346  0.08308165  0.44672264  1
  Se  Se182  1  0.92509132  0.08403912  0.94012736  1
  Se  Se183  1  0.92438235  0.40643835  0.44050536  1
  Se  Se184  1  0.91325390  0.41796083  0.94430822  1
  Se  Se185  1  0.94137652  0.72194933  0.43964511  1
  Se  Se186  1  0.90991462  0.75972588  0.94765712  1
  Se  Se187  1  0.23592173  0.23992867  0.31300467  1
  Se  Se188  1  0.25246427  0.24761202  0.79578247  1
  Se  Se189  1  0.24810013  0.58070413  0.32591661  1
  Se  Se190  1  0.23992046  0.57228295  0.80756732  1
  Se  Se191  1  0.24788714  0.92415162  0.30138519  1
  Se  Se192  1  0.25432820  0.92177839  0.80321691  1
  Se  Se193  1  0.57947196  0.25026143  0.30945413  1
  Se  Se194  1  0.58620304  0.24613991  0.79631650  1
  Se  Se195  1  0.59055720  0.58736726  0.29696124  1
  Se  Se196  1  0.56971527  0.57140993  0.80468982  1
  Se  Se197  1  0.57532960  0.92187646  0.30066932  1
  Se  Se198  1  0.58453438  0.90596039  0.81592064  1
  Se  Se199  1  0.91091953  0.24499394  0.31658530  1
  Se  Se200  1  0.91616032  0.25029409  0.80122704  1
  Se  Se201  1  0.90710412  0.57285014  0.31131706  1
  Se  Se202  1  0.90025318  0.57664722  0.80772216  1
  Se  Se203  1  0.90733414  0.90183001  0.30469387  1
  Se  Se204  1  0.92191223  0.92086372  0.80110068  1
  Se  Se205  1  0.07332143  0.07830032  0.30267177  1
  Se  Se206  1  0.08485318  0.08373119  0.80167144  1
  Se  Se207  1  0.09526097  0.41101943  0.32088972  1
  Se  Se208  1  0.08268212  0.41423485  0.79948653  1
  Se  Se209  1  0.09010247  0.75656512  0.31332590  1
  Se  Se210  1  0.09132167  0.75801177  0.80682414  1
  Se  Se211  1  0.40315347  0.09721896  0.30124681  1
  Se  Se212  1  0.42043250  0.07842245  0.79765596  1
  Se  Se213  1  0.42993285  0.42593189  0.31220951  1
  Se  Se214  1  0.41021045  0.40700099  0.79689678  1
  Se  Se215  1  0.42167112  0.75818397  0.31574955  1
  Se  Se216  1  0.42251062  0.75629167  0.81459211  1
  Se  Se217  1  0.74950739  0.08221872  0.30908147  1
  Se  Se218  1  0.75948577  0.09087708  0.81358801  1
  Se  Se219  1  0.74607238  0.41179051  0.29706711  1
  Se  Se220  1  0.73364536  0.41350302  0.80673837  1
  Se  Se221  1  0.73920872  0.73849410  0.29501930  1
  Se  Se222  1  0.75876694  0.75648239  0.80665467  1
  Se  Se223  1  0.24707382  0.08241328  0.19372113  1
  Se  Se224  1  0.25393202  0.08058938  0.68926194  1
  Se  Se225  1  0.25282313  0.41784055  0.20257194  1
  Se  Se226  1  0.25377626  0.40830816  0.68889258  1
  Se  Se227  1  0.24235202  0.75202417  0.19509153  1
  Se  Se228  1  0.24338610  0.75426984  0.69178386  1
  Se  Se229  1  0.57032391  0.09365041  0.20903661  1
  Se  Se230  1  0.58224182  0.08752080  0.68528894  1
  Se  Se231  1  0.58803103  0.41577446  0.19232277  1
  Se  Se232  1  0.58486632  0.40970282  0.69152835  1
  Se  Se233  1  0.58128718  0.75253487  0.19814888  1
  Se  Se234  1  0.57605459  0.75648735  0.69109703  1
  Se  Se235  1  0.91921802  0.08084202  0.20196028  1
  Se  Se236  1  0.91700359  0.07790367  0.69586724  1
  Se  Se237  1  0.91631434  0.42450927  0.19137413  1
  Se  Se238  1  0.91262295  0.41956109  0.70766287  1
  Se  Se239  1  0.91086376  0.75026963  0.18431287  1
  Se  Se240  1  0.91534138  0.75504797  0.68699906  1
  Se  Se241  1  0.09039547  0.24723908  0.18897105  1
  Se  Se242  1  0.08023876  0.24681257  0.69534616  1
  Se  Se243  1  0.09414967  0.57356730  0.20350449  1
  Se  Se244  1  0.09015737  0.57776753  0.68959457  1
  Se  Se245  1  0.07992456  0.91902087  0.19365839  1
  Se  Se246  1  0.08061716  0.92322295  0.69446076  1
  Se  Se247  1  0.42146461  0.24819697  0.18535642  1
  Se  Se248  1  0.41380787  0.24741732  0.68856153  1
  Se  Se249  1  0.42186844  0.58030023  0.18975511  1
  Se  Se250  1  0.41356479  0.57152113  0.68573921  1
  Se  Se251  1  0.40453945  0.91919179  0.20315236  1
  Se  Se252  1  0.41584869  0.91852377  0.69982159  1
  Se  Se253  1  0.75447541  0.25088921  0.20281578  1
  Se  Se254  1  0.74465187  0.24541767  0.69579527  1
  Se  Se255  1  0.74899706  0.58361854  0.18787582  1
  Se  Se256  1  0.75536323  0.57313898  0.68881774  1
  Se  Se257  1  0.74355693  0.92695689  0.20480461  1
  Se  Se258  1  0.75236327  0.91190940  0.68881842  1
