# generated using pymatgen
data_In86Cu29Se144
_symmetry_space_group_name_H-M   'P 1'
_cell_length_a   17.57516963
_cell_length_b   17.57567093
_cell_length_c   23.42854318
_cell_angle_alpha   89.99805401
_cell_angle_beta   90.00443414
_cell_angle_gamma   90.00222992
_symmetry_Int_Tables_number   1
_chemical_formula_structural   In86Cu29Se144
_chemical_formula_sum   'In86 Cu29 Se144'
_cell_volume   7236.96913704
_cell_formula_units_Z   1
loop_
 _symmetry_equiv_pos_site_id
 _symmetry_equiv_pos_as_xyz
  1  'x, y, z'
loop_
 _atom_site_type_symbol
 _atom_site_label
 _atom_site_symmetry_multiplicity
 _atom_site_fract_x
 _atom_site_fract_y
 _atom_site_fract_z
 _atom_site_occupancy
  In  In0  1  0.00128616  0.16950761  0.11350194  1
  In  In1  1  -0.01064714  0.15952494  0.62508129  1
  In  In2  1  -0.00415665  0.49815664  0.11143435  1
  In  In3  1  -0.01354347  0.51369992  0.63340134  1
  In  In4  1  0.00211660  0.81895051  0.11497513  1
  In  In5  1  -0.00294994  0.84591277  0.64259731  1
  In  In6  1  0.33994492  0.17582575  0.11462994  1
  In  In7  1  0.33836157  0.16501782  0.62166959  1
  In  In8  1  0.32710945  0.50100593  0.12254211  1
  In  In9  1  0.34563774  0.49331871  0.63409055  1
  In  In10  1  0.33550135  0.83754866  0.10378501  1
  In  In11  1  0.32372925  0.84020894  0.64370570  1
  In  In12  1  0.66065279  0.16949309  0.11351066  1
  In  In13  1  0.66584572  0.16757234  0.63007440  1
  In  In14  1  0.67222416  0.49004382  0.12134590  1
  In  In15  1  0.66022644  0.50752783  0.62452073  1
  In  In16  1  0.66412074  0.84487594  0.11670829  1
  In  In17  1  0.68140844  0.82111911  0.63471792  1
  In  In18  1  0.17981832  0.01060307  0.37968972  1
  In  In19  1  0.17166647  -0.00192926  0.86593834  1
  In  In20  1  0.16639618  0.32025863  0.37919243  1
  In  In21  1  0.17612319  0.32135727  0.88302435  1
  In  In22  1  0.17096326  0.67019096  0.37885801  1
  In  In23  1  0.16683060  0.66695593  0.86719618  1
  In  In24  1  0.50310792  -0.00507868  0.38474009  1
  In  In25  1  0.49932818  0.00400979  0.86823270  1
  In  In26  1  0.49256762  0.33387463  0.37470049  1
  In  In27  1  0.49541424  0.32539337  0.86873554  1
  In  In28  1  0.50205124  0.65623471  0.38651553  1
  In  In29  1  0.51222211  0.67641809  0.86738932  1
  In  In30  1  0.82299692  0.00854403  0.39270794  1
  In  In31  1  0.84381186  0.00495443  0.86509119  1
  In  In32  1  0.82473413  0.33991329  0.39109844  1
  In  In33  1  0.82612992  0.34084053  0.87526123  1
  In  In34  1  0.83556584  0.65977325  0.39696635  1
  In  In35  1  0.83325376  0.65294471  0.86008832  1
  In  In36  1  0.00000054  0.16971474  0.38786019  1
  In  In37  1  0.01065552  0.15351823  0.87863813  1
  In  In38  1  -0.00568115  0.49336685  0.37937206  1
  In  In39  1  -0.00543853  0.51062075  0.87374512  1
  In  In40  1  -0.00167890  0.82036781  0.37906434  1
  In  In41  1  0.01709999  0.83830169  0.85465325  1
  In  In42  1  0.32504399  0.16739179  0.38468372  1
  In  In43  1  0.33583569  0.16609313  0.87121752  1
  In  In44  1  0.35784362  0.48368863  0.38415477  1
  In  In45  1  0.32888809  0.48682353  0.87030569  1
  In  In46  1  0.34404812  0.82900561  0.38181087  1
  In  In47  1  0.33042053  0.84048981  0.86354423  1
  In  In48  1  0.65940103  0.17377684  0.39023348  1
  In  In49  1  0.66533427  0.16819715  0.87029156  1
  In  In50  1  0.66838636  0.49847644  0.38407993  1
  In  In51  1  0.68452379  0.50576568  0.85847017  1
  In  In52  1  0.66705201  0.84529269  0.38605327  1
  In  In53  1  0.65705218  0.82864262  0.86686854  1
  In  In54  1  0.17943890  0.00791306  0.10658784  1
  In  In55  1  0.16163512  0.00471362  0.63650142  1
  In  In56  1  0.17287751  0.34193283  0.11427601  1
  In  In57  1  0.18286214  0.33078171  0.62910105  1
  In  In58  1  0.16491329  0.66618091  0.10447004  1
  In  In59  1  0.15940982  0.68259473  0.65182916  1
  In  In60  1  0.49946288  0.00235520  0.11186195  1
  In  In61  1  0.49069600  0.01877590  0.63258204  1
  In  In62  1  0.49990466  0.32079346  0.12977198  1
  In  In63  1  0.50006410  0.33459781  0.62344493  1
  In  In64  1  0.48744970  0.66480698  0.11550944  1
  In  In65  1  0.51202055  0.65320354  0.63334657  1
  In  In66  1  0.81880096  0.00754817  0.11988579  1
  In  In67  1  0.83407788  -0.00078422  0.63312241  1
  In  In68  1  0.83425715  0.33880644  0.11466549  1
  In  In69  1  0.82395629  0.32953483  0.62517319  1
  In  In70  1  0.84062077  0.66273953  0.12178936  1
  In  In71  1  0.82008871  0.66759335  0.62422980  1
  In  In72  1  0.00188449  0.65261862  0.25608697  1
  In  In73  1  0.33990767  0.00254686  0.25292396  1
  In  In74  1  0.15889947  0.84560933  0.51608924  1
  In  In75  1  0.83994813  0.83592298  -0.01236708  1
  In  In76  1  0.66195925  0.33540155  0.25846466  1
  In  In77  1  0.16269254  0.50500245  0.51447666  1
  In  In78  1  0.50416551  0.50023708  -0.00582234  1
  In  In79  1  -0.00586935  0.33431666  0.24335522  1
  In  In80  1  0.32748789  0.65705049  0.24517444  1
  In  In81  1  0.66265576  0.00583104  0.24592565  1
  In  In82  1  -0.00444530  0.33537193  0.75123575  1
  In  In83  1  0.50022473  0.83391179  0.51255080  1
  In  In84  1  0.66704262  0.66251572  0.25618829  1
  In  In85  1  -0.00093472  0.00118391  0.24600044  1
  Cu  Cu86  1  0.17106100  0.49424272  0.75413617  1
  Cu  Cu87  1  0.17310196  0.17190842  0.25227880  1
  Cu  Cu88  1  0.00216677  -0.00307903  -0.01137494  1
  Cu  Cu89  1  0.83698375  0.83105672  0.26161614  1
  Cu  Cu90  1  0.66366697  0.32982509  0.50711918  1
  Cu  Cu91  1  0.00412767  0.66854012  -0.01239755  1
  Cu  Cu92  1  0.49776034  0.17048009  0.74716443  1
  Cu  Cu93  1  0.17146594  0.84035853  0.23708566  1
  Cu  Cu94  1  0.66903252  0.33594528  -0.00636522  1
  Cu  Cu95  1  0.33413048  0.32933825  -0.00521557  1
  Cu  Cu96  1  0.66233025  0.00490658  -0.00695667  1
  Cu  Cu97  1  0.82770092  0.17617957  0.25285773  1
  Cu  Cu98  1  0.17223279  0.49512483  0.24626813  1
  Cu  Cu99  1  0.50168935  0.83870686  0.74636298  1
  Cu  Cu100  1  0.33598313  0.33286882  0.50465133  1
  Cu  Cu101  1  -0.00260914  0.33376544  0.50795948  1
  Cu  Cu102  1  0.67403291  0.66762896  -0.01300563  1
  Cu  Cu103  1  0.83455675  0.16318650  0.74986023  1
  Cu  Cu104  1  0.33130608  0.66566994  0.51584406  1
  Cu  Cu105  1  -0.01277419  0.67041868  0.50836040  1
  Cu  Cu106  1  -0.00140697  0.00005722  0.51043584  1
  Cu  Cu107  1  0.83042843  0.82776752  0.75118667  1
  Cu  Cu108  1  -0.00356717  0.33313206  -0.00890562  1
  Cu  Cu109  1  0.32921221  -0.00176716  -0.01460914  1
  Cu  Cu110  1  0.33390816  0.67151856  -0.01235732  1
  Cu  Cu111  1  0.67205689  -0.00372814  0.51453120  1
  Cu  Cu112  1  0.17219216  0.16893732  0.75351431  1
  Cu  Cu113  1  0.49869916  0.82461818  0.24329044  1
  Cu  Cu114  1  0.50140301  0.49904693  0.75187874  1
  Se  Se115  1  0.08096745  0.08287834  0.04672690  1
  Se  Se116  1  0.08453816  0.08255077  0.56130963  1
  Se  Se117  1  0.08096512  0.41592755  0.04697974  1
  Se  Se118  1  0.07397835  0.41121822  0.57217380  1
  Se  Se119  1  0.08641520  0.75570056  0.03844097  1
  Se  Se120  1  0.07417483  0.74431458  0.56827643  1
  Se  Se121  1  0.40761375  0.07854513  0.04757679  1
  Se  Se122  1  0.42923776  0.09437802  0.55117147  1
  Se  Se123  1  0.41549913  0.41028311  0.05671726  1
  Se  Se124  1  0.41740998  0.42106033  0.55382006  1
  Se  Se125  1  0.42202623  0.75064243  0.04130109  1
  Se  Se126  1  0.40804908  0.74868058  0.57470097  1
  Se  Se127  1  0.74675697  0.08825119  0.04622041  1
  Se  Se128  1  0.75407617  0.08435402  0.56339157  1
  Se  Se129  1  0.75240362  0.42176227  0.04508170  1
  Se  Se130  1  0.74377885  0.41671571  0.55853293  1
  Se  Se131  1  0.74963311  0.74742985  0.05354157  1
  Se  Se132  1  0.74913869  0.75546883  0.55167884  1
  Se  Se133  1  0.24619286  0.24793320  0.04799993  1
  Se  Se134  1  0.24978409  0.24870625  0.55317192  1
  Se  Se135  1  0.25958015  0.58406826  0.04650720  1
  Se  Se136  1  0.24714166  0.59388427  0.57771511  1
  Se  Se137  1  0.24468068  0.91285646  0.03793760  1
  Se  Se138  1  0.26010488  0.92990644  0.56531513  1
  Se  Se139  1  0.58112428  0.25956476  0.04906380  1
  Se  Se140  1  0.58071804  0.24430076  0.55797873  1
  Se  Se141  1  0.59586067  0.59184684  0.05527531  1
  Se  Se142  1  0.57215953  0.57867087  0.55147893  1
  Se  Se143  1  0.58075215  0.91683483  0.04458167  1
  Se  Se144  1  0.58741377  0.92133188  0.57433207  1
  Se  Se145  1  0.91354147  0.25091702  0.04891158  1
  Se  Se146  1  0.91288132  0.24926323  0.55846554  1
  Se  Se147  1  0.91876856  0.59013525  0.04597735  1
  Se  Se148  1  0.90632220  0.58078868  0.55564904  1
  Se  Se149  1  0.92171681  0.92558736  0.05801587  1
  Se  Se150  1  0.91913416  0.91522542  0.56401325  1
  Se  Se151  1  0.08342793  0.25276840  0.45499049  1
  Se  Se152  1  0.08309900  0.24527090  0.94755207  1
  Se  Se153  1  0.07376803  0.59455780  0.44729526  1
  Se  Se154  1  0.08989273  0.58154081  0.94087372  1
  Se  Se155  1  0.07574018  0.92571074  0.44021753  1
  Se  Se156  1  0.08440950  0.91522156  0.93516813  1
  Se  Se157  1  0.41670071  0.25036957  0.44689862  1
  Se  Se158  1  0.41894638  0.24705795  0.94349209  1
  Se  Se159  1  0.40835073  0.58636064  0.45448540  1
  Se  Se160  1  0.41599285  0.58765940  0.93221330  1
  Se  Se161  1  0.40438688  0.92480432  0.45350151  1
  Se  Se162  1  0.41689944  0.91639734  0.93532715  1
  Se  Se163  1  0.75217488  0.24629074  0.45656894  1
  Se  Se164  1  0.75005642  0.24865345  0.94153709  1
  Se  Se165  1  0.74360169  0.58014757  0.45531333  1
  Se  Se166  1  0.75569184  0.58062875  0.93870707  1
  Se  Se167  1  0.75369807  0.91360507  0.45948645  1
  Se  Se168  1  0.74408878  0.92415445  0.93328030  1
  Se  Se169  1  0.24669104  0.08701199  0.45639493  1
  Se  Se170  1  0.24562662  0.08584716  0.93728854  1
  Se  Se171  1  0.24822184  0.41595109  0.44744721  1
  Se  Se172  1  0.25017520  0.41791699  0.94868362  1
  Se  Se173  1  0.25393449  0.74904675  0.45392762  1
  Se  Se174  1  0.25097773  0.75318542  0.93433489  1
  Se  Se175  1  0.59031689  0.07233400  0.45217810  1
  Se  Se176  1  0.57876324  0.08789725  0.94000336  1
  Se  Se177  1  0.58497529  0.40589371  0.44316289  1
  Se  Se178  1  0.59223749  0.41606351  0.93045198  1
  Se  Se179  1  0.58876954  0.74548186  0.44877473  1
  Se  Se180  1  0.58429750  0.75330396  0.94605317  1
  Se  Se181  1  0.91714246  0.08616198  0.45469169  1
  Se  Se182  1  0.91286327  0.08201164  0.94469119  1
  Se  Se183  1  0.91681579  0.42035682  0.45478287  1
  Se  Se184  1  0.91567748  0.42056171  0.94068241  1
  Se  Se185  1  0.91111285  0.76090826  0.45506935  1
  Se  Se186  1  0.92322792  0.74621827  0.92605732  1
  Se  Se187  1  0.25531458  0.25205258  0.30746501  1
  Se  Se188  1  0.25444785  0.25488679  0.80376094  1
  Se  Se189  1  0.24560591  0.57061275  0.31537644  1
  Se  Se190  1  0.25586372  0.58036968  0.80375422  1
  Se  Se191  1  0.24746623  0.90635335  0.30982767  1
  Se  Se192  1  0.23544002  0.90629074  0.79187126  1
  Se  Se193  1  0.57616056  0.23459025  0.30909923  1
  Se  Se194  1  0.58490299  0.25198752  0.79941354  1
  Se  Se195  1  0.57320523  0.57097029  0.30981466  1
  Se  Se196  1  0.58670779  0.58536133  0.80015669  1
  Se  Se197  1  0.57568925  0.90627033  0.30541768  1
  Se  Se198  1  0.58543694  0.92206845  0.79995664  1
  Se  Se199  1  0.90976128  0.25037701  0.31462333  1
  Se  Se200  1  0.91552562  0.23998542  0.81327576  1
  Se  Se201  1  0.90069954  0.57545032  0.31313735  1
  Se  Se202  1  0.92148800  0.57694277  0.79262054  1
  Se  Se203  1  0.91311861  0.91938998  0.31731776  1
  Se  Se204  1  0.91773070  0.91555161  0.79653022  1
  Se  Se205  1  0.08793636  0.09234936  0.30942323  1
  Se  Se206  1  0.08452075  0.08292416  0.79938183  1
  Se  Se207  1  0.08803763  0.42016640  0.30757787  1
  Se  Se208  1  0.09081715  0.41475959  0.81472397  1
  Se  Se209  1  0.09624156  0.75875032  0.30215233  1
  Se  Se210  1  0.06979736  0.72667699  0.79601122  1
  Se  Se211  1  0.42613590  0.08716523  0.31736902  1
  Se  Se212  1  0.41437510  0.08454921  0.79877041  1
  Se  Se213  1  0.41357367  0.41056086  0.30032955  1
  Se  Se214  1  0.41660221  0.41262823  0.80062702  1
  Se  Se215  1  0.42309566  0.74579105  0.30734588  1
  Se  Se216  1  0.42173824  0.75450732  0.80200536  1
  Se  Se217  1  0.75135091  0.09166012  0.31202039  1
  Se  Se218  1  0.74828959  0.08162517  0.80239664  1
  Se  Se219  1  0.76046898  0.42417647  0.31024251  1
  Se  Se220  1  0.74361652  0.40035912  0.79605348  1
  Se  Se221  1  0.75318008  0.75490505  0.31945652  1
  Se  Se222  1  0.74545843  0.74549570  0.80266829  1
  Se  Se223  1  0.24558079  0.08540427  0.19056365  1
  Se  Se224  1  0.25449071  0.08881490  0.69592133  1
  Se  Se225  1  0.25349385  0.41155765  0.19224978  1
  Se  Se226  1  0.25611486  0.41364427  0.70091724  1
  Se  Se227  1  0.24810627  0.75465394  0.17968124  1
  Se  Se228  1  0.25865765  0.74766290  0.71459167  1
  Se  Se229  1  0.57083973  0.09268590  0.18694672  1
  Se  Se230  1  0.58678194  0.08423674  0.70176269  1
  Se  Se231  1  0.57695063  0.42427615  0.19166828  1
  Se  Se232  1  0.58084291  0.41810680  0.69347603  1
  Se  Se233  1  0.58296942  0.74973732  0.18428706  1
  Se  Se234  1  0.58400068  0.74928922  0.69871875  1
  Se  Se235  1  0.90467141  0.09495145  0.19042782  1
  Se  Se236  1  0.92224709  0.07869581  0.70257071  1
  Se  Se237  1  0.90681767  0.43075508  0.18890326  1
  Se  Se238  1  0.90049127  0.42334409  0.69629100  1
  Se  Se239  1  0.91480465  0.75461058  0.19697174  1
  Se  Se240  1  0.91136856  0.74644553  0.69390511  1
  Se  Se241  1  0.09022554  0.24441239  0.18840863  1
  Se  Se242  1  0.08778253  0.24479119  0.69130896  1
  Se  Se243  1  0.09343641  0.57674372  0.18501137  1
  Se  Se244  1  0.08465231  0.57405469  0.70189527  1
  Se  Se245  1  0.08725187  0.91566649  0.17903140  1
  Se  Se246  1  0.10744134  0.90020773  0.70402509  1
  Se  Se247  1  0.41209342  0.24263181  0.19491743  1
  Se  Se248  1  0.41461358  0.25307595  0.69218506  1
  Se  Se249  1  0.42785583  0.57227466  0.19148868  1
  Se  Se250  1  0.41603309  0.58620130  0.70247249  1
  Se  Se251  1  0.42066482  0.90801674  0.18534691  1
  Se  Se252  1  0.41605720  0.92715346  0.70087119  1
  Se  Se253  1  0.75032830  0.25067693  0.18802012  1
  Se  Se254  1  0.75078838  0.24840316  0.70022900  1
  Se  Se255  1  0.75716186  0.57738419  0.19155591  1
  Se  Se256  1  0.74153603  0.58734440  0.69595620  1
  Se  Se257  1  0.75911057  0.90702297  0.19570359  1
  Se  Se258  1  0.74897927  0.91813622  0.70171715  1
