# generated using pymatgen
data_In86Cu29Se144
_symmetry_space_group_name_H-M   'P 1'
_cell_length_a   17.56700309
_cell_length_b   17.56728782
_cell_length_c   23.42172602
_cell_angle_alpha   90.00122828
_cell_angle_beta   89.97668997
_cell_angle_gamma   89.98389748
_symmetry_Int_Tables_number   1
_chemical_formula_structural   In86Cu29Se144
_chemical_formula_sum   'In86 Cu29 Se144'
_cell_volume   7228.05148881
_cell_formula_units_Z   1
loop_
 _symmetry_equiv_pos_site_id
 _symmetry_equiv_pos_as_xyz
  1  'x, y, z'
loop_
 _atom_site_type_symbol
 _atom_site_label
 _atom_site_symmetry_multiplicity
 _atom_site_fract_x
 _atom_site_fract_y
 _atom_site_fract_z
 _atom_site_occupancy
  In  In0  1  0.00860161  0.16285417  0.13134959  1
  In  In1  1  0.00410003  0.16276780  0.63008921  1
  In  In2  1  0.00846687  0.48941363  0.13580446  1
  In  In3  1  0.00766144  0.49610772  0.62356337  1
  In  In4  1  0.00081480  0.83279009  0.13353404  1
  In  In5  1  -0.00829214  0.83916548  0.62580175  1
  In  In6  1  0.32034137  0.15551413  0.10446708  1
  In  In7  1  0.33053293  0.16658513  0.63257059  1
  In  In8  1  0.32766953  0.49859831  0.11143169  1
  In  In9  1  0.33480044  0.49004761  0.62545383  1
  In  In10  1  0.34183971  0.85144518  0.12591248  1
  In  In11  1  0.33210828  0.83480360  0.63978370  1
  In  In12  1  0.65380400  0.17077357  0.11605648  1
  In  In13  1  0.67913825  0.16915193  0.64926145  1
  In  In14  1  0.66380161  0.50125118  0.11744680  1
  In  In15  1  0.66953079  0.49991350  0.63072333  1
  In  In16  1  0.66240669  0.82437551  0.12340597  1
  In  In17  1  0.67282884  0.82272152  0.63851738  1
  In  In18  1  0.17355673  0.01257872  0.37344644  1
  In  In19  1  0.18252524  0.01928451  0.86797232  1
  In  In20  1  0.14282240  0.34855563  0.39979958  1
  In  In21  1  0.16555069  0.33210915  0.87411306  1
  In  In22  1  0.15693137  0.67325953  0.37914097  1
  In  In23  1  0.15888269  0.65746486  0.86690426  1
  In  In24  1  0.49535815  0.00293399  0.37202044  1
  In  In25  1  0.50227104  0.00613227  0.86765569  1
  In  In26  1  0.50964066  0.33605438  0.37946008  1
  In  In27  1  0.49827596  0.33818847  0.87547745  1
  In  In28  1  0.48848749  0.65852715  0.37780382  1
  In  In29  1  0.48381934  0.65144512  0.85888717  1
  In  In30  1  0.83512027  -0.01640496  0.38610209  1
  In  In31  1  0.83598258  0.01441436  0.85613717  1
  In  In32  1  0.85349526  0.33116837  0.38396200  1
  In  In33  1  0.83349354  0.31907863  0.84985462  1
  In  In34  1  0.84245026  0.65506360  0.39064426  1
  In  In35  1  0.83179727  0.66835331  0.86357230  1
  In  In36  1  0.01595088  0.17765269  0.36956967  1
  In  In37  1  0.01236867  0.17560494  0.86264601  1
  In  In38  1  -0.00175660  0.50301207  0.38259131  1
  In  In39  1  0.00214348  0.50023085  0.86677865  1
  In  In40  1  -0.00335973  0.82374124  0.37365440  1
  In  In41  1  -0.00187668  0.83411416  0.86650905  1
  In  In42  1  0.31668718  0.15156492  0.37464413  1
  In  In43  1  0.32808141  0.16797787  0.87788998  1
  In  In44  1  0.33489190  0.49728114  0.38788169  1
  In  In45  1  0.33149608  0.49876983  0.87195245  1
  In  In46  1  0.32559206  0.83747119  0.37617594  1
  In  In47  1  0.35074810  0.84290274  0.85598617  1
  In  In48  1  0.65937613  0.17005698  0.37644609  1
  In  In49  1  0.66305632  0.16560452  0.86591344  1
  In  In50  1  0.66608070  0.50408634  0.38935777  1
  In  In51  1  0.64706991  0.48235413  0.86045954  1
  In  In52  1  0.67536497  0.83965754  0.38274305  1
  In  In53  1  0.65337581  0.83324938  0.85571185  1
  In  In54  1  0.16573921  0.00548364  0.12803166  1
  In  In55  1  0.16552894  0.00049738  0.62897712  1
  In  In56  1  0.16331190  0.33039641  0.11829160  1
  In  In57  1  0.16781448  0.33214479  0.62394328  1
  In  In58  1  0.16612316  0.65389585  0.12630445  1
  In  In59  1  0.18062135  0.65166628  0.63454702  1
  In  In60  1  0.47542498  -0.00122974  0.12214389  1
  In  In61  1  0.49373516  -0.00101226  0.63858802  1
  In  In62  1  0.49704436  0.32533411  0.10251146  1
  In  In63  1  0.49692293  0.33731204  0.63474326  1
  In  In64  1  0.50380998  0.66737569  0.11871045  1
  In  In65  1  0.51035818  0.66001882  0.63874092  1
  In  In66  1  0.84047326  0.00953565  0.12647927  1
  In  In67  1  0.84772691  0.00371521  0.63332179  1
  In  In68  1  0.84198694  0.34085469  0.12691363  1
  In  In69  1  0.83346833  0.33661805  0.63439974  1
  In  In70  1  0.83566650  0.67451937  0.12368406  1
  In  In71  1  0.83672136  0.66582491  0.62493702  1
  In  In72  1  0.67415213  -0.00260922  0.25870413  1
  In  In73  1  0.84093670  0.17092255  0.51126511  1
  In  In74  1  0.83096679  0.16925359  -0.01476817  1
  In  In75  1  0.67457819  0.33600508  0.24354122  1
  In  In76  1  0.49579049  0.17297020  0.51269292  1
  In  In77  1  0.32553053  0.67894445  0.25076434  1
  In  In78  1  0.83214084  0.49278870  -0.00642270  1
  In  In79  1  0.17272238  0.82797250  -0.00439929  1
  In  In80  1  0.82964089  0.83562584  -0.01116352  1
  In  In81  1  0.50012624  0.82939828  0.50124050  1
  In  In82  1  0.32765548  0.32745881  0.24681327  1
  In  In83  1  0.16415135  0.83260273  0.50601560  1
  In  In84  1  0.66795737  0.66600481  0.24180087  1
  In  In85  1  0.49574949  0.83507517  -0.01033192  1
  Cu  Cu86  1  0.84406599  0.49864626  0.26042923  1
  Cu  Cu87  1  0.66431520  -0.00229579  0.50932407  1
  Cu  Cu88  1  0.66715285  0.66459839  0.51285092  1
  Cu  Cu89  1  0.83938917  0.82678698  0.25527332  1
  Cu  Cu90  1  0.00227536  0.00197007  0.50414682  1
  Cu  Cu91  1  0.66061586  0.00133890  -0.01095223  1
  Cu  Cu92  1  0.65549046  0.65212296  -0.01093877  1
  Cu  Cu93  1  0.00231980  0.33247018  -0.00373729  1
  Cu  Cu94  1  0.49026936  0.15998085  0.24227415  1
  Cu  Cu95  1  0.32856833  0.66547586  -0.01075906  1
  Cu  Cu96  1  0.16048067  0.50072311  0.25738698  1
  Cu  Cu97  1  0.16453191  0.84568076  0.25340097  1
  Cu  Cu98  1  0.49099286  0.17481513  0.75522009  1
  Cu  Cu99  1  0.49462745  0.50180024  0.24595666  1
  Cu  Cu100  1  0.15625617  0.83238078  0.74916581  1
  Cu  Cu101  1  0.84727154  0.16553883  0.25191710  1
  Cu  Cu102  1  0.33358599  0.32703960  0.50890098  1
  Cu  Cu103  1  0.00082122  0.66385484  0.50394220  1
  Cu  Cu104  1  0.83843951  0.51017177  0.74395818  1
  Cu  Cu105  1  0.49842497  0.49772894  0.74886287  1
  Cu  Cu106  1  0.33299771  0.33976856  -0.01011994  1
  Cu  Cu107  1  0.83338700  0.83552438  0.74589366  1
  Cu  Cu108  1  0.16869680  0.17143289  0.24663975  1
  Cu  Cu109  1  0.00531826  0.65217421  -0.00224140  1
  Cu  Cu110  1  0.66982002  0.34019030  0.50813445  1
  Cu  Cu111  1  0.34090421  0.65938214  0.50979729  1
  Cu  Cu112  1  0.16952536  0.16503711  0.74854872  1
  Cu  Cu113  1  0.00996823  0.00198689  -0.00045275  1
  Cu  Cu114  1  0.16808210  0.49038632  0.74859970  1
  Se  Se115  1  0.08617060  0.08687689  0.05567399  1
  Se  Se116  1  0.08464047  0.08290080  0.55806999  1
  Se  Se117  1  0.07792697  0.41868465  0.05395558  1
  Se  Se118  1  0.10038679  0.42652932  0.55484610  1
  Se  Se119  1  0.07537726  0.74291131  0.05749905  1
  Se  Se120  1  0.08113508  0.73936855  0.56751456  1
  Se  Se121  1  0.43738404  0.10065765  0.05124012  1
  Se  Se122  1  0.40946100  0.07248829  0.56138637  1
  Se  Se123  1  0.41681371  0.42316685  0.04465998  1
  Se  Se124  1  0.42274077  0.41028978  0.55559361  1
  Se  Se125  1  0.40335721  0.74623907  0.05468736  1
  Se  Se126  1  0.41486466  0.74470408  0.56798846  1
  Se  Se127  1  0.74717127  0.07455447  0.05135363  1
  Se  Se128  1  0.74245994  0.08274746  0.56614796  1
  Se  Se129  1  0.74281012  0.40134543  0.05564280  1
  Se  Se130  1  0.75521388  0.41916303  0.56175246  1
  Se  Se131  1  0.73726654  0.73613179  0.04753852  1
  Se  Se132  1  0.75013568  0.75362494  0.55963626  1
  Se  Se133  1  0.24879756  0.25816421  0.04647476  1
  Se  Se134  1  0.25069162  0.24173398  0.55779833  1
  Se  Se135  1  0.24475634  0.58756713  0.04750143  1
  Se  Se136  1  0.25237198  0.57570802  0.55636573  1
  Se  Se137  1  0.25535373  0.92594410  0.05342487  1
  Se  Se138  1  0.25972239  0.91866020  0.56127381  1
  Se  Se139  1  0.59382674  0.25432260  0.03973624  1
  Se  Se140  1  0.59787171  0.25256425  0.56892604  1
  Se  Se141  1  0.57424501  0.57666146  0.04938857  1
  Se  Se142  1  0.58095404  0.58080647  0.56170025  1
  Se  Se143  1  0.58847594  0.92013611  0.05531973  1
  Se  Se144  1  0.58420951  0.91744137  0.56726322  1
  Se  Se145  1  0.92092946  0.25080280  0.05604557  1
  Se  Se146  1  0.93108999  0.26512667  0.56334176  1
  Se  Se147  1  0.91932397  0.58165598  0.05954122  1
  Se  Se148  1  0.91866052  0.58028705  0.55788051  1
  Se  Se149  1  0.92307704  0.91994908  0.05498760  1
  Se  Se150  1  0.91358550  0.92217305  0.55407195  1
  Se  Se151  1  0.08254131  0.23802056  0.45531080  1
  Se  Se152  1  0.08356367  0.24613355  0.94376064  1
  Se  Se153  1  0.08755050  0.58536006  0.44960025  1
  Se  Se154  1  0.08671923  0.57288901  0.94179695  1
  Se  Se155  1  0.07896748  0.92109448  0.44037036  1
  Se  Se156  1  0.08255983  0.91845604  0.93638872  1
  Se  Se157  1  0.41118260  0.25229609  0.43893123  1
  Se  Se158  1  0.41620721  0.25186192  0.94279884  1
  Se  Se159  1  0.42396560  0.57677427  0.45479879  1
  Se  Se160  1  0.41667698  0.58166710  0.94190059  1
  Se  Se161  1  0.41058565  0.92384607  0.44530933  1
  Se  Se162  1  0.40504213  0.93120463  0.93920613  1
  Se  Se163  1  0.74317496  0.25411002  0.44601311  1
  Se  Se164  1  0.74347117  0.26488562  0.93181205  1
  Se  Se165  1  0.75130069  0.58131776  0.45798624  1
  Se  Se166  1  0.74505058  0.58165738  0.93078364  1
  Se  Se167  1  0.75010940  0.91309336  0.46004410  1
  Se  Se168  1  0.74214900  0.92436544  0.92781471  1
  Se  Se169  1  0.24981472  0.07694849  0.45397810  1
  Se  Se170  1  0.24487341  0.09045170  0.95054195  1
  Se  Se171  1  0.25305350  0.41439747  0.45481657  1
  Se  Se172  1  0.24381949  0.42174715  0.94160733  1
  Se  Se173  1  0.26173681  0.74041224  0.44912027  1
  Se  Se174  1  0.25968343  0.74879490  0.92564068  1
  Se  Se175  1  0.58592549  0.07695454  0.44766624  1
  Se  Se176  1  0.58021277  0.08945644  0.93957396  1
  Se  Se177  1  0.58112022  0.41776546  0.45381824  1
  Se  Se178  1  0.57989271  0.42187937  0.94536213  1
  Se  Se179  1  0.59227360  0.73646839  0.44186829  1
  Se  Se180  1  0.58285958  0.74068808  0.93083060  1
  Se  Se181  1  0.92189340  0.08220900  0.44181524  1
  Se  Se182  1  0.92836272  0.07599510  0.93495397  1
  Se  Se183  1  0.90937121  0.42825111  0.45210857  1
  Se  Se184  1  0.91760053  0.40069423  0.93157077  1
  Se  Se185  1  0.91956211  0.75269199  0.45198612  1
  Se  Se186  1  0.92570321  0.73757023  0.94089473  1
  Se  Se187  1  0.23673521  0.25276572  0.31527903  1
  Se  Se188  1  0.24837288  0.24941892  0.80493563  1
  Se  Se189  1  0.24749619  0.57905218  0.31370741  1
  Se  Se190  1  0.24916167  0.57959471  0.80064120  1
  Se  Se191  1  0.25256648  0.92261712  0.30537501  1
  Se  Se192  1  0.24125594  0.91328537  0.80354422  1
  Se  Se193  1  0.57267223  0.24345719  0.29999490  1
  Se  Se194  1  0.58025289  0.25715017  0.80387472  1
  Se  Se195  1  0.57891614  0.57562576  0.30703251  1
  Se  Se196  1  0.58701471  0.58610589  0.79563600  1
  Se  Se197  1  0.57868739  0.90349904  0.31111498  1
  Se  Se198  1  0.57986753  0.92767471  0.79410785  1
  Se  Se199  1  0.92265724  0.25512894  0.30463823  1
  Se  Se200  1  0.91549993  0.22968081  0.78875629  1
  Se  Se201  1  0.92122685  0.59009014  0.31032749  1
  Se  Se202  1  0.92332221  0.58961072  0.80000914  1
  Se  Se203  1  0.91623274  0.91597777  0.30882456  1
  Se  Se204  1  0.91881885  0.91933679  0.79811987  1
  Se  Se205  1  0.08689331  0.08510457  0.30076647  1
  Se  Se206  1  0.08349745  0.07744659  0.79819269  1
  Se  Se207  1  0.08174648  0.41756223  0.31352806  1
  Se  Se208  1  0.08064914  0.40914067  0.80155914  1
  Se  Se209  1  0.08760702  0.75314080  0.30264425  1
  Se  Se210  1  0.07634322  0.74441029  0.80091252  1
  Se  Se211  1  0.41179254  0.08457912  0.30441314  1
  Se  Se212  1  0.40910746  0.08685389  0.80541058  1
  Se  Se213  1  0.41982013  0.42021238  0.30871563  1
  Se  Se214  1  0.41432176  0.41611878  0.80305394  1
  Se  Se215  1  0.42446433  0.75954570  0.31092562  1
  Se  Se216  1  0.42498765  0.75174140  0.79124153  1
  Se  Se217  1  0.76394379  0.09311962  0.31619846  1
  Se  Se218  1  0.73933763  0.08394374  0.79389865  1
  Se  Se219  1  0.75296056  0.42116180  0.31579743  1
  Se  Se220  1  0.75768162  0.42620430  0.79933474  1
  Se  Se221  1  0.75458757  0.74709323  0.31298650  1
  Se  Se222  1  0.74821283  0.75094803  0.79665872  1
  Se  Se223  1  0.25444729  0.09103587  0.19167459  1
  Se  Se224  1  0.25244813  0.07642065  0.69926265  1
  Se  Se225  1  0.24314297  0.42884465  0.19151312  1
  Se  Se226  1  0.25400312  0.40844309  0.69643716  1
  Se  Se227  1  0.23818050  0.76624423  0.18506117  1
  Se  Se228  1  0.24607235  0.74844053  0.70232011  1
  Se  Se229  1  0.58297840  0.08134136  0.19092781  1
  Se  Se230  1  0.57433805  0.09151350  0.70105047  1
  Se  Se231  1  0.57237325  0.41800689  0.18582432  1
  Se  Se232  1  0.58796697  0.41508082  0.69970258  1
  Se  Se233  1  0.56634317  0.75933773  0.19560327  1
  Se  Se234  1  0.56968780  0.76362002  0.70289154  1
  Se  Se235  1  0.92564178  0.07697848  0.19953930  1
  Se  Se236  1  0.90540962  0.10500531  0.70137407  1
  Se  Se237  1  0.92021667  0.41091419  0.20394122  1
  Se  Se238  1  0.92271722  0.42107225  0.69740366  1
  Se  Se239  1  0.91919623  0.74323122  0.19843339  1
  Se  Se240  1  0.91788177  0.75006777  0.69512145  1
  Se  Se241  1  0.08507051  0.25787217  0.19534814  1
  Se  Se242  1  0.08775219  0.24924393  0.69538563  1
  Se  Se243  1  0.08112658  0.58584196  0.20101473  1
  Se  Se244  1  0.08471091  0.57869324  0.69852350  1
  Se  Se245  1  0.08063075  0.92395547  0.19606023  1
  Se  Se246  1  0.07753032  0.91838381  0.69423334  1
  Se  Se247  1  0.41805924  0.24596327  0.18076771  1
  Se  Se248  1  0.40877776  0.25570083  0.69942827  1
  Se  Se249  1  0.41343690  0.58369121  0.18920327  1
  Se  Se250  1  0.41232353  0.57818499  0.69546359  1
  Se  Se251  1  0.42469222  0.91407679  0.20255049  1
  Se  Se252  1  0.40795014  0.92234980  0.70679672  1
  Se  Se253  1  0.76031937  0.23430560  0.18694291  1
  Se  Se254  1  0.74877690  0.26776215  0.70976641  1
  Se  Se255  1  0.76287283  0.56818097  0.19071606  1
  Se  Se256  1  0.74847753  0.59150378  0.69602436  1
  Se  Se257  1  0.75895288  0.90477405  0.19044112  1
  Se  Se258  1  0.75253559  0.92379130  0.69460428  1
