# generated using pymatgen
data_In86Cu29Se144
_symmetry_space_group_name_H-M   'P 1'
_cell_length_a   17.58452470
_cell_length_b   17.57421340
_cell_length_c   23.44502485
_cell_angle_alpha   90.00844581
_cell_angle_beta   90.04046831
_cell_angle_gamma   89.99197579
_symmetry_Int_Tables_number   1
_chemical_formula_structural   In86Cu29Se144
_chemical_formula_sum   'In86 Cu29 Se144'
_cell_volume   7245.31229778
_cell_formula_units_Z   1
loop_
 _symmetry_equiv_pos_site_id
 _symmetry_equiv_pos_as_xyz
  1  'x, y, z'
loop_
 _atom_site_type_symbol
 _atom_site_label
 _atom_site_symmetry_multiplicity
 _atom_site_fract_x
 _atom_site_fract_y
 _atom_site_fract_z
 _atom_site_occupancy
  In  In0  1  0.00842143  0.16986994  0.11735347  1
  In  In1  1  0.00363175  0.16728440  0.62317226  1
  In  In2  1  -0.01150055  0.49261937  0.12663704  1
  In  In3  1  -0.00753735  0.50609099  0.62779325  1
  In  In4  1  0.00695325  0.82741964  0.11758225  1
  In  In5  1  -0.00838186  0.83064822  0.63261425  1
  In  In6  1  0.33293990  0.16438421  0.12529899  1
  In  In7  1  0.32445411  0.16165996  0.61790937  1
  In  In8  1  0.34894726  0.48538415  0.13469409  1
  In  In9  1  0.34311022  0.50532666  0.62906960  1
  In  In10  1  0.32747398  0.84631855  0.13197879  1
  In  In11  1  0.33783249  0.83205554  0.63158420  1
  In  In12  1  0.66774051  0.16674239  0.12115164  1
  In  In13  1  0.66953884  0.17114014  0.62448816  1
  In  In14  1  0.66260240  0.49635642  0.12727770  1
  In  In15  1  0.66637682  0.47923283  0.62380840  1
  In  In16  1  0.66281712  0.84398552  0.13668801  1
  In  In17  1  0.67964584  0.84202532  0.62907929  1
  In  In18  1  0.17328622  0.00113359  0.37382853  1
  In  In19  1  0.16661659  -0.01091723  0.88462305  1
  In  In20  1  0.15809002  0.31950143  0.36484085  1
  In  In21  1  0.15212246  0.33311187  0.87250123  1
  In  In22  1  0.17257013  0.66404618  0.37403242  1
  In  In23  1  0.17603146  0.67142703  0.86950263  1
  In  In24  1  0.51207618  0.00690122  0.36617697  1
  In  In25  1  0.51568349  0.02532855  0.87339990  1
  In  In26  1  0.49156307  0.32064593  0.36531923  1
  In  In27  1  0.51897987  0.31299164  0.89777621  1
  In  In28  1  0.49982586  0.66409896  0.36749751  1
  In  In29  1  0.48865466  0.66805079  0.87895970  1
  In  In30  1  0.83448962  0.01355188  0.37278649  1
  In  In31  1  0.82752439  0.02659946  0.88260647  1
  In  In32  1  0.83259153  0.33114936  0.37418383  1
  In  In33  1  0.80428209  0.28287912  0.83553115  1
  In  In34  1  0.81889720  0.66389584  0.37454982  1
  In  In35  1  0.83298291  0.65183066  0.87036906  1
  In  In36  1  -0.01820171  0.17163739  0.38535657  1
  In  In37  1  -0.00778464  0.17478295  0.88870614  1
  In  In38  1  0.00488362  0.48141462  0.37567298  1
  In  In39  1  -0.01300949  0.48673002  0.86363389  1
  In  In40  1  0.00235057  0.84513552  0.37661911  1
  In  In41  1  0.01725462  0.83982776  0.87378907  1
  In  In42  1  0.33623225  0.16520370  0.37183501  1
  In  In43  1  0.34010710  0.15514208  0.87934565  1
  In  In44  1  0.33995675  0.50335787  0.36729150  1
  In  In45  1  0.33703236  0.50793119  0.87661072  1
  In  In46  1  0.33152779  0.83531068  0.36787388  1
  In  In47  1  0.33075019  0.83161190  0.87390137  1
  In  In48  1  0.66650739  0.16932725  0.37132028  1
  In  In49  1  0.66068641  0.16699813  0.87940972  1
  In  In50  1  0.67222405  0.50192217  0.36979385  1
  In  In51  1  0.67098995  0.47210150  0.88233977  1
  In  In52  1  0.67394457  0.82917661  0.35920451  1
  In  In53  1  0.65490861  0.84731487  0.87962322  1
  In  In54  1  0.17415031  0.01277227  0.11066943  1
  In  In55  1  0.16662990  0.01833363  0.62694056  1
  In  In56  1  0.17467512  0.32616852  0.13240730  1
  In  In57  1  0.16701683  0.31282094  0.62272859  1
  In  In58  1  0.17159813  0.68059363  0.12191047  1
  In  In59  1  0.16918527  0.66452302  0.62997044  1
  In  In60  1  0.49849389  0.00807554  0.12794939  1
  In  In61  1  0.48870608  0.01165165  0.63294384  1
  In  In62  1  0.50484647  0.31977415  0.11837018  1
  In  In63  1  0.51551452  0.33266752  0.62515097  1
  In  In64  1  0.50549161  0.65996242  0.13235957  1
  In  In65  1  0.49434269  0.65877759  0.63093852  1
  In  In66  1  0.81175903  0.00894750  0.12283309  1
  In  In67  1  0.82467214  0.00403566  0.62930911  1
  In  In68  1  0.83145531  0.32751258  0.12921026  1
  In  In69  1  0.83016669  0.32897847  0.62352533  1
  In  In70  1  0.83037759  0.66271321  0.12889615  1
  In  In71  1  0.84463147  0.67478628  0.62555412  1
  In  In72  1  0.50394844  0.49287162  0.49165599  1
  In  In73  1  0.50116964  0.83662491  0.50499113  1
  In  In74  1  0.66457908  0.66881967  0.74957536  1
  In  In75  1  0.83716768  0.84514850  0.50241315  1
  In  In76  1  0.16833760  0.49414015  0.50253258  1
  In  In77  1  -0.00388193  0.00188015  0.24994882  1
  In  In78  1  0.16851226  0.50074462  -0.00344681  1
  In  In79  1  0.49521092  0.84213350  0.01083959  1
  In  In80  1  -0.00342081  0.00573893  0.75361608  1
  In  In81  1  0.16769045  0.84126821  0.49303990  1
  In  In82  1  0.83548906  0.84302900  -0.00387542  1
  In  In83  1  0.33521536  0.34148780  0.75237543  1
  In  In84  1  0.83073400  0.48977455  0.00424086  1
  In  In85  1  -0.00049901  0.66212218  0.24424282  1
  Cu  Cu86  1  0.00684713  0.66878777  -0.00772827  1
  Cu  Cu87  1  0.66388191  0.66686950  0.00972727  1
  Cu  Cu88  1  0.49942222  0.50138966  0.75675094  1
  Cu  Cu89  1  -0.00831627  0.32814893  0.49911693  1
  Cu  Cu90  1  0.66422611  0.66219977  0.49414445  1
  Cu  Cu91  1  0.16969886  0.16113909  0.74998050  1
  Cu  Cu92  1  0.33252844  -0.00384750  -0.00079015  1
  Cu  Cu93  1  0.33030760  0.66702858  -0.00035286  1
  Cu  Cu94  1  0.49756643  0.84366746  0.75714272  1
  Cu  Cu95  1  0.82777759  0.17168031  0.25087024  1
  Cu  Cu96  1  0.50195964  0.16575139  0.24544853  1
  Cu  Cu97  1  -0.00355286  0.66618023  0.50472848  1
  Cu  Cu98  1  0.16165623  0.50320326  0.74987916  1
  Cu  Cu99  1  0.83185569  0.49288399  0.24971164  1
  Cu  Cu100  1  0.50230199  0.17207593  0.75079723  1
  Cu  Cu101  1  0.16805610  0.16316832  0.24572155  1
  Cu  Cu102  1  0.50394979  0.49411851  0.24869864  1
  Cu  Cu103  1  -0.00100992  0.33106923  -0.00196825  1
  Cu  Cu104  1  0.83530676  0.49650315  0.74605745  1
  Cu  Cu105  1  0.33640771  0.00573156  0.49873959  1
  Cu  Cu106  1  0.49904695  0.83159940  0.24803790  1
  Cu  Cu107  1  0.66415044  0.01027890  0.49708297  1
  Cu  Cu108  1  0.16979694  0.83741865  0.24709267  1
  Cu  Cu109  1  0.67402611  0.32247379  0.49881586  1
  Cu  Cu110  1  0.17166418  0.83293481  0.75329237  1
  Cu  Cu111  1  0.17020714  0.49787676  0.25251695  1
  Cu  Cu112  1  0.32987663  0.32848469  0.00874401  1
  Cu  Cu113  1  0.83375061  0.83795242  0.75353030  1
  Cu  Cu114  1  0.33395741  0.32994984  0.49270201  1
  Se  Se115  1  0.07486408  0.07742566  0.04717673  1
  Se  Se116  1  0.09157634  0.09275026  0.55331701  1
  Se  Se117  1  0.07847842  0.41252122  0.05858529  1
  Se  Se118  1  0.07512847  0.40604156  0.56057304  1
  Se  Se119  1  0.08973247  0.75017093  0.04586737  1
  Se  Se120  1  0.07905484  0.74981511  0.55873988  1
  Se  Se121  1  0.41288631  0.07926278  0.05482463  1
  Se  Se122  1  0.42074994  0.08763162  0.55262247  1
  Se  Se123  1  0.41874408  0.41157676  0.05532306  1
  Se  Se124  1  0.41077579  0.40839771  0.55720367  1
  Se  Se125  1  0.40818600  0.74434827  0.06509050  1
  Se  Se126  1  0.41109884  0.74012545  0.55809379  1
  Se  Se127  1  0.76910889  0.10969075  0.05114717  1
  Se  Se128  1  0.75060887  0.08456728  0.55497110  1
  Se  Se129  1  0.73574218  0.40017064  0.05744436  1
  Se  Se130  1  0.75184245  0.41365613  0.54960373  1
  Se  Se131  1  0.74689465  0.75171142  0.06105268  1
  Se  Se132  1  0.74296139  0.74515564  0.55497584  1
  Se  Se133  1  0.24361363  0.24431256  0.05649393  1
  Se  Se134  1  0.24926437  0.24744739  0.54595437  1
  Se  Se135  1  0.25829670  0.58162427  0.06312620  1
  Se  Se136  1  0.25937443  0.58875839  0.55674185  1
  Se  Se137  1  0.24996882  0.91092870  0.05134620  1
  Se  Se138  1  0.25844225  0.92322846  0.55949984  1
  Se  Se139  1  0.56762971  0.22234467  0.04766030  1
  Se  Se140  1  0.58272544  0.24721514  0.55134382  1
  Se  Se141  1  0.58062212  0.58048120  0.05770235  1
  Se  Se142  1  0.58783795  0.58548805  0.55916775  1
  Se  Se143  1  0.59588721  0.93081423  0.05863963  1
  Se  Se144  1  0.59219990  0.92794885  0.56244119  1
  Se  Se145  1  0.91616613  0.25412792  0.05653759  1
  Se  Se146  1  0.91333683  0.24459321  0.55569193  1
  Se  Se147  1  0.92516575  0.59240707  0.05418459  1
  Se  Se148  1  0.91084585  0.58321305  0.55410288  1
  Se  Se149  1  0.91872787  0.92536486  0.06459011  1
  Se  Se150  1  0.92913637  0.93084205  0.56388413  1
  Se  Se151  1  0.08049251  0.25192194  0.44401828  1
  Se  Se152  1  0.09105262  0.25040172  0.95107349  1
  Se  Se153  1  0.07663274  0.58859134  0.44254265  1
  Se  Se154  1  0.07560013  0.58082512  0.93157269  1
  Se  Se155  1  0.07161995  0.93781719  0.44665312  1
  Se  Se156  1  0.07877304  0.91459997  0.95430701  1
  Se  Se157  1  0.41989192  0.24585109  0.44381194  1
  Se  Se158  1  0.40864735  0.24598213  0.95052954  1
  Se  Se159  1  0.41169262  0.59139857  0.44376318  1
  Se  Se160  1  0.41682409  0.58283965  0.95183208  1
  Se  Se161  1  0.41435409  0.92270022  0.43935447  1
  Se  Se162  1  0.41950303  0.92551482  0.93676659  1
  Se  Se163  1  0.75648721  0.24124699  0.44297165  1
  Se  Se164  1  0.75320418  0.25715244  0.93549423  1
  Se  Se165  1  0.75036953  0.57673558  0.44731140  1
  Se  Se166  1  0.74100304  0.58764894  0.94544932  1
  Se  Se167  1  0.73834331  0.92046777  0.43915394  1
  Se  Se168  1  0.73690125  0.93497891  0.94658972  1
  Se  Se169  1  0.25179394  0.08506938  0.44319979  1
  Se  Se170  1  0.24890882  0.08141378  0.94717844  1
  Se  Se171  1  0.25403226  0.41124435  0.43411137  1
  Se  Se172  1  0.25750926  0.40605604  0.93956342  1
  Se  Se173  1  0.26040461  0.74406306  0.44381304  1
  Se  Se174  1  0.24967271  0.75054930  0.94554935  1
  Se  Se175  1  0.58015169  0.08937553  0.44232672  1
  Se  Se176  1  0.57239554  0.10281927  0.95690257  1
  Se  Se177  1  0.59282815  0.40064300  0.43537599  1
  Se  Se178  1  0.56916997  0.43021452  0.95297916  1
  Se  Se179  1  0.58883842  0.74914628  0.43820632  1
  Se  Se180  1  0.58553953  0.74769982  0.94838545  1
  Se  Se181  1  0.91312540  0.07573378  0.45113747  1
  Se  Se182  1  0.93005897  0.07196734  0.95230893  1
  Se  Se183  1  0.91352075  0.41593235  0.44599786  1
  Se  Se184  1  0.91412744  0.40444754  0.93810757  1
  Se  Se185  1  0.92184675  0.74742806  0.44068274  1
  Se  Se186  1  0.91815607  0.74318701  0.93553561  1
  Se  Se187  1  0.25301483  0.24638409  0.30024741  1
  Se  Se188  1  0.24775147  0.24587157  0.81007540  1
  Se  Se189  1  0.25125546  0.58621917  0.30216886  1
  Se  Se190  1  0.25137097  0.57878413  0.80330106  1
  Se  Se191  1  0.25131444  0.92210159  0.30087818  1
  Se  Se192  1  0.24925801  0.91977149  0.80779246  1
  Se  Se193  1  0.58569754  0.24984222  0.29879623  1
  Se  Se194  1  0.58060623  0.25490420  0.80799542  1
  Se  Se195  1  0.58481602  0.58093416  0.30218469  1
  Se  Se196  1  0.58428597  0.57985866  0.81667264  1
  Se  Se197  1  0.58539277  0.91515802  0.29895910  1
  Se  Se198  1  0.58456471  0.92773877  0.80472890  1
  Se  Se199  1  0.91768446  0.24901803  0.30441943  1
  Se  Se200  1  0.94082934  0.25516294  0.80514111  1
  Se  Se201  1  0.91483064  0.57396238  0.31007204  1
  Se  Se202  1  0.91748886  0.58372371  0.79652234  1
  Se  Se203  1  0.90483313  0.90799905  0.30715891  1
  Se  Se204  1  0.90831198  0.91741978  0.81797016  1
  Se  Se205  1  0.08435362  0.09225994  0.31075888  1
  Se  Se206  1  0.09022152  0.08723045  0.81547939  1
  Se  Se207  1  0.08227519  0.41241015  0.29820469  1
  Se  Se208  1  0.08058958  0.41286965  0.79682491  1
  Se  Se209  1  0.08790329  0.75794152  0.30706256  1
  Se  Se210  1  0.08474548  0.74913484  0.80283734  1
  Se  Se211  1  0.41872598  0.08303613  0.30136177  1
  Se  Se212  1  0.41879894  0.08555354  0.80156198  1
  Se  Se213  1  0.41549203  0.41416007  0.30050762  1
  Se  Se214  1  0.42933028  0.41482470  0.81912470  1
  Se  Se215  1  0.41548953  0.74987673  0.30273715  1
  Se  Se216  1  0.41794954  0.75186748  0.80517080  1
  Se  Se217  1  0.74703712  0.08287259  0.30134570  1
  Se  Se218  1  0.75349435  0.09980271  0.80656358  1
  Se  Se219  1  0.74812278  0.41073304  0.30342664  1
  Se  Se220  1  0.75294967  0.41640728  0.80182845  1
  Se  Se221  1  0.75418991  0.74028995  0.29617959  1
  Se  Se222  1  0.75057304  0.75945453  0.81462467  1
  Se  Se223  1  0.24895465  0.07745041  0.19287679  1
  Se  Se224  1  0.25871346  0.08257384  0.69878393  1
  Se  Se225  1  0.25335123  0.41279885  0.19971574  1
  Se  Se226  1  0.24028208  0.42258035  0.68634721  1
  Se  Se227  1  0.25301076  0.74983646  0.19782479  1
  Se  Se228  1  0.25194540  0.74869091  0.69692224  1
  Se  Se229  1  0.58957553  0.08356366  0.19461229  1
  Se  Se230  1  0.58422057  0.08908043  0.69438275  1
  Se  Se231  1  0.57968651  0.40848400  0.19105483  1
  Se  Se232  1  0.58043476  0.41874724  0.70118996  1
  Se  Se233  1  0.58605218  0.74818585  0.19808380  1
  Se  Se234  1  0.57403201  0.76383979  0.69092754  1
  Se  Se235  1  0.91064453  0.09379519  0.18926680  1
  Se  Se236  1  0.90729658  0.09617127  0.69534230  1
  Se  Se237  1  0.91701313  0.40965034  0.19892710  1
  Se  Se238  1  0.91659637  0.41275863  0.69152967  1
  Se  Se239  1  0.91225380  0.76017310  0.19100934  1
  Se  Se240  1  0.91575119  0.74970598  0.70512565  1
  Se  Se241  1  0.08120566  0.24703431  0.19541413  1
  Se  Se242  1  0.08506197  0.24423295  0.69816460  1
  Se  Se243  1  0.09390861  0.57422830  0.18525480  1
  Se  Se244  1  0.07951052  0.58664237  0.69502626  1
  Se  Se245  1  0.08871397  0.91606877  0.18729361  1
  Se  Se246  1  0.09081809  0.91416124  0.69262851  1
  Se  Se247  1  0.41713424  0.24855380  0.19215398  1
  Se  Se248  1  0.41860953  0.24889022  0.68887950  1
  Se  Se249  1  0.41747214  0.58278787  0.20073236  1
  Se  Se250  1  0.41456656  0.58493194  0.70578899  1
  Se  Se251  1  0.41956270  0.92107966  0.19699544  1
  Se  Se252  1  0.41265618  0.92100596  0.69939377  1
  Se  Se253  1  0.74172189  0.25135513  0.19663617  1
  Se  Se254  1  0.73566005  0.26556589  0.69442602  1
  Se  Se255  1  0.75068994  0.57736676  0.19507203  1
  Se  Se256  1  0.75293543  0.57913101  0.68700089  1
  Se  Se257  1  0.75739813  0.91852652  0.19875548  1
  Se  Se258  1  0.74952178  0.92298758  0.70419717  1
