# generated using pymatgen
data_In86Cu29Se144
_symmetry_space_group_name_H-M   'P 1'
_cell_length_a   17.58029177
_cell_length_b   17.58049016
_cell_length_c   23.43419493
_cell_angle_alpha   89.97335764
_cell_angle_beta   89.99809139
_cell_angle_gamma   90.00245037
_symmetry_Int_Tables_number   1
_chemical_formula_structural   In86Cu29Se144
_chemical_formula_sum   'In86 Cu29 Se144'
_cell_volume   7242.80926611
_cell_formula_units_Z   1
loop_
 _symmetry_equiv_pos_site_id
 _symmetry_equiv_pos_as_xyz
  1  'x, y, z'
loop_
 _atom_site_type_symbol
 _atom_site_label
 _atom_site_symmetry_multiplicity
 _atom_site_fract_x
 _atom_site_fract_y
 _atom_site_fract_z
 _atom_site_occupancy
  In  In0  1  -0.00753920  0.15920157  0.11040969  1
  In  In1  1  0.00933000  0.17253578  0.62825894  1
  In  In2  1  0.01531780  0.49321633  0.12486797  1
  In  In3  1  -0.00095709  0.50690243  0.63254138  1
  In  In4  1  -0.00429555  0.83520045  0.12928503  1
  In  In5  1  -0.01786742  0.82425290  0.61729855  1
  In  In6  1  0.33517912  0.18524737  0.12123315  1
  In  In7  1  0.33607563  0.17075466  0.63228424  1
  In  In8  1  0.33008579  0.49548822  0.12440894  1
  In  In9  1  0.34094211  0.49779864  0.62823074  1
  In  In10  1  0.31940751  0.82084380  0.12509782  1
  In  In11  1  0.34296922  0.83041585  0.63420490  1
  In  In12  1  0.68046777  0.16361435  0.12594004  1
  In  In13  1  0.65494147  0.17566542  0.62833060  1
  In  In14  1  0.64888407  0.49907498  0.12252972  1
  In  In15  1  0.67152534  0.51244250  0.61478603  1
  In  In16  1  0.68256027  0.82567953  0.12149775  1
  In  In17  1  0.67849866  0.82110942  0.62798585  1
  In  In18  1  0.16387691  0.01458178  0.36791907  1
  In  In19  1  0.16749116  -0.00154839  0.87925673  1
  In  In20  1  0.17915493  0.33284478  0.37435957  1
  In  In21  1  0.16262343  0.33914014  0.86867889  1
  In  In22  1  0.15744823  0.65911887  0.37327349  1
  In  In23  1  0.16512260  0.65336196  0.85640100  1
  In  In24  1  0.51878477  0.00003038  0.38712154  1
  In  In25  1  0.50033595  -0.00248768  0.86697689  1
  In  In26  1  0.49722962  0.33475159  0.37944383  1
  In  In27  1  0.49816501  0.36331988  0.87171557  1
  In  In28  1  0.48555974  0.66476115  0.37576107  1
  In  In29  1  0.48614922  0.64811935  0.85566464  1
  In  In30  1  0.83164056  -0.01611145  0.37703115  1
  In  In31  1  0.82542751  0.01286743  0.88452913  1
  In  In32  1  0.83455787  0.35376641  0.37571603  1
  In  In33  1  0.83188231  0.31159129  0.87274494  1
  In  In34  1  0.84037548  0.65854565  0.38650547  1
  In  In35  1  0.84028154  0.67336376  0.86960779  1
  In  In36  1  0.01456579  0.16672862  0.36722621  1
  In  In37  1  -0.01709293  0.17887062  0.88420202  1
  In  In38  1  -0.00773969  0.51263143  0.38332464  1
  In  In39  1  0.01022599  0.50509397  0.86355800  1
  In  In40  1  -0.00904642  0.82518059  0.36755998  1
  In  In41  1  0.00207086  0.82486315  0.87792691  1
  In  In42  1  0.33189717  0.18043929  0.37509214  1
  In  In43  1  0.32786187  0.16400135  0.87101075  1
  In  In44  1  0.33138459  0.49589681  0.37986159  1
  In  In45  1  0.32921098  0.49711783  0.86501943  1
  In  In46  1  0.34423497  0.82200779  0.37624256  1
  In  In47  1  0.32644563  0.83283386  0.86535115  1
  In  In48  1  0.65099868  0.16257106  0.38112335  1
  In  In49  1  0.68839170  0.17094808  0.87157920  1
  In  In50  1  0.67512742  0.49578829  0.38436520  1
  In  In51  1  0.64331542  0.49711008  0.87105273  1
  In  In52  1  0.68206130  0.83334194  0.38363410  1
  In  In53  1  0.67170673  0.83667679  0.86648009  1
  In  In54  1  0.14825166  -0.00456831  0.11787748  1
  In  In55  1  0.16920527  0.01025833  0.62942810  1
  In  In56  1  0.17246756  0.34434079  0.11415716  1
  In  In57  1  0.15734385  0.36271570  0.65316312  1
  In  In58  1  0.17492377  0.65173189  0.13047034  1
  In  In59  1  0.18613819  0.63994183  0.64676855  1
  In  In60  1  0.50279998  0.00472147  0.12541129  1
  In  In61  1  0.49793907  0.00995413  0.63062230  1
  In  In62  1  0.48647697  0.33907022  0.13416984  1
  In  In63  1  0.49622907  0.33261633  0.62242709  1
  In  In64  1  0.49853798  0.64481407  0.12277186  1
  In  In65  1  0.51163689  0.64645460  0.64632871  1
  In  In66  1  0.85391055  0.00874682  0.10613628  1
  In  In67  1  0.83593661  -0.01390797  0.62117060  1
  In  In68  1  0.83300517  0.32436644  0.12566735  1
  In  In69  1  0.82171580  0.35015227  0.62912621  1
  In  In70  1  0.83468239  0.67907381  0.11907937  1
  In  In71  1  0.83096909  0.66724285  0.62444025  1
  In  In72  1  0.50695897  0.82739185  -0.00484796  1
  In  In73  1  0.00121775  0.33446154  0.24580937  1
  In  In74  1  0.50699241  0.17717400  -0.00444086  1
  In  In75  1  0.66936480  -0.00182094  0.25867082  1
  In  In76  1  0.83270167  0.49570261  -0.00351020  1
  In  In77  1  0.66288325  0.66392838  0.25349841  1
  In  In78  1  0.83057698  0.17012572  0.50457626  1
  In  In79  1  0.33064806  -0.00071421  0.25255316  1
  In  In80  1  0.66544792  0.33537093  0.75271193  1
  In  In81  1  0.16276511  0.82775176  -0.00706683  1
  In  In82  1  0.50701947  0.82386965  0.50684426  1
  In  In83  1  -0.00476771  0.00434388  0.75158151  1
  In  In84  1  0.15843084  0.82859664  0.50536211  1
  In  In85  1  0.17208295  0.17598614  0.50395482  1
  Cu  Cu86  1  0.15662954  0.84131267  0.75255861  1
  Cu  Cu87  1  0.50051940  0.16679229  0.75376844  1
  Cu  Cu88  1  0.83639556  0.16467127  0.24356603  1
  Cu  Cu89  1  0.33278083  0.33582835  0.50509493  1
  Cu  Cu90  1  0.67579650  -0.00182985  -0.00574496  1
  Cu  Cu91  1  0.00378879  0.66221828  0.50518667  1
  Cu  Cu92  1  0.33013964  0.34293311  -0.00460480  1
  Cu  Cu93  1  0.33083558  0.65481634  0.50534122  1
  Cu  Cu94  1  0.16412628  0.16407420  0.24029203  1
  Cu  Cu95  1  0.00459497  0.33558026  -0.00434165  1
  Cu  Cu96  1  0.84161835  0.83561393  0.24652259  1
  Cu  Cu97  1  0.83396924  0.83094724  0.74853558  1
  Cu  Cu98  1  0.49685747  0.17497749  0.25742361  1
  Cu  Cu99  1  0.48876108  0.49150230  0.25167940  1
  Cu  Cu100  1  0.17049570  0.49822897  0.25135677  1
  Cu  Cu101  1  0.82790018  0.50883823  0.25619757  1
  Cu  Cu102  1  0.16306162  0.82490307  0.24857241  1
  Cu  Cu103  1  0.33955893  0.00319572  0.50907594  1
  Cu  Cu104  1  0.33639980  0.65286055  -0.00555730  1
  Cu  Cu105  1  0.49563526  0.82424809  0.24998438  1
  Cu  Cu106  1  0.50609311  0.84312993  0.74540757  1
  Cu  Cu107  1  0.66092024  0.66178697  -0.00509540  1
  Cu  Cu108  1  0.33071637  0.00586122  -0.00554128  1
  Cu  Cu109  1  0.83492118  0.50160083  0.74963819  1
  Cu  Cu110  1  -0.00554172  -0.00431763  0.49316999  1
  Cu  Cu111  1  0.00286244  0.34770133  0.50726708  1
  Cu  Cu112  1  0.66286908  0.33752216  0.50267853  1
  Cu  Cu113  1  0.16868089  0.17039692  0.75261289  1
  Cu  Cu114  1  0.00829461  0.65985808  -0.00567027  1
  Se  Se115  1  0.09243114  0.09102255  0.04794214  1
  Se  Se116  1  0.07520906  0.07582732  0.55291784  1
  Se  Se117  1  0.08708074  0.42351424  0.04477734  1
  Se  Se118  1  0.08747388  0.42212809  0.56571023  1
  Se  Se119  1  0.08318086  0.73878633  0.06128873  1
  Se  Se120  1  0.08601320  0.73244093  0.57060428  1
  Se  Se121  1  0.41354270  0.08133711  0.05512743  1
  Se  Se122  1  0.41722615  0.09184784  0.55929302  1
  Se  Se123  1  0.41662940  0.41591509  0.05494040  1
  Se  Se124  1  0.42032332  0.42080247  0.55301383  1
  Se  Se125  1  0.41005689  0.74042632  0.05469870  1
  Se  Se126  1  0.41183244  0.73696262  0.56359246  1
  Se  Se127  1  0.75230909  0.08591864  0.04961417  1
  Se  Se128  1  0.74328504  0.08153005  0.56438070  1
  Se  Se129  1  0.74365362  0.41208687  0.06073180  1
  Se  Se130  1  0.75177815  0.42152516  0.54887031  1
  Se  Se131  1  0.74777013  0.74520852  0.04365046  1
  Se  Se132  1  0.75608182  0.75099904  0.55141177  1
  Se  Se133  1  0.25054112  0.25346151  0.04726503  1
  Se  Se134  1  0.24861861  0.26611104  0.57019830  1
  Se  Se135  1  0.24955733  0.57841369  0.05242642  1
  Se  Se136  1  0.24749999  0.57343179  0.55956314  1
  Se  Se137  1  0.25634373  0.91974473  0.05472081  1
  Se  Se138  1  0.25442571  0.92099086  0.56154568  1
  Se  Se139  1  0.58515153  0.25484609  0.06960067  1
  Se  Se140  1  0.58028857  0.25130020  0.55220365  1
  Se  Se141  1  0.57707766  0.57715453  0.04471750  1
  Se  Se142  1  0.56898418  0.58585844  0.55705566  1
  Se  Se143  1  0.59368766  0.92324436  0.05796109  1
  Se  Se144  1  0.58685181  0.91796315  0.56773401  1
  Se  Se145  1  0.91660245  0.25797360  0.04985891  1
  Se  Se146  1  0.92307147  0.26172913  0.56247379  1
  Se  Se147  1  0.92524389  0.58424998  0.05791656  1
  Se  Se148  1  0.91698526  0.58098708  0.55803588  1
  Se  Se149  1  0.90744499  0.89350311  0.05346690  1
  Se  Se150  1  0.91213319  0.91089955  0.54407382  1
  Se  Se151  1  0.07445400  0.26233394  0.44400632  1
  Se  Se152  1  0.08678710  0.25295307  0.94089347  1
  Se  Se153  1  0.08860151  0.58012950  0.45150293  1
  Se  Se154  1  0.09139352  0.58286224  0.93760153  1
  Se  Se155  1  0.08273039  0.92228051  0.43543045  1
  Se  Se156  1  0.06890910  0.92604786  0.94689232  1
  Se  Se157  1  0.41329364  0.25065847  0.44963271  1
  Se  Se158  1  0.41183816  0.26178667  0.93601386  1
  Se  Se159  1  0.41661202  0.57830021  0.44863364  1
  Se  Se160  1  0.41835680  0.57452691  0.93692431  1
  Se  Se161  1  0.41312933  0.91963728  0.44657341  1
  Se  Se162  1  0.41001306  0.91901915  0.94084223  1
  Se  Se163  1  0.74581160  0.26032740  0.43982500  1
  Se  Se164  1  0.75120521  0.24851947  0.95143992  1
  Se  Se165  1  0.74243461  0.59266629  0.44958660  1
  Se  Se166  1  0.74507206  0.58491469  0.93441988  1
  Se  Se167  1  0.73073196  0.93991658  0.44833177  1
  Se  Se168  1  0.75257418  0.90804093  0.94301654  1
  Se  Se169  1  0.25822449  0.07749556  0.44416331  1
  Se  Se170  1  0.24621679  0.08881613  0.94524206  1
  Se  Se171  1  0.24586958  0.41506459  0.45031553  1
  Se  Se172  1  0.24676249  0.42215709  0.93872443  1
  Se  Se173  1  0.25594607  0.74278121  0.44636891  1
  Se  Se174  1  0.25612488  0.73746772  0.93685748  1
  Se  Se175  1  0.58112139  0.08890500  0.45938504  1
  Se  Se176  1  0.58900568  0.07660969  0.93872476  1
  Se  Se177  1  0.57961636  0.41949002  0.44734377  1
  Se  Se178  1  0.59589425  0.40260783  0.94714534  1
  Se  Se179  1  0.58989139  0.73887273  0.43824970  1
  Se  Se180  1  0.58380896  0.73749195  0.92865508  1
  Se  Se181  1  0.92259207  0.08703722  0.43661212  1
  Se  Se182  1  0.91993376  0.08062220  0.95091681  1
  Se  Se183  1  0.91494415  0.42387198  0.45172470  1
  Se  Se184  1  0.92461830  0.41346983  0.93271031  1
  Se  Se185  1  0.92544391  0.74913245  0.44887007  1
  Se  Se186  1  0.91988482  0.74348375  0.94774270  1
  Se  Se187  1  0.24357436  0.24361571  0.30003292  1
  Se  Se188  1  0.25228679  0.25444626  0.80422479  1
  Se  Se189  1  0.24985799  0.58036882  0.30953193  1
  Se  Se190  1  0.27688548  0.60331631  0.79486852  1
  Se  Se191  1  0.24204466  0.90423290  0.31263868  1
  Se  Se192  1  0.24385758  0.92336390  0.80273241  1
  Se  Se193  1  0.58443716  0.25321264  0.31004574  1
  Se  Se194  1  0.57597155  0.24728884  0.81710148  1
  Se  Se195  1  0.57246214  0.57241145  0.31040990  1
  Se  Se196  1  0.58861948  0.58336725  0.79294653  1
  Se  Se197  1  0.57618425  0.90007416  0.31130886  1
  Se  Se198  1  0.59078043  0.92362603  0.79981872  1
  Se  Se199  1  0.90989732  0.24752353  0.30940891  1
  Se  Se200  1  0.91818516  0.24584843  0.79951862  1
  Se  Se201  1  0.91597277  0.58833907  0.30654499  1
  Se  Se202  1  0.91856486  0.58692561  0.80118021  1
  Se  Se203  1  0.91976081  0.92240348  0.30161100  1
  Se  Se204  1  0.91052925  0.91100319  0.81231171  1
  Se  Se205  1  0.07968627  0.08062322  0.29169426  1
  Se  Se206  1  0.08553144  0.09137880  0.81255780  1
  Se  Se207  1  0.08452831  0.42158842  0.31267168  1
  Se  Se208  1  0.09614117  0.42795646  0.79425106  1
  Se  Se209  1  0.07937403  0.74385336  0.30362346  1
  Se  Se210  1  0.07879877  0.75055191  0.80220450  1
  Se  Se211  1  0.42546150  0.08221531  0.31589833  1
  Se  Se212  1  0.41377661  0.08220482  0.80386250  1
  Se  Se213  1  0.40819342  0.40940313  0.30851787  1
  Se  Se214  1  0.41192693  0.41676805  0.79255742  1
  Se  Se215  1  0.40971152  0.74077344  0.29857616  1
  Se  Se216  1  0.42335350  0.76204376  0.80178477  1
  Se  Se217  1  0.75930067  0.09350135  0.31406364  1
  Se  Se218  1  0.75074309  0.07629758  0.80301240  1
  Se  Se219  1  0.74494337  0.42065744  0.30321558  1
  Se  Se220  1  0.75821384  0.42310741  0.81436180  1
  Se  Se221  1  0.75959471  0.75473576  0.30691322  1
  Se  Se222  1  0.74935310  0.74575591  0.80029146  1
  Se  Se223  1  0.24906396  0.08399824  0.18315258  1
  Se  Se224  1  0.25138586  0.08576006  0.69988843  1
  Se  Se225  1  0.24745836  0.41216207  0.19503079  1
  Se  Se226  1  0.28245855  0.40256524  0.70321453  1
  Se  Se227  1  0.25059023  0.74118749  0.20085448  1
  Se  Se228  1  0.23962669  0.76278545  0.69455103  1
  Se  Se229  1  0.57664367  0.09159575  0.19862605  1
  Se  Se230  1  0.58612269  0.08683736  0.70065264  1
  Se  Se231  1  0.58084285  0.41661984  0.19891932  1
  Se  Se232  1  0.58517366  0.42291511  0.68580504  1
  Se  Se233  1  0.57719010  0.75269190  0.18493118  1
  Se  Se234  1  0.58687950  0.75168727  0.69874138  1
  Se  Se235  1  0.91835881  0.08321237  0.18910511  1
  Se  Se236  1  0.90913259  0.08953754  0.68580230  1
  Se  Se237  1  0.90638554  0.42882728  0.19147447  1
  Se  Se238  1  0.91607487  0.41513086  0.69791718  1
  Se  Se239  1  0.91850294  0.74322877  0.19625263  1
  Se  Se240  1  0.91700949  0.74614699  0.69656729  1
  Se  Se241  1  0.08568024  0.24698349  0.18090370  1
  Se  Se242  1  0.08178983  0.25270572  0.70242129  1
  Se  Se243  1  0.08253718  0.57888641  0.19946112  1
  Se  Se244  1  0.08396034  0.57550592  0.70861983  1
  Se  Se245  1  0.08474871  0.91370848  0.19653763  1
  Se  Se246  1  0.07863158  0.91275183  0.68445578  1
  Se  Se247  1  0.40906445  0.25037717  0.20296432  1
  Se  Se248  1  0.42294861  0.25245539  0.69872172  1
  Se  Se249  1  0.41150414  0.57916661  0.19609713  1
  Se  Se250  1  0.38977837  0.60444074  0.69975485  1
  Se  Se251  1  0.42060682  0.90791769  0.18838681  1
  Se  Se252  1  0.41517335  0.92565266  0.69874389  1
  Se  Se253  1  0.74905067  0.25099366  0.19947107  1
  Se  Se254  1  0.75747358  0.24456398  0.69455529  1
  Se  Se255  1  0.75182596  0.58093002  0.18582108  1
  Se  Se256  1  0.75042375  0.58089802  0.69376337  1
  Se  Se257  1  0.75737071  0.91751622  0.19035945  1
  Se  Se258  1  0.75236702  0.91572430  0.69568330  1
