# generated using pymatgen
data_In86Cu29Se144
_symmetry_space_group_name_H-M   'P 1'
_cell_length_a   17.57183905
_cell_length_b   17.57769367
_cell_length_c   23.43475373
_cell_angle_alpha   89.99614533
_cell_angle_beta   89.99153923
_cell_angle_gamma   90.01007656
_symmetry_Int_Tables_number   1
_chemical_formula_structural   In86Cu29Se144
_chemical_formula_sum   'In86 Cu29 Se144'
_cell_volume   7238.34851544
_cell_formula_units_Z   1
loop_
 _symmetry_equiv_pos_site_id
 _symmetry_equiv_pos_as_xyz
  1  'x, y, z'
loop_
 _atom_site_type_symbol
 _atom_site_label
 _atom_site_symmetry_multiplicity
 _atom_site_fract_x
 _atom_site_fract_y
 _atom_site_fract_z
 _atom_site_occupancy
  In  In0  1  0.01002756  0.15447351  0.11345045  1
  In  In1  1  0.01240749  0.15703444  0.63675792  1
  In  In2  1  0.01104420  0.50959350  0.14610722  1
  In  In3  1  0.00467003  0.50290608  0.61653703  1
  In  In4  1  0.01087929  0.83485698  0.12362906  1
  In  In5  1  0.00123667  0.83487411  0.62312302  1
  In  In6  1  0.32184693  0.16654496  0.12909454  1
  In  In7  1  0.31914366  0.17179719  0.62884405  1
  In  In8  1  0.30915797  0.51252255  0.14611523  1
  In  In9  1  0.32566455  0.52161397  0.61891622  1
  In  In10  1  0.31544997  0.85524202  0.14036414  1
  In  In11  1  0.32515221  0.82881026  0.61806411  1
  In  In12  1  0.67812822  0.14704956  0.11926548  1
  In  In13  1  0.67003278  0.16243471  0.62969040  1
  In  In14  1  0.68388818  0.50830331  0.13200692  1
  In  In15  1  0.67527988  0.48896760  0.62201051  1
  In  In16  1  0.67052537  0.82777374  0.12426296  1
  In  In17  1  0.66344054  0.82994038  0.61776561  1
  In  In18  1  0.16200383  -0.00343356  0.37638643  1
  In  In19  1  0.15804007  -0.00534746  0.88588789  1
  In  In20  1  0.16045656  0.33130001  0.37183680  1
  In  In21  1  0.15428876  0.33863367  0.87325582  1
  In  In22  1  0.16825499  0.67329438  0.37820984  1
  In  In23  1  0.17076992  0.67394324  0.86526507  1
  In  In24  1  0.47994074  -0.00290179  0.37071889  1
  In  In25  1  0.48945569  0.00606839  0.86955089  1
  In  In26  1  0.48499893  0.35189170  0.37759639  1
  In  In27  1  0.50151464  0.31753037  0.87301797  1
  In  In28  1  0.50465507  0.67362933  0.37124993  1
  In  In29  1  0.48703202  0.68128356  0.87469916  1
  In  In30  1  0.84456236  -0.02519076  0.37163408  1
  In  In31  1  0.86381296  -0.02375298  0.90674034  1
  In  In32  1  0.86252201  0.33473077  0.36826954  1
  In  In33  1  0.84484595  0.31766273  0.87948574  1
  In  In34  1  0.83363829  0.67376793  0.37194121  1
  In  In35  1  0.85296516  0.66338830  0.87396185  1
  In  In36  1  0.01270549  0.17571141  0.36447657  1
  In  In37  1  0.00147547  0.16445889  0.88044514  1
  In  In38  1  0.00451126  0.49994779  0.37589264  1
  In  In39  1  0.00901573  0.50556994  0.86320580  1
  In  In40  1  -0.00244751  0.83837055  0.37011996  1
  In  In41  1  0.00186385  0.82837009  0.87733505  1
  In  In42  1  0.31117831  0.15199642  0.36779329  1
  In  In43  1  0.31464034  0.12385108  0.87426282  1
  In  In44  1  0.31873580  0.49597706  0.36485253  1
  In  In45  1  0.31584383  0.50436050  0.86922535  1
  In  In46  1  0.32979106  0.83179924  0.37884791  1
  In  In47  1  0.32310770  0.83440451  0.87260808  1
  In  In48  1  0.67028072  0.16388560  0.37055252  1
  In  In49  1  0.67403171  0.16535313  0.87856638  1
  In  In50  1  0.66461148  0.52289039  0.37253357  1
  In  In51  1  0.67293030  0.49544886  0.87118484  1
  In  In52  1  0.68323644  0.81494847  0.38074444  1
  In  In53  1  0.67497595  0.84819480  0.87857556  1
  In  In54  1  0.16869215  -0.00427380  0.11371603  1
  In  In55  1  0.16348225  0.00062489  0.62370019  1
  In  In56  1  0.17037474  0.32651439  0.13651642  1
  In  In57  1  0.15700645  0.32297879  0.61668114  1
  In  In58  1  0.14221978  0.68517766  0.15217873  1
  In  In59  1  0.16565468  0.66936908  0.61580305  1
  In  In60  1  0.49780087  -0.00576140  0.12730594  1
  In  In61  1  0.49799953  -0.01690833  0.62431641  1
  In  In62  1  0.48455204  0.32414507  0.12818970  1
  In  In63  1  0.49197137  0.33392500  0.62201114  1
  In  In64  1  0.49313207  0.67645862  0.13603145  1
  In  In65  1  0.47803042  0.67202435  0.62146903  1
  In  In66  1  0.84615981  0.00218592  0.10563422  1
  In  In67  1  0.84740713  0.00057949  0.62578183  1
  In  In68  1  0.85382630  0.32784463  0.13127611  1
  In  In69  1  0.83876410  0.34781752  0.61989316  1
  In  In70  1  0.83111327  0.68604405  0.14817520  1
  In  In71  1  0.85097914  0.67941739  0.61426975  1
  In  In72  1  0.66782450  0.66418552  0.74839701  1
  In  In73  1  0.49935030  0.16279186  -0.00276300  1
  In  In74  1  0.49521515  0.50342734  0.01053782  1
  In  In75  1  0.49627674  0.16532661  0.50571005  1
  In  In76  1  0.16305643  0.50323016  0.01203948  1
  In  In77  1  0.66843440  -0.00764468  0.24316400  1
  In  In78  1  0.66009916  0.33729405  0.24889756  1
  In  In79  1  0.67453011  0.32843496  0.76035421  1
  In  In80  1  0.84457161  0.50271965  0.01077862  1
  In  In81  1  0.66760081  0.00243904  0.75554192  1
  In  In82  1  0.33081846  0.33085160  0.74497609  1
  In  In83  1  0.49709779  0.51248373  0.49569198  1
  In  In84  1  0.84420644  0.16155485  0.50022820  1
  In  In85  1  0.50242153  0.83515643  -0.00138710  1
  Cu  Cu86  1  0.84187100  0.15401945  0.24015993  1
  Cu  Cu87  1  0.47914547  0.83015192  0.74776949  1
  Cu  Cu88  1  0.32468287  0.67737701  -0.00073238  1
  Cu  Cu89  1  0.67172541  0.66555520  0.49940984  1
  Cu  Cu90  1  0.50021681  0.83670234  0.25462272  1
  Cu  Cu91  1  -0.00107251  0.32808776  0.00299488  1
  Cu  Cu92  1  0.32949028  0.32621946  0.00544999  1
  Cu  Cu93  1  0.00338695  -0.00475390  0.50126347  1
  Cu  Cu94  1  0.68099620  0.67070516  0.00698612  1
  Cu  Cu95  1  -0.00088158  0.66753234  0.49195086  1
  Cu  Cu96  1  0.66650769  0.33193962  -0.00086991  1
  Cu  Cu97  1  0.15828970  0.15806549  0.24654822  1
  Cu  Cu98  1  0.68024628  0.33461020  0.49607795  1
  Cu  Cu99  1  0.49407795  0.50090106  0.74466735  1
  Cu  Cu100  1  0.00487146  0.33591774  0.49562784  1
  Cu  Cu101  1  0.66535266  -0.00620183  0.49330866  1
  Cu  Cu102  1  0.32396384  -0.00514473  0.49694067  1
  Cu  Cu103  1  0.16188130  0.83916190  0.74762782  1
  Cu  Cu104  1  0.83309195  0.50865588  0.25692222  1
  Cu  Cu105  1  0.32620831  0.33081756  0.49234293  1
  Cu  Cu106  1  0.17086085  0.84008174  0.25522788  1
  Cu  Cu107  1  0.85259874  0.50452040  0.74043103  1
  Cu  Cu108  1  0.16361312  0.50642811  0.74164818  1
  Cu  Cu109  1  0.48713205  0.17203371  0.25291346  1
  Cu  Cu110  1  0.16674326  0.16355998  0.75443232  1
  Cu  Cu111  1  0.49271701  0.50470892  0.25217661  1
  Cu  Cu112  1  0.00676932  0.67288691  0.00630272  1
  Cu  Cu113  1  0.84432931  0.16389538  0.75661242  1
  Cu  Cu114  1  0.83989039  0.83912659  0.75235540  1
  Se  Se115  1  0.10626245  0.09427607  0.04328139  1
  Se  Se116  1  0.07919067  0.08528782  0.55436590  1
  Se  Se117  1  0.07111062  0.41123957  0.06797924  1
  Se  Se118  1  0.08952974  0.41876454  0.54918409  1
  Se  Se119  1  0.09972836  0.74792588  0.05757488  1
  Se  Se120  1  0.07670263  0.75121761  0.55048282  1
  Se  Se121  1  0.41008506  0.07782355  0.06007993  1
  Se  Se122  1  0.40346471  0.07454562  0.56115337  1
  Se  Se123  1  0.39814727  0.41620754  0.06540147  1
  Se  Se124  1  0.40621759  0.41378535  0.55247331  1
  Se  Se125  1  0.41039365  0.75090383  0.06052719  1
  Se  Se126  1  0.41576318  0.75630473  0.54749455  1
  Se  Se127  1  0.74772619  0.07484328  0.04162721  1
  Se  Se128  1  0.74226320  0.07450467  0.55597021  1
  Se  Se129  1  0.74744941  0.40646579  0.06270875  1
  Se  Se130  1  0.75968482  0.42393146  0.54566935  1
  Se  Se131  1  0.76550875  0.75000375  0.06068889  1
  Se  Se132  1  0.75281435  0.75301209  0.55205754  1
  Se  Se133  1  0.24170143  0.24915802  0.05791838  1
  Se  Se134  1  0.24896766  0.24633631  0.54996781  1
  Se  Se135  1  0.25017824  0.59987505  0.06534668  1
  Se  Se136  1  0.25192379  0.59401158  0.54374294  1
  Se  Se137  1  0.25888823  0.91192716  0.05045243  1
  Se  Se138  1  0.23973995  0.91512769  0.55255145  1
  Se  Se139  1  0.58774177  0.25437367  0.06251584  1
  Se  Se140  1  0.59752398  0.25984723  0.55783372  1
  Se  Se141  1  0.59365322  0.59373598  0.06414814  1
  Se  Se142  1  0.59070332  0.59060844  0.56454551  1
  Se  Se143  1  0.59337765  0.92518892  0.05804605  1
  Se  Se144  1  0.58122949  0.91419757  0.54956642  1
  Se  Se145  1  0.91529606  0.24404760  0.05455214  1
  Se  Se146  1  0.92917256  0.25364251  0.56097879  1
  Se  Se147  1  0.93093132  0.59211002  0.07108144  1
  Se  Se148  1  0.91729000  0.58211089  0.54775887  1
  Se  Se149  1  0.94263191  0.91967673  0.04600285  1
  Se  Se150  1  0.91385218  0.91525211  0.55199610  1
  Se  Se151  1  0.08378050  0.24541443  0.44583825  1
  Se  Se152  1  0.08546658  0.25401426  0.94646676  1
  Se  Se153  1  0.08603171  0.58348605  0.44465401  1
  Se  Se154  1  0.08036099  0.58928292  0.94211617  1
  Se  Se155  1  0.08213999  0.91112626  0.44550697  1
  Se  Se156  1  0.05942299  0.92381845  0.95202884  1
  Se  Se157  1  0.40922179  0.24809684  0.43643875  1
  Se  Se158  1  0.40179015  0.24903044  0.93889902  1
  Se  Se159  1  0.40535463  0.58892836  0.43110761  1
  Se  Se160  1  0.40395253  0.58915610  0.94311989  1
  Se  Se161  1  0.41610402  0.91652639  0.44837810  1
  Se  Se162  1  0.40843012  0.92299522  0.94202949  1
  Se  Se163  1  0.75558076  0.25196201  0.43595571  1
  Se  Se164  1  0.75115647  0.25006589  0.94846157  1
  Se  Se165  1  0.75524663  0.58566826  0.44458852  1
  Se  Se166  1  0.74927652  0.58376656  0.94355393  1
  Se  Se167  1  0.75473049  0.91274387  0.44605195  1
  Se  Se168  1  0.75079414  0.91131699  0.95741182  1
  Se  Se169  1  0.24062868  0.08315901  0.44888330  1
  Se  Se170  1  0.22944160  0.08900837  0.95737504  1
  Se  Se171  1  0.24501525  0.41523241  0.44007057  1
  Se  Se172  1  0.25298198  0.41343841  0.94619197  1
  Se  Se173  1  0.24052064  0.76078097  0.44917045  1
  Se  Se174  1  0.23970892  0.75424201  0.94320863  1
  Se  Se175  1  0.58485269  0.07860821  0.43842609  1
  Se  Se176  1  0.58906555  0.06930508  0.93974437  1
  Se  Se177  1  0.59233593  0.41510154  0.44102631  1
  Se  Se178  1  0.58305610  0.41188267  0.94240269  1
  Se  Se179  1  0.58479315  0.74719735  0.44729746  1
  Se  Se180  1  0.59616409  0.73931187  0.94091176  1
  Se  Se181  1  0.92723313  0.07500354  0.43455564  1
  Se  Se182  1  0.89775786  0.10702472  0.94712728  1
  Se  Se183  1  0.91683772  0.41939878  0.44799905  1
  Se  Se184  1  0.92922634  0.41822041  0.94126097  1
  Se  Se185  1  0.91599522  0.75489585  0.44220787  1
  Se  Se186  1  0.91664280  0.74615833  0.95033255  1
  Se  Se187  1  0.23909731  0.24423256  0.30096762  1
  Se  Se188  1  0.24785358  0.24528441  0.81454664  1
  Se  Se189  1  0.23530688  0.58433511  0.30219953  1
  Se  Se190  1  0.24883380  0.58771578  0.79486371  1
  Se  Se191  1  0.25515659  0.92192371  0.30905850  1
  Se  Se192  1  0.23935540  0.92100670  0.80799042  1
  Se  Se193  1  0.56964114  0.24857780  0.31305513  1
  Se  Se194  1  0.57727451  0.22846293  0.80243549  1
  Se  Se195  1  0.58102914  0.58977823  0.29795584  1
  Se  Se196  1  0.57219150  0.57723025  0.81045502  1
  Se  Se197  1  0.58434005  0.91328929  0.31542992  1
  Se  Se198  1  0.57018130  0.90370378  0.80646680  1
  Se  Se199  1  0.91868855  0.24262618  0.29343128  1
  Se  Se200  1  0.92847573  0.25213314  0.80415682  1
  Se  Se201  1  0.92116939  0.58659181  0.30846318  1
  Se  Se202  1  0.92823631  0.59216767  0.79584969  1
  Se  Se203  1  0.91767007  0.90996051  0.29210431  1
  Se  Se204  1  0.91675252  0.91962840  0.81288592  1
  Se  Se205  1  0.07837667  0.07288255  0.30231390  1
  Se  Se206  1  0.08499938  0.08268457  0.81174266  1
  Se  Se207  1  0.05437731  0.39152226  0.30980912  1
  Se  Se208  1  0.08653530  0.41814965  0.79544882  1
  Se  Se209  1  0.08729422  0.75488775  0.30602337  1
  Se  Se210  1  0.07982121  0.75282172  0.80102189  1
  Se  Se211  1  0.40606466  0.08158376  0.30000690  1
  Se  Se212  1  0.41366372  0.08819983  0.80016482  1
  Se  Se213  1  0.40926956  0.41559973  0.29780731  1
  Se  Se214  1  0.42148035  0.42032903  0.81067517  1
  Se  Se215  1  0.41526455  0.75411311  0.30637102  1
  Se  Se216  1  0.39920985  0.74558794  0.80151389  1
  Se  Se217  1  0.75994366  0.08244148  0.30510968  1
  Se  Se218  1  0.76480677  0.08251820  0.81475160  1
  Se  Se219  1  0.75275565  0.41957809  0.31291996  1
  Se  Se220  1  0.77501869  0.42548087  0.80604526  1
  Se  Se221  1  0.75494516  0.75392031  0.29820164  1
  Se  Se222  1  0.75694304  0.75624123  0.80961158  1
  Se  Se223  1  0.24262020  0.07577060  0.19291067  1
  Se  Se224  1  0.24599891  0.08218944  0.69656430  1
  Se  Se225  1  0.25095522  0.40611995  0.20584344  1
  Se  Se226  1  0.24493612  0.42210845  0.68327465  1
  Se  Se227  1  0.25554775  0.75172464  0.20462575  1
  Se  Se228  1  0.24029932  0.75343658  0.69106193  1
  Se  Se229  1  0.57477734  0.09600358  0.19423021  1
  Se  Se230  1  0.57367923  0.08391322  0.69063356  1
  Se  Se231  1  0.57148953  0.42828681  0.18618968  1
  Se  Se232  1  0.57953549  0.41658777  0.69442630  1
  Se  Se233  1  0.58448240  0.75856305  0.19786951  1
  Se  Se234  1  0.57256167  0.75558943  0.69284044  1
  Se  Se235  1  0.92311897  0.07491092  0.18325566  1
  Se  Se236  1  0.92170468  0.07700030  0.70130560  1
  Se  Se237  1  0.91274680  0.42499507  0.20090772  1
  Se  Se238  1  0.92978618  0.41398935  0.69009390  1
  Se  Se239  1  0.95716774  0.72767815  0.19202477  1
  Se  Se240  1  0.91731997  0.75405246  0.69570195  1
  Se  Se241  1  0.07531441  0.24021276  0.19118209  1
  Se  Se242  1  0.08994536  0.25165616  0.70002478  1
  Se  Se243  1  0.12111356  0.56006779  0.20972552  1
  Se  Se244  1  0.08144705  0.58881501  0.68726366  1
  Se  Se245  1  0.09332481  0.91910987  0.19223735  1
  Se  Se246  1  0.07812573  0.92116243  0.69344800  1
  Se  Se247  1  0.40087668  0.25245613  0.20040755  1
  Se  Se248  1  0.42857911  0.23804652  0.69297379  1
  Se  Se249  1  0.40990532  0.59174842  0.20161014  1
  Se  Se250  1  0.41035134  0.58634273  0.69597701  1
  Se  Se251  1  0.41898781  0.92298218  0.20286977  1
  Se  Se252  1  0.40357980  0.91508748  0.69139952  1
  Se  Se253  1  0.75202532  0.24101146  0.19175292  1
  Se  Se254  1  0.76561535  0.24404032  0.69284774  1
  Se  Se255  1  0.74642389  0.59294632  0.20807460  1
  Se  Se256  1  0.76106712  0.57979803  0.68625634  1
  Se  Se257  1  0.76697507  0.91463924  0.18316037  1
  Se  Se258  1  0.75271681  0.91070967  0.69142920  1
