# generated using pymatgen
data_In86Cu29Se144
_symmetry_space_group_name_H-M   'P 1'
_cell_length_a   17.66527145
_cell_length_b   17.67702020
_cell_length_c   23.53662015
_cell_angle_alpha   89.98030593
_cell_angle_beta   89.96554598
_cell_angle_gamma   90.00178868
_symmetry_Int_Tables_number   1
_chemical_formula_structural   In86Cu29Se144
_chemical_formula_sum   'In86 Cu29 Se144'
_cell_volume   7349.76354759
_cell_formula_units_Z   1
loop_
 _symmetry_equiv_pos_site_id
 _symmetry_equiv_pos_as_xyz
  1  'x, y, z'
loop_
 _atom_site_type_symbol
 _atom_site_label
 _atom_site_symmetry_multiplicity
 _atom_site_fract_x
 _atom_site_fract_y
 _atom_site_fract_z
 _atom_site_occupancy
  In  In0  1  0.00521829  0.16826518  0.13463688  1
  In  In1  1  0.00435929  0.16436630  0.62531762  1
  In  In2  1  0.01356133  0.49229393  0.13499850  1
  In  In3  1  -0.00883460  0.49674938  0.62259535  1
  In  In4  1  0.00470163  0.82814096  0.12869166  1
  In  In5  1  0.00440933  0.83291517  0.62036120  1
  In  In6  1  0.32397394  0.17158803  0.13456296  1
  In  In7  1  0.32897452  0.16518328  0.62205559  1
  In  In8  1  0.30897739  0.50206097  0.12655816  1
  In  In9  1  0.32128029  0.50398587  0.62657531  1
  In  In10  1  0.32538510  0.83901595  0.12984730  1
  In  In11  1  0.33212739  0.83887896  0.62107918  1
  In  In12  1  0.66371765  0.16779714  0.12863573  1
  In  In13  1  0.66857040  0.17615492  0.61509707  1
  In  In14  1  0.67437025  0.51025725  0.12308072  1
  In  In15  1  0.67687493  0.48106189  0.63259900  1
  In  In16  1  0.66960822  0.82211362  0.12388256  1
  In  In17  1  0.66444273  0.83275156  0.61957959  1
  In  In18  1  0.16299478  -0.00127136  0.37665502  1
  In  In19  1  0.15704887  -0.00422398  0.86573621  1
  In  In20  1  0.16734727  0.32911901  0.37961247  1
  In  In21  1  0.17189165  0.33505131  0.86939590  1
  In  In22  1  0.13800470  0.68847100  0.39836799  1
  In  In23  1  0.15131212  0.68371956  0.89271059  1
  In  In24  1  0.48863923  0.00945248  0.38281929  1
  In  In25  1  0.50219571  0.00552652  0.86858692  1
  In  In26  1  0.48529079  0.33287578  0.37704616  1
  In  In27  1  0.50138534  0.34500124  0.85267656  1
  In  In28  1  0.50835926  0.66572809  0.37909886  1
  In  In29  1  0.49338656  0.66853399  0.87156326  1
  In  In30  1  0.84418541  -0.00656377  0.38217792  1
  In  In31  1  0.84209610  -0.01476127  0.87564073  1
  In  In32  1  0.84507578  0.31827383  0.38462512  1
  In  In33  1  0.86955072  0.38899875  0.80910648  1
  In  In34  1  0.88589622  0.63634370  0.42383567  1
  In  In35  1  0.88521553  0.67783002  0.85933902  1
  In  In36  1  0.00483046  0.16624990  0.37761170  1
  In  In37  1  0.00412589  0.17384242  0.86378558  1
  In  In38  1  0.01012352  0.49286628  0.38179091  1
  In  In39  1  0.01304810  0.49995400  0.87362049  1
  In  In40  1  -0.00716061  0.83714945  0.37513241  1
  In  In41  1  0.00587164  0.83697278  0.87476624  1
  In  In42  1  0.32945875  0.16366667  0.37905461  1
  In  In43  1  0.33893669  0.17009563  0.86279428  1
  In  In44  1  0.32532019  0.48622603  0.37264407  1
  In  In45  1  0.32338163  0.49421555  0.87259240  1
  In  In46  1  0.31850409  0.84262918  0.38209424  1
  In  In47  1  0.30963718  0.82657465  0.87117211  1
  In  In48  1  0.66510891  0.16209145  0.38568292  1
  In  In49  1  0.67019795  0.17582462  0.86960043  1
  In  In50  1  0.67912426  0.51546907  0.37687946  1
  In  In51  1  0.68265412  0.50109421  0.86461383  1
  In  In52  1  0.67598122  0.82471325  0.38468607  1
  In  In53  1  0.68237079  0.83901579  0.87618461  1
  In  In54  1  0.16730823  -0.00741149  0.13478877  1
  In  In55  1  0.16726458  -0.00133985  0.62279501  1
  In  In56  1  0.16011605  0.34677761  0.13717674  1
  In  In57  1  0.16478155  0.33289389  0.62768468  1
  In  In58  1  0.14893901  0.64973983  0.11243626  1
  In  In59  1  0.14764301  0.65542709  0.61102625  1
  In  In60  1  0.48155678  -0.00715579  0.12862391  1
  In  In61  1  0.48189464  -0.01209104  0.61977915  1
  In  In62  1  0.49450194  0.32141878  0.12073585  1
  In  In63  1  0.50704457  0.32725160  0.63184365  1
  In  In64  1  0.50298140  0.66870601  0.12340255  1
  In  In65  1  0.49291034  0.67301120  0.62497519  1
  In  In66  1  0.85413748  -0.00492640  0.13260035  1
  In  In67  1  0.83975806  0.01092869  0.61698956  1
  In  In68  1  0.84528967  0.34876812  0.12543318  1
  In  In69  1  0.83585833  0.32671409  0.62397994  1
  In  In70  1  0.84034021  0.67535665  0.12174719  1
  In  In71  1  0.84660731  0.67392471  0.61487438  1
  In  In72  1  0.66775980  -0.00051819  0.74497550  1
  In  In73  1  0.49332871  0.83673271  0.00056730  1
  In  In74  1  0.67114743  0.66368271  0.74343882  1
  In  In75  1  0.16691098  0.16585174  -0.00438246  1
  In  In76  1  0.50029721  0.16933288  -0.01387520  1
  In  In77  1  0.83338711  0.16574919  -0.00100533  1
  In  In78  1  0.67078573  0.33399360  0.25420150  1
  In  In79  1  0.32403746  0.66882107  0.75032153  1
  In  In80  1  0.48968184  0.49573522  -0.01588437  1
  In  In81  1  0.67316406  0.67025418  0.25085226  1
  In  In82  1  0.84430582  0.50561162  -0.01691138  1
  In  In83  1  0.50367089  0.49847649  0.50662232  1
  In  In84  1  0.66701739  -0.00003924  0.25766789  1
  In  In85  1  0.32426037  0.66225931  0.25458411  1
  Cu  Cu86  1  0.32979839  -0.00067982  0.50012806  1
  Cu  Cu87  1  0.66434762  0.33578713  0.50274339  1
  Cu  Cu88  1  0.16940201  0.16464065  0.25826505  1
  Cu  Cu89  1  0.49870294  0.49229887  0.24327831  1
  Cu  Cu90  1  0.16307594  0.50212397  0.74414402  1
  Cu  Cu91  1  0.84230213  0.16976671  0.25354964  1
  Cu  Cu92  1  0.49081366  0.84187792  0.25862328  1
  Cu  Cu93  1  0.16790336  0.16491677  0.74383903  1
  Cu  Cu94  1  0.65834351  0.00262419  0.50456515  1
  Cu  Cu95  1  0.67062433  0.66907700  0.50473710  1
  Cu  Cu96  1  0.67763956  -0.00508451  0.00261479  1
  Cu  Cu97  1  0.49136644  0.15649899  0.74160815  1
  Cu  Cu98  1  0.33257311  0.00398025  0.00042278  1
  Cu  Cu99  1  0.16070078  0.83141123  0.25534297  1
  Cu  Cu100  1  0.00338721  0.00291826  0.50066046  1
  Cu  Cu101  1  0.84556790  0.83221844  0.74622896  1
  Cu  Cu102  1  0.83326484  0.16477251  0.74026089  1
  Cu  Cu103  1  0.48983119  0.16703340  0.25413397  1
  Cu  Cu104  1  0.32771482  0.32900521  0.50093340  1
  Cu  Cu105  1  0.16312891  0.50342787  0.25751968  1
  Cu  Cu106  1  0.67745241  0.33500134  -0.00858806  1
  Cu  Cu107  1  0.32605491  0.33938742  -0.00435345  1
  Cu  Cu108  1  0.00289710  -0.00764125  0.00127168  1
  Cu  Cu109  1  0.85107959  0.50108968  0.25988107  1
  Cu  Cu110  1  0.15880094  0.82992247  0.74565112  1
  Cu  Cu111  1  0.33449305  0.66520115  0.50392070  1
  Cu  Cu112  1  0.66947587  0.66602956  -0.00274703  1
  Cu  Cu113  1  0.00492024  0.32674400  0.50487539  1
  Cu  Cu114  1  0.84118325  0.83022616  0.25283392  1
  Se  Se115  1  0.07979729  0.07771434  0.06004197  1
  Se  Se116  1  0.08675927  0.08443556  0.55432427  1
  Se  Se117  1  0.08428044  0.41288456  0.05949353  1
  Se  Se118  1  0.08131968  0.41458509  0.55874985  1
  Se  Se119  1  0.09605774  0.76349951  0.05735372  1
  Se  Se120  1  0.08424896  0.75565797  0.54702814  1
  Se  Se121  1  0.41241375  0.08868437  0.05604528  1
  Se  Se122  1  0.41312426  0.08270281  0.55299000  1
  Se  Se123  1  0.41025492  0.41296009  0.05829959  1
  Se  Se124  1  0.40833868  0.40992500  0.56119031  1
  Se  Se125  1  0.40730079  0.74462585  0.06095454  1
  Se  Se126  1  0.41641710  0.75206206  0.55343149  1
  Se  Se127  1  0.74797778  0.07516605  0.06730203  1
  Se  Se128  1  0.74755090  0.08545990  0.55125984  1
  Se  Se129  1  0.74896897  0.41741801  0.05372931  1
  Se  Se130  1  0.75325637  0.41240411  0.55438915  1
  Se  Se131  1  0.75105907  0.74801766  0.05222202  1
  Se  Se132  1  0.75348682  0.75567101  0.55369525  1
  Se  Se133  1  0.25415614  0.25553361  0.05731553  1
  Se  Se134  1  0.24392431  0.24915180  0.55619634  1
  Se  Se135  1  0.25056872  0.58402385  0.05034611  1
  Se  Se136  1  0.24855783  0.58026516  0.55123458  1
  Se  Se137  1  0.25234734  0.92562968  0.05866366  1
  Se  Se138  1  0.24638127  0.91465144  0.55147888  1
  Se  Se139  1  0.59649352  0.25571801  0.05046090  1
  Se  Se140  1  0.57555576  0.25400379  0.55072021  1
  Se  Se141  1  0.58477208  0.58394236  0.04944917  1
  Se  Se142  1  0.59286212  0.58778328  0.56691015  1
  Se  Se143  1  0.58754374  0.92498521  0.06281442  1
  Se  Se144  1  0.57821108  0.91496559  0.55462267  1
  Se  Se145  1  0.92383554  0.25343712  0.06132601  1
  Se  Se146  1  0.91842561  0.24417187  0.55570549  1
  Se  Se147  1  0.92042083  0.57638194  0.06361118  1
  Se  Se148  1  0.92072670  0.58381835  0.54695026  1
  Se  Se149  1  0.92067893  0.91278294  0.05817360  1
  Se  Se150  1  0.91976321  0.92025502  0.55424326  1
  Se  Se151  1  0.08715971  0.24537925  0.44886459  1
  Se  Se152  1  0.07662492  0.25680414  0.93999616  1
  Se  Se153  1  0.07901271  0.58008835  0.45549080  1
  Se  Se154  1  0.05810795  0.59743111  0.94685542  1
  Se  Se155  1  0.07980335  0.91596829  0.44453867  1
  Se  Se156  1  0.09044424  0.91835862  0.94502968  1
  Se  Se157  1  0.41328852  0.24877628  0.44765408  1
  Se  Se158  1  0.41121789  0.26710890  0.93422648  1
  Se  Se159  1  0.41201067  0.58269075  0.44167902  1
  Se  Se160  1  0.39931918  0.59663538  0.93945783  1
  Se  Se161  1  0.41411402  0.91478157  0.44705962  1
  Se  Se162  1  0.40957052  0.92591403  0.93689066  1
  Se  Se163  1  0.74622450  0.25048804  0.44886813  1
  Se  Se164  1  0.75854078  0.25754557  0.93371062  1
  Se  Se165  1  0.75314081  0.58105912  0.45626756  1
  Se  Se166  1  0.75099221  0.59919124  0.93135289  1
  Se  Se167  1  0.74267137  0.92719032  0.44538818  1
  Se  Se168  1  0.76055901  0.91283913  0.95089879  1
  Se  Se169  1  0.24606715  0.08124511  0.44624607  1
  Se  Se170  1  0.25848165  0.08063146  0.93436308  1
  Se  Se171  1  0.24755944  0.41588221  0.44914041  1
  Se  Se172  1  0.24030334  0.42000991  0.94514563  1
  Se  Se173  1  0.25200917  0.74909788  0.45110021  1
  Se  Se174  1  0.24922797  0.75654026  0.95374705  1
  Se  Se175  1  0.57487461  0.08693173  0.45123609  1
  Se  Se176  1  0.60019157  0.07312208  0.94083554  1
  Se  Se177  1  0.59051727  0.41498869  0.43623303  1
  Se  Se178  1  0.59100176  0.40902439  0.93397988  1
  Se  Se179  1  0.58404145  0.74668633  0.45019526  1
  Se  Se180  1  0.58811382  0.74819207  0.93982276  1
  Se  Se181  1  0.91897558  0.08582640  0.44712686  1
  Se  Se182  1  0.92858397  0.07742274  0.94092345  1
  Se  Se183  1  0.92256675  0.40862841  0.44861821  1
  Se  Se184  1  0.91365485  0.40292689  0.92284993  1
  Se  Se185  1  0.89259706  0.77829838  0.44377254  1
  Se  Se186  1  0.91649799  0.76034117  0.94366075  1
  Se  Se187  1  0.25249865  0.24983227  0.30913362  1
  Se  Se188  1  0.24846491  0.24891385  0.79995073  1
  Se  Se189  1  0.23496280  0.58553570  0.32200983  1
  Se  Se190  1  0.23137608  0.58488512  0.81108412  1
  Se  Se191  1  0.24515337  0.91612301  0.30496230  1
  Se  Se192  1  0.24248058  0.91345240  0.79875276  1
  Se  Se193  1  0.57851125  0.24270064  0.30978210  1
  Se  Se194  1  0.57239684  0.23544123  0.80087571  1
  Se  Se195  1  0.57709403  0.57275349  0.30288772  1
  Se  Se196  1  0.57667870  0.58005967  0.80705801  1
  Se  Se197  1  0.57888318  0.91083632  0.31795836  1
  Se  Se198  1  0.58410794  0.90638355  0.80807227  1
  Se  Se199  1  0.92452961  0.25190500  0.30670103  1
  Se  Se200  1  0.91010166  0.24501578  0.79910555  1
  Se  Se201  1  0.92023157  0.58441404  0.32237909  1
  Se  Se202  1  0.90080592  0.55321447  0.80709536  1
  Se  Se203  1  0.91699555  0.92324522  0.30207337  1
  Se  Se204  1  0.92486115  0.91748878  0.80109160  1
  Se  Se205  1  0.08264972  0.08188664  0.30685356  1
  Se  Se206  1  0.08245015  0.08508789  0.79871987  1
  Se  Se207  1  0.08645335  0.41223650  0.30857980  1
  Se  Se208  1  0.08652131  0.41520158  0.80070500  1
  Se  Se209  1  0.07769943  0.74988328  0.30964760  1
  Se  Se210  1  0.08406591  0.74700136  0.80641863  1
  Se  Se211  1  0.41061265  0.08124398  0.30663711  1
  Se  Se212  1  0.41357046  0.07479290  0.79904455  1
  Se  Se213  1  0.41713280  0.41709595  0.30235719  1
  Se  Se214  1  0.40628187  0.42658546  0.79919382  1
  Se  Se215  1  0.41793868  0.75080144  0.31454116  1
  Se  Se216  1  0.41783201  0.76291526  0.80682747  1
  Se  Se217  1  0.75808592  0.09311817  0.31129787  1
  Se  Se218  1  0.76069009  0.08411997  0.80794505  1
  Se  Se219  1  0.76185374  0.42224427  0.31375443  1
  Se  Se220  1  0.72334770  0.39599802  0.79733183  1
  Se  Se221  1  0.76277259  0.74994228  0.31367520  1
  Se  Se222  1  0.76474724  0.75128346  0.80626437  1
  Se  Se223  1  0.24785412  0.08223129  0.19933379  1
  Se  Se224  1  0.25046390  0.08050974  0.69278530  1
  Se  Se225  1  0.24993351  0.42093433  0.20581761  1
  Se  Se226  1  0.24841705  0.41722529  0.69639143  1
  Se  Se227  1  0.23768322  0.75018069  0.19299099  1
  Se  Se228  1  0.23596744  0.74898411  0.68326218  1
  Se  Se229  1  0.57155202  0.08708577  0.19381125  1
  Se  Se230  1  0.57931972  0.08453138  0.68202266  1
  Se  Se231  1  0.58351549  0.41877085  0.18434833  1
  Se  Se232  1  0.57431477  0.42499135  0.69620942  1
  Se  Se233  1  0.57042755  0.76153065  0.19844297  1
  Se  Se234  1  0.57664944  0.75890819  0.69457534  1
  Se  Se235  1  0.92303653  0.08371028  0.20168960  1
  Se  Se236  1  0.91939132  0.07967862  0.69370596  1
  Se  Se237  1  0.92427917  0.41372931  0.20308664  1
  Se  Se238  1  0.91624857  0.40929541  0.69456191  1
  Se  Se239  1  0.91944016  0.74498718  0.19748761  1
  Se  Se240  1  0.92432124  0.74711993  0.69152977  1
  Se  Se241  1  0.09056821  0.24844944  0.20077256  1
  Se  Se242  1  0.08179636  0.24945701  0.69599132  1
  Se  Se243  1  0.08534402  0.58788619  0.20033191  1
  Se  Se244  1  0.07635020  0.58115059  0.69063479  1
  Se  Se245  1  0.07826178  0.91533347  0.20089976  1
  Se  Se246  1  0.08202998  0.91733846  0.69173631  1
  Se  Se247  1  0.41530091  0.25349035  0.19717753  1
  Se  Se248  1  0.41294394  0.24692378  0.69222071  1
  Se  Se249  1  0.42054621  0.57840082  0.18849371  1
  Se  Se250  1  0.41903710  0.57998382  0.69272591  1
  Se  Se251  1  0.40567054  0.91825964  0.20306144  1
  Se  Se252  1  0.41279259  0.90987737  0.69593659  1
  Se  Se253  1  0.76156686  0.24578610  0.19088184  1
  Se  Se254  1  0.74618096  0.24729822  0.69213856  1
  Se  Se255  1  0.76703958  0.57438711  0.19656530  1
  Se  Se256  1  0.76587490  0.58044235  0.68592954  1
  Se  Se257  1  0.75279750  0.90674530  0.19500327  1
  Se  Se258  1  0.76036222  0.90914338  0.68846512  1
