# generated using pymatgen
data_In86Cu29Se144
_symmetry_space_group_name_H-M   'P 1'
_cell_length_a   17.60072012
_cell_length_b   17.59820707
_cell_length_c   23.46538654
_cell_angle_alpha   90.00024226
_cell_angle_beta   89.99026521
_cell_angle_gamma   90.00051065
_symmetry_Int_Tables_number   1
_chemical_formula_structural   In86Cu29Se144
_chemical_formula_sum   'In86 Cu29 Se144'
_cell_volume   7268.19493844
_cell_formula_units_Z   1
loop_
 _symmetry_equiv_pos_site_id
 _symmetry_equiv_pos_as_xyz
  1  'x, y, z'
loop_
 _atom_site_type_symbol
 _atom_site_label
 _atom_site_symmetry_multiplicity
 _atom_site_fract_x
 _atom_site_fract_y
 _atom_site_fract_z
 _atom_site_occupancy
  In  In0  1  0.00773598  0.19838354  0.11828824  1
  In  In1  1  0.01442858  0.17343373  0.61888196  1
  In  In2  1  0.00562168  0.49420259  0.11855645  1
  In  In3  1  0.00073280  0.48375225  0.62620908  1
  In  In4  1  -0.00013363  0.82812291  0.11685711  1
  In  In5  1  -0.00045985  0.84643108  0.62464813  1
  In  In6  1  0.34737041  0.17660654  0.11826415  1
  In  In7  1  0.33394973  0.16797824  0.62768396  1
  In  In8  1  0.33169332  0.49218225  0.11716347  1
  In  In9  1  0.33704730  0.50009087  0.62793535  1
  In  In10  1  0.33673245  0.84113447  0.10766309  1
  In  In11  1  0.34701414  0.81985988  0.63456373  1
  In  In12  1  0.66543613  0.16804877  0.11778651  1
  In  In13  1  0.67582414  0.18379688  0.61421101  1
  In  In14  1  0.66051851  0.49094680  0.11518961  1
  In  In15  1  0.64696107  0.49356532  0.62372674  1
  In  In16  1  0.66592200  0.82920847  0.11883857  1
  In  In17  1  0.66514095  0.83432665  0.61908443  1
  In  In18  1  0.18151089  0.00441249  0.37578001  1
  In  In19  1  0.17331669  -0.01042596  0.87901965  1
  In  In20  1  0.16684452  0.33810794  0.37563254  1
  In  In21  1  0.17142939  0.33692637  0.87103731  1
  In  In22  1  0.15840064  0.65289886  0.37387564  1
  In  In23  1  0.17981766  0.64979991  0.88066570  1
  In  In24  1  0.49915393  0.00183183  0.38159311  1
  In  In25  1  0.48602140  0.00727585  0.88391292  1
  In  In26  1  0.48474534  0.34881937  0.39930489  1
  In  In27  1  0.49501487  0.33523617  0.87188536  1
  In  In28  1  0.49621164  0.66655386  0.38016315  1
  In  In29  1  0.49655049  0.66531485  0.87687993  1
  In  In30  1  0.82180475  0.01337224  0.38172449  1
  In  In31  1  0.83113555  -0.00008105  0.88162305  1
  In  In32  1  0.82439789  0.32365751  0.37574052  1
  In  In33  1  0.83064956  0.33319245  0.87614535  1
  In  In34  1  0.84315734  0.66874851  0.37757761  1
  In  In35  1  0.83123121  0.66449633  0.88171604  1
  In  In36  1  -0.01063619  0.18362950  0.37915530  1
  In  In37  1  -0.01159752  0.17338851  0.87810947  1
  In  In38  1  0.01690711  0.49541966  0.37723706  1
  In  In39  1  0.00600132  0.48332074  0.88581818  1
  In  In40  1  -0.00391477  0.82073169  0.37489860  1
  In  In41  1  -0.00123145  0.83484548  0.88258846  1
  In  In42  1  0.32184670  0.17816156  0.38824652  1
  In  In43  1  0.34077916  0.17634231  0.86717975  1
  In  In44  1  0.34140684  0.48572552  0.38011876  1
  In  In45  1  0.33621131  0.49405420  0.87160077  1
  In  In46  1  0.33794887  0.83818549  0.37560879  1
  In  In47  1  0.33862500  0.82943355  0.87577294  1
  In  In48  1  0.66087269  0.18454050  0.39305155  1
  In  In49  1  0.65251191  0.17611086  0.87744069  1
  In  In50  1  0.64820335  0.49006683  0.37804086  1
  In  In51  1  0.66714411  0.49376751  0.87762065  1
  In  In52  1  0.65767044  0.84304450  0.38125974  1
  In  In53  1  0.66536020  0.83013880  0.88074831  1
  In  In54  1  0.18248852  -0.00036477  0.11611916  1
  In  In55  1  0.17191322  0.01283524  0.62580856  1
  In  In56  1  0.16090375  0.34882342  0.14331715  1
  In  In57  1  0.16737605  0.33444780  0.62626590  1
  In  In58  1  0.16614434  0.65987112  0.11375961  1
  In  In59  1  0.18616397  0.66384071  0.62705553  1
  In  In60  1  0.49698265  -0.00066262  0.11335975  1
  In  In61  1  0.49722967  -0.00345212  0.62475239  1
  In  In62  1  0.49500401  0.33322256  0.12023444  1
  In  In63  1  0.50164258  0.33263361  0.62734585  1
  In  In64  1  0.49929773  0.66693653  0.11880359  1
  In  In65  1  0.48820888  0.65546811  0.61521171  1
  In  In66  1  0.83324460  0.00168095  0.11886386  1
  In  In67  1  0.83233229  0.00194847  0.62000847  1
  In  In68  1  0.84988929  0.34778578  0.10423042  1
  In  In69  1  0.84344674  0.32563532  0.63276503  1
  In  In70  1  0.83698135  0.66496601  0.11618717  1
  In  In71  1  0.82033408  0.67145947  0.62699422  1
  In  In72  1  0.66301242  0.00847881  0.26067987  1
  In  In73  1  0.16844859  0.17135659  -0.00480449  1
  In  In74  1  0.00046651  0.65778285  0.23522250  1
  In  In75  1  0.00486524  0.66103481  0.76274390  1
  In  In76  1  0.00903648  0.01083522  0.75014795  1
  In  In77  1  0.82901195  0.50384425  0.50218785  1
  In  In78  1  0.66280227  0.32963828  0.24908217  1
  In  In79  1  0.66289892  0.66265520  0.24615976  1
  In  In80  1  0.65569044  0.65791514  0.75306997  1
  In  In81  1  0.33631268  0.00651723  0.23943364  1
  In  In82  1  0.16760947  0.83423275  0.49732094  1
  In  In83  1  0.33223831  0.65866953  0.25045919  1
  In  In84  1  0.65970378  0.00630427  0.75684614  1
  In  In85  1  -0.00091140  0.00720320  0.24842035  1
  Cu  Cu86  1  -0.00087764  0.00010258  0.00099136  1
  Cu  Cu87  1  0.18143728  0.83308884  0.75635502  1
  Cu  Cu88  1  0.32903389  0.33196016  0.50933016  1
  Cu  Cu89  1  0.33703349  0.66058485  0.50211010  1
  Cu  Cu90  1  0.00203295  0.66605672  -0.00308845  1
  Cu  Cu91  1  0.49273188  0.82962017  0.75001265  1
  Cu  Cu92  1  0.66349179  0.32807485  -0.00417246  1
  Cu  Cu93  1  0.66603433  0.66354750  -0.00040611  1
  Cu  Cu94  1  0.17073418  0.17289045  0.74711497  1
  Cu  Cu95  1  0.82534459  0.84036906  0.25518340  1
  Cu  Cu96  1  0.16833914  0.82836004  0.23918375  1
  Cu  Cu97  1  0.82885388  0.48708665  0.75343369  1
  Cu  Cu98  1  0.33511218  0.33507550  -0.00592138  1
  Cu  Cu99  1  0.33501722  0.00013281  0.50381588  1
  Cu  Cu100  1  0.49460870  0.16816593  0.25074589  1
  Cu  Cu101  1  0.33433823  0.66364611  -0.00389693  1
  Cu  Cu102  1  -0.00081946  0.66840955  0.49957334  1
  Cu  Cu103  1  0.83570282  0.83364445  0.74886359  1
  Cu  Cu104  1  0.83812511  0.49339191  0.24335911  1
  Cu  Cu105  1  0.66679499  -0.00526089  -0.00371580  1
  Cu  Cu106  1  0.66397099  0.67500260  0.50114748  1
  Cu  Cu107  1  0.66506582  0.00168729  0.50206132  1
  Cu  Cu108  1  0.49933364  0.17104627  0.74906865  1
  Cu  Cu109  1  0.17032344  0.49795377  0.75193990  1
  Cu  Cu110  1  0.83870097  0.18038194  0.24676942  1
  Cu  Cu111  1  0.83472436  0.17738087  0.75008156  1
  Cu  Cu112  1  0.00483887  0.33385437  0.50105384  1
  Cu  Cu113  1  0.16814070  0.17696731  0.25652441  1
  Cu  Cu114  1  -0.00694016  0.00130534  0.49922502  1
  Se  Se115  1  0.07771824  0.08263524  0.06127872  1
  Se  Se116  1  0.08333805  0.07729194  0.55208100  1
  Se  Se117  1  0.08851637  0.40368403  0.05755760  1
  Se  Se118  1  0.08772316  0.41819881  0.55301321  1
  Se  Se119  1  0.08601261  0.74988983  0.04959790  1
  Se  Se120  1  0.08034022  0.74562182  0.56270809  1
  Se  Se121  1  0.40413635  0.07594779  0.05226538  1
  Se  Se122  1  0.41626547  0.08348526  0.55824031  1
  Se  Se123  1  0.42102231  0.41776891  0.04724918  1
  Se  Se124  1  0.41655280  0.41609656  0.55769368  1
  Se  Se125  1  0.41884850  0.74764651  0.04831991  1
  Se  Se126  1  0.41602944  0.75345408  0.55035259  1
  Se  Se127  1  0.74607721  0.08025245  0.05218405  1
  Se  Se128  1  0.75099863  0.08469841  0.55286628  1
  Se  Se129  1  0.74664569  0.41713140  0.04521155  1
  Se  Se130  1  0.75091439  0.41319934  0.56679513  1
  Se  Se131  1  0.75081237  0.74820208  0.05189261  1
  Se  Se132  1  0.75297810  0.75432308  0.55173963  1
  Se  Se133  1  0.25235002  0.26221297  0.05855346  1
  Se  Se134  1  0.24497333  0.24507349  0.55833873  1
  Se  Se135  1  0.25177702  0.57774263  0.04861438  1
  Se  Se136  1  0.25189821  0.57826147  0.55350693  1
  Se  Se137  1  0.24467101  0.91383849  0.04239588  1
  Se  Se138  1  0.25654822  0.91523750  0.56343688  1
  Se  Se139  1  0.57865116  0.24886353  0.05260587  1
  Se  Se140  1  0.57113436  0.24478325  0.55412760  1
  Se  Se141  1  0.58079289  0.58158268  0.05178606  1
  Se  Se142  1  0.58448515  0.58402819  0.54993577  1
  Se  Se143  1  0.58426407  0.91311260  0.05165062  1
  Se  Se144  1  0.58085243  0.91727401  0.55367584  1
  Se  Se145  1  0.90161986  0.23241607  0.04871670  1
  Se  Se146  1  0.92115203  0.25202954  0.55571705  1
  Se  Se147  1  0.92234080  0.58113781  0.05277924  1
  Se  Se148  1  0.92182868  0.59116318  0.56476434  1
  Se  Se149  1  0.91538995  0.91484137  0.05351891  1
  Se  Se150  1  0.91355697  0.91539590  0.55254499  1
  Se  Se151  1  0.08671559  0.25073411  0.44523799  1
  Se  Se152  1  0.07436717  0.26285621  0.94241663  1
  Se  Se153  1  0.08376385  0.58171411  0.45235172  1
  Se  Se154  1  0.08444197  0.57933264  0.94647683  1
  Se  Se155  1  0.07489049  0.92402718  0.43616139  1
  Se  Se156  1  0.08327331  0.91829202  0.94824680  1
  Se  Se157  1  0.41435682  0.24550304  0.45790088  1
  Se  Se158  1  0.41884968  0.24820588  0.94452369  1
  Se  Se159  1  0.41910032  0.57786120  0.44678527  1
  Se  Se160  1  0.41566742  0.57781248  0.94322449  1
  Se  Se161  1  0.41526503  0.91648006  0.44791284  1
  Se  Se162  1  0.42738494  0.90220436  0.94569181  1
  Se  Se163  1  0.76144157  0.24935371  0.45606077  1
  Se  Se164  1  0.74861749  0.24503374  0.94373220  1
  Se  Se165  1  0.73849608  0.59152317  0.43731630  1
  Se  Se166  1  0.74783620  0.57962319  0.94606591  1
  Se  Se167  1  0.74910084  0.91885946  0.44662848  1
  Se  Se168  1  0.75314770  0.91033649  0.94682664  1
  Se  Se169  1  0.24746419  0.08234434  0.45383145  1
  Se  Se170  1  0.26049013  0.08273071  0.93860207  1
  Se  Se171  1  0.25031071  0.41436835  0.44941859  1
  Se  Se172  1  0.24860499  0.41813991  0.94356921  1
  Se  Se173  1  0.25562318  0.73815763  0.43797606  1
  Se  Se174  1  0.25023934  0.74827861  0.94394764  1
  Se  Se175  1  0.58130065  0.08474150  0.44897973  1
  Se  Se176  1  0.58400729  0.08135595  0.94547772  1
  Se  Se177  1  0.60383746  0.39552612  0.45326924  1
  Se  Se178  1  0.57961243  0.41281515  0.94400251  1
  Se  Se179  1  0.57786448  0.75392377  0.44601513  1
  Se  Se180  1  0.58230398  0.74533676  0.94552322  1
  Se  Se181  1  0.91598747  0.08874320  0.44469916  1
  Se  Se182  1  0.91712873  0.08250073  0.94676449  1
  Se  Se183  1  0.92015226  0.41444263  0.44197644  1
  Se  Se184  1  0.90457572  0.41875726  0.94791164  1
  Se  Se185  1  0.91403380  0.75332164  0.45128103  1
  Se  Se186  1  0.91491609  0.74965566  0.94717264  1
  Se  Se187  1  0.25621160  0.25494415  0.30867914  1
  Se  Se188  1  0.25347109  0.25650432  0.80078590  1
  Se  Se189  1  0.24497598  0.56773020  0.30989114  1
  Se  Se190  1  0.25531562  0.58210263  0.80159754  1
  Se  Se191  1  0.24493513  0.90918225  0.30038552  1
  Se  Se192  1  0.26065769  0.92083035  0.80692693  1
  Se  Se193  1  0.57433171  0.24540195  0.31314104  1
  Se  Se194  1  0.58258941  0.25469424  0.80138857  1
  Se  Se195  1  0.57070453  0.57592785  0.30594682  1
  Se  Se196  1  0.56769966  0.56529616  0.80789167  1
  Se  Se197  1  0.56785465  0.91019639  0.30528574  1
  Se  Se198  1  0.57443841  0.90773363  0.81079186  1
  Se  Se199  1  0.91787438  0.26330520  0.30243607  1
  Se  Se200  1  0.91945626  0.25715439  0.80384243  1
  Se  Se201  1  0.91343496  0.57591196  0.30568976  1
  Se  Se202  1  0.90714058  0.57055890  0.81262822  1
  Se  Se203  1  0.91040587  0.91708056  0.31224547  1
  Se  Se204  1  0.91548079  0.91630466  0.80606267  1
  Se  Se205  1  0.09020078  0.09066812  0.31280884  1
  Se  Se206  1  0.09545391  0.09620714  0.81552709  1
  Se  Se207  1  0.08343963  0.41445415  0.30316025  1
  Se  Se208  1  0.08256789  0.41856631  0.80428091  1
  Se  Se209  1  0.08904071  0.75157359  0.30093637  1
  Se  Se210  1  0.09502104  0.75762094  0.81509414  1
  Se  Se211  1  0.41438737  0.09028638  0.31260513  1
  Se  Se212  1  0.42048557  0.08339023  0.80241939  1
  Se  Se213  1  0.42906786  0.41212464  0.31082045  1
  Se  Se214  1  0.39963778  0.39865975  0.80166214  1
  Se  Se215  1  0.42139608  0.75595936  0.30542259  1
  Se  Se216  1  0.41525407  0.74289054  0.80407502  1
  Se  Se217  1  0.75378954  0.10853131  0.30923871  1
  Se  Se218  1  0.75867000  0.09355563  0.81013891  1
  Se  Se219  1  0.75324578  0.42619154  0.30797505  1
  Se  Se220  1  0.74189797  0.40879398  0.80560611  1
  Se  Se221  1  0.75048548  0.75345450  0.31170722  1
  Se  Se222  1  0.75443535  0.75237047  0.80544651  1
  Se  Se223  1  0.24109093  0.10082355  0.18860241  1
  Se  Se224  1  0.25329292  0.08343192  0.70001625  1
  Se  Se225  1  0.27559191  0.40496873  0.19573661  1
  Se  Se226  1  0.25081326  0.41618760  0.69475120  1
  Se  Se227  1  0.25099180  0.75072173  0.18223130  1
  Se  Se228  1  0.25616345  0.74470972  0.70205808  1
  Se  Se229  1  0.57496973  0.08891195  0.19147903  1
  Se  Se230  1  0.58236783  0.09328334  0.68792947  1
  Se  Se231  1  0.57550660  0.42384598  0.19233442  1
  Se  Se232  1  0.57829605  0.41712111  0.69942737  1
  Se  Se233  1  0.57511521  0.75877291  0.19221536  1
  Se  Se234  1  0.57684124  0.75331080  0.68881830  1
  Se  Se235  1  0.91342090  0.09652761  0.18625153  1
  Se  Se236  1  0.91227971  0.09274343  0.69029703  1
  Se  Se237  1  0.91976677  0.41348389  0.18829400  1
  Se  Se238  1  0.92131928  0.41309189  0.70180452  1
  Se  Se239  1  0.90444113  0.76119718  0.19302647  1
  Se  Se240  1  0.91877129  0.75205759  0.69392686  1
  Se  Se241  1  0.07917106  0.25474361  0.20452225  1
  Se  Se242  1  0.08194688  0.25274565  0.69669965  1
  Se  Se243  1  0.10191583  0.56840866  0.19081937  1
  Se  Se244  1  0.08835013  0.57896730  0.69163713  1
  Se  Se245  1  0.08827829  0.91553713  0.18626008  1
  Se  Se246  1  0.09840213  0.90993337  0.69601923  1
  Se  Se247  1  0.41770324  0.25418657  0.19598345  1
  Se  Se248  1  0.41358674  0.25284619  0.69664286  1
  Se  Se249  1  0.42353891  0.57599328  0.18820754  1
  Se  Se250  1  0.41243412  0.59252942  0.69435929  1
  Se  Se251  1  0.42326084  0.90811354  0.18765885  1
  Se  Se252  1  0.41551481  0.92027319  0.69819993  1
  Se  Se253  1  0.75640012  0.25315005  0.18316989  1
  Se  Se254  1  0.74518015  0.25343660  0.69709598  1
  Se  Se255  1  0.75660743  0.57429654  0.18677589  1
  Se  Se256  1  0.75338397  0.57155896  0.69328660  1
  Se  Se257  1  0.74863499  0.91911533  0.19388616  1
  Se  Se258  1  0.75177369  0.91488011  0.69421837  1
