# generated using pymatgen
data_In86Cu29Se144
_symmetry_space_group_name_H-M   'P 1'
_cell_length_a   17.58810271
_cell_length_b   17.58693135
_cell_length_c   23.43904955
_cell_angle_alpha   89.98273365
_cell_angle_beta   89.99263098
_cell_angle_gamma   89.99515650
_symmetry_Int_Tables_number   1
_chemical_formula_structural   In86Cu29Se144
_chemical_formula_sum   'In86 Cu29 Se144'
_cell_volume   7250.18408553
_cell_formula_units_Z   1
loop_
 _symmetry_equiv_pos_site_id
 _symmetry_equiv_pos_as_xyz
  1  'x, y, z'
loop_
 _atom_site_type_symbol
 _atom_site_label
 _atom_site_symmetry_multiplicity
 _atom_site_fract_x
 _atom_site_fract_y
 _atom_site_fract_z
 _atom_site_occupancy
  In  In0  1  -0.02188537  0.15959181  0.12367694  1
  In  In1  1  -0.00774671  0.17048934  0.63408608  1
  In  In2  1  0.00246415  0.50821781  0.10314669  1
  In  In3  1  0.00308087  0.49183492  0.63051413  1
  In  In4  1  0.00910636  0.84236018  0.11797078  1
  In  In5  1  0.01562102  0.82748652  0.62853747  1
  In  In6  1  0.35234931  0.16335912  0.11494120  1
  In  In7  1  0.33607581  0.14642661  0.62459524  1
  In  In8  1  0.33613883  0.49696211  0.10995596  1
  In  In9  1  0.35167953  0.52139668  0.61150821  1
  In  In10  1  0.31832803  0.84421981  0.11930237  1
  In  In11  1  0.33465870  0.83473197  0.62750275  1
  In  In12  1  0.67536500  0.17229183  0.13212298  1
  In  In13  1  0.66798480  0.16826300  0.62024300  1
  In  In14  1  0.66257412  0.49262380  0.11676692  1
  In  In15  1  0.65195032  0.50823198  0.63935459  1
  In  In16  1  0.67659913  0.83040113  0.12671029  1
  In  In17  1  0.65547075  0.82801687  0.62338673  1
  In  In18  1  0.16320312  -0.00082093  0.37725532  1
  In  In19  1  0.15921011  -0.00614699  0.86761644  1
  In  In20  1  0.17434937  0.33249596  0.37809032  1
  In  In21  1  0.16697042  0.35417640  0.87165566  1
  In  In22  1  0.17697079  0.66529001  0.38947331  1
  In  In23  1  0.17118359  0.65732104  0.88066638  1
  In  In24  1  0.50794069  -0.00630768  0.38439881  1
  In  In25  1  0.50130081  0.01274824  0.87581112  1
  In  In26  1  0.51097651  0.32581285  0.38471592  1
  In  In27  1  0.50417216  0.31702475  0.88012138  1
  In  In28  1  0.49848660  0.67284920  0.40237479  1
  In  In29  1  0.48577513  0.65922655  0.86238138  1
  In  In30  1  0.84373481  0.01372118  0.36345333  1
  In  In31  1  0.83904316  -0.00731415  0.88473263  1
  In  In32  1  0.81503353  0.33583473  0.36650140  1
  In  In33  1  0.83135272  0.33006886  0.87470311  1
  In  In34  1  0.83297893  0.65349234  0.37233567  1
  In  In35  1  0.82775890  0.67329255  0.88149944  1
  In  In36  1  0.00422599  0.15109478  0.37231348  1
  In  In37  1  -0.01004723  0.15618688  0.87034795  1
  In  In38  1  0.00035290  0.50523422  0.37283999  1
  In  In39  1  0.00987297  0.49448096  0.87840474  1
  In  In40  1  0.00014061  0.84639503  0.37998757  1
  In  In41  1  -0.01125483  0.83766646  0.88386535  1
  In  In42  1  0.33746922  0.16957482  0.38190510  1
  In  In43  1  0.34810861  0.16636599  0.87352625  1
  In  In44  1  0.33753364  0.50347527  0.39117579  1
  In  In45  1  0.32387500  0.50362767  0.88147480  1
  In  In46  1  0.33715417  0.83423316  0.39894277  1
  In  In47  1  0.32585287  0.82752541  0.86692659  1
  In  In48  1  0.67224908  0.16942349  0.37348443  1
  In  In49  1  0.66048491  0.17296932  0.88095340  1
  In  In50  1  0.66578314  0.49541959  0.37424517  1
  In  In51  1  0.66332326  0.49505486  0.87224014  1
  In  In52  1  0.65375740  0.84225092  0.37637134  1
  In  In53  1  0.67893469  0.83366153  0.87733153  1
  In  In54  1  0.16853615  -0.01818116  0.12017983  1
  In  In55  1  0.17716057  -0.01138214  0.63948159  1
  In  In56  1  0.15915872  0.33772762  0.12007273  1
  In  In57  1  0.15712100  0.33762300  0.63091010  1
  In  In58  1  0.16634285  0.67213656  0.11119993  1
  In  In59  1  0.19115011  0.68767600  0.60643207  1
  In  In60  1  0.50166662  0.02396138  0.12184520  1
  In  In61  1  0.47885838  -0.01888812  0.60252812  1
  In  In62  1  0.51126357  0.34611095  0.11920866  1
  In  In63  1  0.50870743  0.34195601  0.62270273  1
  In  In64  1  0.50987441  0.65815086  0.12288476  1
  In  In65  1  0.50105487  0.66657579  0.62967034  1
  In  In66  1  0.83212715  0.00399637  0.13047342  1
  In  In67  1  0.82649330  0.01517046  0.62602556  1
  In  In68  1  0.81709963  0.31963648  0.11090319  1
  In  In69  1  0.83360467  0.32580317  0.63346337  1
  In  In70  1  0.84751897  0.67723298  0.09942183  1
  In  In71  1  0.83049899  0.65426482  0.63142952  1
  In  In72  1  0.17206850  0.17165124  -0.00484908  1
  In  In73  1  0.00435001  0.66313609  0.75670349  1
  In  In74  1  -0.01422972  0.32909736  0.23996568  1
  In  In75  1  0.82741548  0.49531183  0.49591449  1
  In  In76  1  0.67014377  0.66230257  0.25096662  1
  In  In77  1  0.33137470  0.33494072  0.75125157  1
  In  In78  1  0.33687578  0.66741268  0.26171473  1
  In  In79  1  0.33515712  0.00048481  0.25034548  1
  In  In80  1  0.33756909  0.33071017  0.25813623  1
  In  In81  1  0.00632634  0.67552462  0.24084615  1
  In  In82  1  0.49822840  0.83113654  -0.00130864  1
  In  In83  1  0.16936842  0.16298791  0.50237978  1
  In  In84  1  0.83427466  0.83589643  0.50538636  1
  In  In85  1  0.66222447  0.00129008  0.74559526  1
  Cu  Cu86  1  0.66180929  0.65810040  -0.00390741  1
  Cu  Cu87  1  0.00076006  0.33549397  -0.00372465  1
  Cu  Cu88  1  0.83037817  0.16416652  0.75300561  1
  Cu  Cu89  1  0.00472044  0.00280593  0.50183391  1
  Cu  Cu90  1  0.66830231  0.00467583  0.00288543  1
  Cu  Cu91  1  -0.00375421  0.00647869  0.00067316  1
  Cu  Cu92  1  0.00568244  0.66274671  0.49959511  1
  Cu  Cu93  1  0.82863206  0.49247167  0.75272887  1
  Cu  Cu94  1  0.16491853  0.49415877  0.24731213  1
  Cu  Cu95  1  0.50281415  0.16355950  0.74779871  1
  Cu  Cu96  1  0.49905906  0.49699705  0.74956129  1
  Cu  Cu97  1  0.66715581  0.33725115  0.50121792  1
  Cu  Cu98  1  0.66841507  0.33002995  -0.00159921  1
  Cu  Cu99  1  0.17195758  0.51008028  0.74877479  1
  Cu  Cu100  1  0.67263058  0.00896376  0.49674661  1
  Cu  Cu101  1  0.49643127  0.84187090  0.25560239  1
  Cu  Cu102  1  0.16038624  0.15218962  0.24549505  1
  Cu  Cu103  1  0.33511317  0.66645340  -0.00705624  1
  Cu  Cu104  1  0.49748002  0.83514964  0.74440591  1
  Cu  Cu105  1  -0.00850951  0.32680777  0.50796708  1
  Cu  Cu106  1  0.82753154  0.49956728  0.23261043  1
  Cu  Cu107  1  0.51161988  0.17232194  0.25256957  1
  Cu  Cu108  1  0.33232446  0.33546081  0.50327426  1
  Cu  Cu109  1  0.83352749  0.83338718  0.75869095  1
  Cu  Cu110  1  0.16546594  0.83404743  0.25083961  1
  Cu  Cu111  1  0.83202095  0.84179205  0.24975343  1
  Cu  Cu112  1  0.16798602  0.83447947  0.74866131  1
  Cu  Cu113  1  0.50303782  0.50049628  0.25030091  1
  Cu  Cu114  1  0.15981211  0.16779609  0.74954496  1
  Se  Se115  1  0.08224047  0.08358791  0.06001598  1
  Se  Se116  1  0.08129812  0.07986607  0.56767035  1
  Se  Se117  1  0.09006467  0.41794892  0.04422318  1
  Se  Se118  1  0.07750169  0.41191860  0.55495320  1
  Se  Se119  1  0.07104802  0.74530370  0.05044838  1
  Se  Se120  1  0.08376154  0.75493200  0.54783735  1
  Se  Se121  1  0.40303311  0.06166039  0.04702492  1
  Se  Se122  1  0.42717272  0.09785554  0.54784565  1
  Se  Se123  1  0.42071789  0.41258916  0.04899229  1
  Se  Se124  1  0.42087575  0.41712582  0.55303325  1
  Se  Se125  1  0.40851286  0.74141976  0.06322973  1
  Se  Se126  1  0.42258165  0.75374132  0.56244618  1
  Se  Se127  1  0.75067948  0.08607939  0.05931083  1
  Se  Se128  1  0.75586699  0.09197395  0.54911939  1
  Se  Se129  1  0.75178722  0.42065942  0.04657363  1
  Se  Se130  1  0.74432418  0.41474607  0.56604977  1
  Se  Se131  1  0.73923041  0.74986491  0.04745052  1
  Se  Se132  1  0.74809939  0.73851635  0.56048878  1
  Se  Se133  1  0.25967093  0.25810310  0.06043290  1
  Se  Se134  1  0.25467309  0.25529321  0.56576139  1
  Se  Se135  1  0.25068925  0.58438855  0.04848462  1
  Se  Se136  1  0.22607385  0.55916121  0.56205054  1
  Se  Se137  1  0.24129404  0.91083434  0.04192939  1
  Se  Se138  1  0.24788489  0.91881234  0.56125868  1
  Se  Se139  1  0.58961329  0.24910862  0.05951450  1
  Se  Se140  1  0.58356913  0.25261887  0.55354632  1
  Se  Se141  1  0.57739479  0.57540925  0.04813998  1
  Se  Se142  1  0.58117117  0.57887068  0.56146144  1
  Se  Se143  1  0.58683841  0.92079265  0.06154853  1
  Se  Se144  1  0.59520492  0.92119386  0.55084092  1
  Se  Se145  1  0.91891003  0.25017408  0.04883955  1
  Se  Se146  1  0.90963151  0.24393524  0.55910679  1
  Se  Se147  1  0.91269765  0.57943319  0.03585198  1
  Se  Se148  1  0.92272155  0.58440967  0.55717039  1
  Se  Se149  1  0.91480614  0.92393645  0.05803408  1
  Se  Se150  1  0.92577191  0.92425674  0.56577555  1
  Se  Se151  1  0.07496553  0.25342108  0.44244524  1
  Se  Se152  1  0.07794386  0.25503303  0.93314767  1
  Se  Se153  1  0.08393209  0.57582856  0.44536393  1
  Se  Se154  1  0.07821549  0.58716435  0.94646026  1
  Se  Se155  1  0.08799367  0.91714672  0.45114600  1
  Se  Se156  1  0.07842419  0.92410344  0.94531596  1
  Se  Se157  1  0.41604101  0.25264930  0.45013852  1
  Se  Se158  1  0.41453501  0.24601833  0.94979672  1
  Se  Se159  1  0.40557603  0.59248703  0.46036726  1
  Se  Se160  1  0.42054849  0.58287589  0.94356879  1
  Se  Se161  1  0.42031447  0.92576009  0.45589056  1
  Se  Se162  1  0.41284738  0.91749526  0.93497305  1
  Se  Se163  1  0.75066854  0.25640018  0.44536289  1
  Se  Se164  1  0.75376242  0.24585732  0.94745584  1
  Se  Se165  1  0.73670122  0.59436690  0.44470481  1
  Se  Se166  1  0.74649280  0.57824805  0.94182855  1
  Se  Se167  1  0.75445838  0.92531164  0.43823297  1
  Se  Se168  1  0.74893273  0.91592970  0.95234750  1
  Se  Se169  1  0.26085557  0.07158426  0.44524758  1
  Se  Se170  1  0.25292117  0.07771061  0.93390592  1
  Se  Se171  1  0.24629706  0.41551635  0.44989005  1
  Se  Se172  1  0.25238590  0.41114538  0.94845974  1
  Se  Se173  1  0.25487944  0.74453733  0.45927394  1
  Se  Se174  1  0.25073110  0.75181613  0.94392567  1
  Se  Se175  1  0.58665888  0.09091033  0.44410788  1
  Se  Se176  1  0.58220005  0.08542927  0.95016851  1
  Se  Se177  1  0.58424048  0.42288295  0.44875735  1
  Se  Se178  1  0.58403702  0.41022545  0.94303017  1
  Se  Se179  1  0.59537577  0.75749005  0.45273125  1
  Se  Se180  1  0.58372749  0.74150782  0.93531904  1
  Se  Se181  1  0.91997441  0.08061174  0.44616064  1
  Se  Se182  1  0.91089683  0.08975813  0.95002043  1
  Se  Se183  1  0.92163056  0.40579015  0.43729031  1
  Se  Se184  1  0.91606497  0.41548784  0.94144227  1
  Se  Se185  1  0.92062236  0.74031902  0.44013764  1
  Se  Se186  1  0.91259166  0.74985019  0.95050178  1
  Se  Se187  1  0.23881094  0.23237640  0.30623785  1
  Se  Se188  1  0.24090709  0.24487029  0.81216524  1
  Se  Se189  1  0.24221900  0.57024680  0.31155765  1
  Se  Se190  1  0.25541579  0.58785462  0.80519893  1
  Se  Se191  1  0.25245896  0.90526343  0.31274541  1
  Se  Se192  1  0.25197079  0.92054114  0.79947998  1
  Se  Se193  1  0.58980181  0.25977210  0.30601573  1
  Se  Se194  1  0.58416169  0.24586908  0.80265493  1
  Se  Se195  1  0.57017681  0.58829703  0.31463123  1
  Se  Se196  1  0.58327608  0.58157374  0.80227697  1
  Se  Se197  1  0.58319298  0.92652806  0.30244267  1
  Se  Se198  1  0.57754401  0.90956555  0.81031695  1
  Se  Se199  1  0.91140158  0.24293245  0.31127485  1
  Se  Se200  1  0.91530771  0.24915143  0.80376756  1
  Se  Se201  1  0.91195003  0.57502548  0.29396327  1
  Se  Se202  1  0.90848981  0.57528248  0.81244890  1
  Se  Se203  1  0.92288741  0.91607534  0.30286292  1
  Se  Se204  1  0.91654114  0.91921419  0.80750952  1
  Se  Se205  1  0.08196073  0.06900771  0.30063987  1
  Se  Se206  1  0.07766843  0.08090098  0.80100767  1
  Se  Se207  1  0.08460443  0.41293202  0.30513267  1
  Se  Se208  1  0.08451998  0.42508766  0.79671441  1
  Se  Se209  1  0.09222687  0.75130386  0.31449611  1
  Se  Se210  1  0.08909770  0.75903336  0.81455927  1
  Se  Se211  1  0.42496787  0.09247909  0.30939128  1
  Se  Se212  1  0.41815100  0.08090188  0.79924626  1
  Se  Se213  1  0.42392325  0.42597929  0.31562617  1
  Se  Se214  1  0.42156306  0.41932824  0.81408613  1
  Se  Se215  1  0.42498261  0.76070218  0.31923371  1
  Se  Se216  1  0.41187368  0.75146262  0.79623757  1
  Se  Se217  1  0.74149237  0.07859513  0.30332699  1
  Se  Se218  1  0.75079856  0.08231804  0.81333318  1
  Se  Se219  1  0.74682003  0.42756532  0.29620201  1
  Se  Se220  1  0.74500033  0.40818712  0.80438578  1
  Se  Se221  1  0.75790528  0.75742436  0.31144775  1
  Se  Se222  1  0.74807047  0.74665318  0.80417570  1
  Se  Se223  1  0.24895706  0.08606615  0.18325949  1
  Se  Se224  1  0.25069145  0.08660504  0.70269781  1
  Se  Se225  1  0.25185512  0.41882125  0.19081282  1
  Se  Se226  1  0.25199893  0.42878586  0.68761287  1
  Se  Se227  1  0.24577236  0.75051161  0.19372758  1
  Se  Se228  1  0.24995372  0.74892392  0.69603431  1
  Se  Se229  1  0.58767417  0.08508997  0.19753515  1
  Se  Se230  1  0.57137004  0.08098941  0.68098389  1
  Se  Se231  1  0.58734855  0.42077621  0.19648781  1
  Se  Se232  1  0.58427556  0.40782974  0.70414169  1
  Se  Se233  1  0.57369292  0.75638935  0.19579917  1
  Se  Se234  1  0.58611205  0.74907488  0.70040059  1
  Se  Se235  1  0.91372065  0.08344652  0.20209897  1
  Se  Se236  1  0.91361743  0.07927638  0.70097735  1
  Se  Se237  1  0.91312763  0.42525505  0.17401774  1
  Se  Se238  1  0.91596340  0.41475054  0.69830222  1
  Se  Se239  1  0.90659322  0.75926355  0.18679017  1
  Se  Se240  1  0.91190543  0.75387393  0.69438198  1
  Se  Se241  1  0.08739468  0.23948016  0.18714394  1
  Se  Se242  1  0.07755527  0.25472916  0.70031245  1
  Se  Se243  1  0.09147577  0.57545849  0.18547129  1
  Se  Se244  1  0.09256842  0.58915267  0.68578029  1
  Se  Se245  1  0.08383074  0.91650992  0.19683567  1
  Se  Se246  1  0.07689459  0.91743371  0.70264578  1
  Se  Se247  1  0.42593132  0.24738254  0.19262467  1
  Se  Se248  1  0.41995327  0.24566478  0.68886867  1
  Se  Se249  1  0.41795845  0.57751679  0.19276462  1
  Se  Se250  1  0.41518729  0.58339198  0.69913092  1
  Se  Se251  1  0.42174548  0.91162604  0.18584671  1
  Se  Se252  1  0.41803165  0.92430234  0.69357203  1
  Se  Se253  1  0.75720333  0.25892504  0.19848714  1
  Se  Se254  1  0.74451027  0.24305070  0.69799769  1
  Se  Se255  1  0.75692248  0.59153211  0.17652491  1
  Se  Se256  1  0.74801017  0.58250886  0.70417876  1
  Se  Se257  1  0.74391206  0.91952095  0.19772297  1
  Se  Se258  1  0.75645579  0.90769323  0.68997107  1
