# generated using pymatgen
data_In86Cu29Se144
_symmetry_space_group_name_H-M   'P 1'
_cell_length_a   17.57668680
_cell_length_b   17.57782833
_cell_length_c   23.43492528
_cell_angle_alpha   89.95569477
_cell_angle_beta   90.03103077
_cell_angle_gamma   90.01641369
_symmetry_Int_Tables_number   1
_chemical_formula_structural   In86Cu29Se144
_chemical_formula_sum   'In86 Cu29 Se144'
_cell_volume   7240.45059326
_cell_formula_units_Z   1
loop_
 _symmetry_equiv_pos_site_id
 _symmetry_equiv_pos_as_xyz
  1  'x, y, z'
loop_
 _atom_site_type_symbol
 _atom_site_label
 _atom_site_symmetry_multiplicity
 _atom_site_fract_x
 _atom_site_fract_y
 _atom_site_fract_z
 _atom_site_occupancy
  In  In0  1  0.00480645  0.15718518  0.11973144  1
  In  In1  1  -0.00586076  0.17743399  0.64542376  1
  In  In2  1  0.00186520  0.50304276  0.12224292  1
  In  In3  1  -0.00206341  0.49586165  0.62215804  1
  In  In4  1  -0.00521997  0.82347627  0.11451532  1
  In  In5  1  0.02256454  0.83604869  0.63315663  1
  In  In6  1  0.32298642  0.16900447  0.11863106  1
  In  In7  1  0.32286763  0.15227926  0.63381545  1
  In  In8  1  0.34280303  0.50476762  0.12026486  1
  In  In9  1  0.32868859  0.51873530  0.62609097  1
  In  In10  1  0.32558524  0.83660773  0.12955517  1
  In  In11  1  0.32858148  0.83300616  0.62109518  1
  In  In12  1  0.67812807  0.17049581  0.12682543  1
  In  In13  1  0.68353339  0.15080600  0.64552294  1
  In  In14  1  0.66799985  0.50259581  0.12478152  1
  In  In15  1  0.67144092  0.48603671  0.62540497  1
  In  In16  1  0.66304412  0.81975725  0.12426891  1
  In  In17  1  0.66502440  0.85040652  0.61975225  1
  In  In18  1  0.17067132  -0.01942589  0.38056000  1
  In  In19  1  0.16308447  0.00004889  0.87070379  1
  In  In20  1  0.18027461  0.33933818  0.37730988  1
  In  In21  1  0.15685367  0.34296236  0.87915112  1
  In  In22  1  0.16540628  0.66793784  0.36886296  1
  In  In23  1  0.16971344  0.66781036  0.87941317  1
  In  In24  1  0.47860617  0.00502265  0.37561288  1
  In  In25  1  0.50531883  0.00476442  0.85896418  1
  In  In26  1  0.52128407  0.32852811  0.37026095  1
  In  In27  1  0.51046553  0.33379613  0.87571144  1
  In  In28  1  0.50032691  0.67209623  0.37605431  1
  In  In29  1  0.48113729  0.67351812  0.87673399  1
  In  In30  1  0.84775806  0.00088798  0.38419063  1
  In  In31  1  0.83245906  0.00411044  0.86720382  1
  In  In32  1  0.82387772  0.34379433  0.38299403  1
  In  In33  1  0.84276753  0.33758241  0.86566825  1
  In  In34  1  0.82228154  0.64743618  0.35780923  1
  In  In35  1  0.83920346  0.66303625  0.88854117  1
  In  In36  1  -0.00473221  0.15314434  0.38399225  1
  In  In37  1  0.01401428  0.18074759  0.84707161  1
  In  In38  1  -0.00982012  0.51012464  0.37822606  1
  In  In39  1  0.00271722  0.49891956  0.88140745  1
  In  In40  1  0.01884869  0.82446752  0.38129748  1
  In  In41  1  0.00307341  0.83132725  0.88031913  1
  In  In42  1  0.34884013  0.15732141  0.37212942  1
  In  In43  1  0.33032834  0.14367775  0.86350539  1
  In  In44  1  0.31879210  0.50553176  0.38055102  1
  In  In45  1  0.32128698  0.50991035  0.88311176  1
  In  In46  1  0.32656922  0.83072952  0.37422402  1
  In  In47  1  0.32380177  0.83388748  0.86346445  1
  In  In48  1  0.66522036  0.18568026  0.37433991  1
  In  In49  1  0.67832679  0.17769396  0.84829127  1
  In  In50  1  0.67235071  0.50388052  0.37100608  1
  In  In51  1  0.67426271  0.49386059  0.88450041  1
  In  In52  1  0.66748709  0.81811150  0.37773938  1
  In  In53  1  0.67118846  0.84556700  0.87656184  1
  In  In54  1  0.17321672  -0.00172894  0.11360917  1
  In  In55  1  0.17905158  -0.01196141  0.64998667  1
  In  In56  1  0.16632888  0.33266545  0.11376946  1
  In  In57  1  0.15353543  0.32772619  0.63125212  1
  In  In58  1  0.16832539  0.66699261  0.12527130  1
  In  In59  1  0.18451356  0.68472925  0.60612506  1
  In  In60  1  0.49475827  -0.01593403  0.12343199  1
  In  In61  1  0.50687958  -0.00342724  0.62961572  1
  In  In62  1  0.49858037  0.34790144  0.12365146  1
  In  In63  1  0.51912384  0.33465832  0.63108683  1
  In  In64  1  0.51125248  0.65618050  0.13531183  1
  In  In65  1  0.47641936  0.67156211  0.62002575  1
  In  In66  1  0.84635290  -0.00155741  0.12156884  1
  In  In67  1  0.83246164  0.01057259  0.64183941  1
  In  In68  1  0.81740677  0.33887701  0.13103927  1
  In  In69  1  0.83526024  0.32993418  0.62807310  1
  In  In70  1  0.83140311  0.66306923  0.12566831  1
  In  In71  1  0.84913221  0.66029138  0.61895252  1
  In  In72  1  0.00312317  -0.00674326  0.25213768  1
  In  In73  1  0.49699538  0.50712240  0.49616000  1
  In  In74  1  0.66028241  -0.00029433  0.24987623  1
  In  In75  1  0.83784738  0.82895961  0.50079931  1
  In  In76  1  -0.00239365  0.33705015  0.24540768  1
  In  In77  1  0.65945988  0.66480271  0.74982801  1
  In  In78  1  0.01143394  0.66775487  0.75347366  1
  In  In79  1  0.49890583  0.16602887  -0.01405505  1
  In  In80  1  0.49975729  0.82912457  -0.00096385  1
  In  In81  1  0.50193005  0.16624857  0.49803036  1
  In  In82  1  0.33447195  0.33108487  0.75192730  1
  In  In83  1  0.15821629  0.16526748  0.51186039  1
  In  In84  1  0.84437136  0.17218326  -0.01522312  1
  In  In85  1  0.34317949  0.33715743  0.24928697  1
  Cu  Cu86  1  0.66938865  0.66273077  0.00689090  1
  Cu  Cu87  1  0.50407944  0.50285989  0.24964057  1
  Cu  Cu88  1  0.82885122  0.83113162  0.75152949  1
  Cu  Cu89  1  0.67620374  0.00437608  -0.01024336  1
  Cu  Cu90  1  0.32553331  0.33325442  -0.00280539  1
  Cu  Cu91  1  0.83413614  0.82546115  0.24698178  1
  Cu  Cu92  1  0.49527463  0.50521805  0.74905355  1
  Cu  Cu93  1  0.17448298  0.15713975  0.24574823  1
  Cu  Cu94  1  0.82831910  0.17337472  0.25737122  1
  Cu  Cu95  1  0.16548711  0.50446751  0.24800426  1
  Cu  Cu96  1  0.49140879  0.83198315  0.25282545  1
  Cu  Cu97  1  0.00352867  0.65931822  0.49590322  1
  Cu  Cu98  1  -0.00438589  0.33019864  -0.00595140  1
  Cu  Cu99  1  0.49454953  0.83313985  0.74631380  1
  Cu  Cu100  1  0.16889998  0.82991139  0.25012944  1
  Cu  Cu101  1  0.83536698  0.49331048  0.74931226  1
  Cu  Cu102  1  0.00859677  -0.00144454  -0.00494463  1
  Cu  Cu103  1  0.66416553  0.33713418  0.00067324  1
  Cu  Cu104  1  0.33089103  0.66576476  0.00250237  1
  Cu  Cu105  1  -0.00073521  0.33126506  0.50639274  1
  Cu  Cu106  1  0.33080263  -0.00406605  -0.00802539  1
  Cu  Cu107  1  0.32428002  -0.00594270  0.50173375  1
  Cu  Cu108  1  0.16078443  0.50359194  0.75391071  1
  Cu  Cu109  1  0.66645977  0.00489404  0.50871181  1
  Cu  Cu110  1  0.00619769  0.66745824  0.00448447  1
  Cu  Cu111  1  0.68246547  0.32875849  0.50498152  1
  Cu  Cu112  1  0.33749168  0.34104811  0.50460147  1
  Cu  Cu113  1  -0.00442066  0.00503493  0.51499893  1
  Cu  Cu114  1  0.66525544  0.66112290  0.49608239  1
  Se  Se115  1  0.08867186  0.08522846  0.04828203  1
  Se  Se116  1  0.07821321  0.07741844  0.57762407  1
  Se  Se117  1  0.07590257  0.41352909  0.05175952  1
  Se  Se118  1  0.08683975  0.41295340  0.55630708  1
  Se  Se119  1  0.09382361  0.75286083  0.05182818  1
  Se  Se120  1  0.07387847  0.75147548  0.55119193  1
  Se  Se121  1  0.41436962  0.07468733  0.05206415  1
  Se  Se122  1  0.40708255  0.07813371  0.55708590  1
  Se  Se123  1  0.41316582  0.41392675  0.04902382  1
  Se  Se124  1  0.41993943  0.41515502  0.56610953  1
  Se  Se125  1  0.41532312  0.74222381  0.06461345  1
  Se  Se126  1  0.40886482  0.75526840  0.54742300  1
  Se  Se127  1  0.75421654  0.08365711  0.05239821  1
  Se  Se128  1  0.75324235  0.08165378  0.56298145  1
  Se  Se129  1  0.74940957  0.41815289  0.05365606  1
  Se  Se130  1  0.76149334  0.41926803  0.55423680  1
  Se  Se131  1  0.75296081  0.75176799  0.05409410  1
  Se  Se132  1  0.74275842  0.74093297  0.56145599  1
  Se  Se133  1  0.24320119  0.24445753  0.04530575  1
  Se  Se134  1  0.25947448  0.25580847  0.56313191  1
  Se  Se135  1  0.24877056  0.58056884  0.05578993  1
  Se  Se136  1  0.24586726  0.57673192  0.54777640  1
  Se  Se137  1  0.25495968  0.90952638  0.04845684  1
  Se  Se138  1  0.23707165  0.92305438  0.56045610  1
  Se  Se139  1  0.58601425  0.24970179  0.05652851  1
  Se  Se140  1  0.59624307  0.24785388  0.55960904  1
  Se  Se141  1  0.57910191  0.58114918  0.05485729  1
  Se  Se142  1  0.58830266  0.58745391  0.56438180  1
  Se  Se143  1  0.59713872  0.92458090  0.05198941  1
  Se  Se144  1  0.57467944  0.91940561  0.54892114  1
  Se  Se145  1  0.91789895  0.25677875  0.06283856  1
  Se  Se146  1  0.92250203  0.24550243  0.56222613  1
  Se  Se147  1  0.91740205  0.58520945  0.05427359  1
  Se  Se148  1  0.91863569  0.57533073  0.54684615  1
  Se  Se149  1  0.92090055  0.91959529  0.04876352  1
  Se  Se150  1  0.91706518  0.91618425  0.57026641  1
  Se  Se151  1  0.07986645  0.25626773  0.44090604  1
  Se  Se152  1  0.07296752  0.24575648  0.93700825  1
  Se  Se153  1  0.08935291  0.58023500  0.44107863  1
  Se  Se154  1  0.08591957  0.58450620  0.94664817  1
  Se  Se155  1  0.07189607  0.92592377  0.45185304  1
  Se  Se156  1  0.09292791  0.91260989  0.94519603  1
  Se  Se157  1  0.41271086  0.26333719  0.44003019  1
  Se  Se158  1  0.40201534  0.25525121  0.93213628  1
  Se  Se159  1  0.40122705  0.59874520  0.44556786  1
  Se  Se160  1  0.41642541  0.58379762  0.94985881  1
  Se  Se161  1  0.40848541  0.91590672  0.44519725  1
  Se  Se162  1  0.42104057  0.92311107  0.93438258  1
  Se  Se163  1  0.75803055  0.24166704  0.44867236  1
  Se  Se164  1  0.73991473  0.25735737  0.93605059  1
  Se  Se165  1  0.75233556  0.58295153  0.44360005  1
  Se  Se166  1  0.75340886  0.57941693  0.95291895  1
  Se  Se167  1  0.74304826  0.92244037  0.44418181  1
  Se  Se168  1  0.76257693  0.91802321  0.94413932  1
  Se  Se169  1  0.25122398  0.08446100  0.44307088  1
  Se  Se170  1  0.24741139  0.08276793  0.94233326  1
  Se  Se171  1  0.24800762  0.41964395  0.45427253  1
  Se  Se172  1  0.24097518  0.42146249  0.94913083  1
  Se  Se173  1  0.21754287  0.77435190  0.43580077  1
  Se  Se174  1  0.25834911  0.75292235  0.94336948  1
  Se  Se175  1  0.59139614  0.07603278  0.43675035  1
  Se  Se176  1  0.59936714  0.08400731  0.92928126  1
  Se  Se177  1  0.59413842  0.40941791  0.44835023  1
  Se  Se178  1  0.57791110  0.42032019  0.95000258  1
  Se  Se179  1  0.58076056  0.74943535  0.45086963  1
  Se  Se180  1  0.59381055  0.74043553  0.93928132  1
  Se  Se181  1  0.91215239  0.08641530  0.46060827  1
  Se  Se182  1  0.93517848  0.08018957  0.93109670  1
  Se  Se183  1  0.92225960  0.41395422  0.44608441  1
  Se  Se184  1  0.91142140  0.41589401  0.94466238  1
  Se  Se185  1  0.91708509  0.73751625  0.43533061  1
  Se  Se186  1  0.92125752  0.75081817  0.95158958  1
  Se  Se187  1  0.24922959  0.24158268  0.30676715  1
  Se  Se188  1  0.24229018  0.24929070  0.81394486  1
  Se  Se189  1  0.25192709  0.58371836  0.30169561  1
  Se  Se190  1  0.24678180  0.58562095  0.80569208  1
  Se  Se191  1  0.25022230  0.91875614  0.30090881  1
  Se  Se192  1  0.26771785  0.94305386  0.80398072  1
  Se  Se193  1  0.57093167  0.23137345  0.29828307  1
  Se  Se194  1  0.57295267  0.25374584  0.79824002  1
  Se  Se195  1  0.58189366  0.58662899  0.30855387  1
  Se  Se196  1  0.57452231  0.57952722  0.81607708  1
  Se  Se197  1  0.57575737  0.90956278  0.31406533  1
  Se  Se198  1  0.58539602  0.90795139  0.79982165  1
  Se  Se199  1  0.91791213  0.24579743  0.31452550  1
  Se  Se200  1  0.89351505  0.23288785  0.79922914  1
  Se  Se201  1  0.92349916  0.58119934  0.29668007  1
  Se  Se202  1  0.91084461  0.58058218  0.80799404  1
  Se  Se203  1  0.91162948  0.90297990  0.31180933  1
  Se  Se204  1  0.91334050  0.90441417  0.81042369  1
  Se  Se205  1  0.09314916  0.08623089  0.31172630  1
  Se  Se206  1  0.06166390  0.05632559  0.79814623  1
  Se  Se207  1  0.09146469  0.41953461  0.30866249  1
  Se  Se208  1  0.07636266  0.42024311  0.80471648  1
  Se  Se209  1  0.07861140  0.74850418  0.29821648  1
  Se  Se210  1  0.09946531  0.76366380  0.80699268  1
  Se  Se211  1  0.42010200  0.08413509  0.29480653  1
  Se  Se212  1  0.43567862  0.10081803  0.79460596  1
  Se  Se213  1  0.42643086  0.42692232  0.31701646  1
  Se  Se214  1  0.41676476  0.42736841  0.81325511  1
  Se  Se215  1  0.41113545  0.74692838  0.30681920  1
  Se  Se216  1  0.41129588  0.74946732  0.79868757  1
  Se  Se217  1  0.75687568  0.08123511  0.31409183  1
  Se  Se218  1  0.74488298  0.07116028  0.79410256  1
  Se  Se219  1  0.73692324  0.40293696  0.30707487  1
  Se  Se220  1  0.74682410  0.41981806  0.80577255  1
  Se  Se221  1  0.74509728  0.74869339  0.30019110  1
  Se  Se222  1  0.75540718  0.74616053  0.81199222  1
  Se  Se223  1  0.25292625  0.07660863  0.18806102  1
  Se  Se224  1  0.24421081  0.09075534  0.71242174  1
  Se  Se225  1  0.24407329  0.41845301  0.18948823  1
  Se  Se226  1  0.24475478  0.42513935  0.69272181  1
  Se  Se227  1  0.25264395  0.74519027  0.19759221  1
  Se  Se228  1  0.24356800  0.75331383  0.69096881  1
  Se  Se229  1  0.57697759  0.08553397  0.18239587  1
  Se  Se230  1  0.57311233  0.08784608  0.69978339  1
  Se  Se231  1  0.58426147  0.41813513  0.19557807  1
  Se  Se232  1  0.58628847  0.42410410  0.70350332  1
  Se  Se233  1  0.58123467  0.75371219  0.20100188  1
  Se  Se234  1  0.57683717  0.75517534  0.68452160  1
  Se  Se235  1  0.91045514  0.09379918  0.19752426  1
  Se  Se236  1  0.92870521  0.07524751  0.70963050  1
  Se  Se237  1  0.90416007  0.42973316  0.19403047  1
  Se  Se238  1  0.92188095  0.41471513  0.69567577  1
  Se  Se239  1  0.91961856  0.74906525  0.19127093  1
  Se  Se240  1  0.91325173  0.75489388  0.69222449  1
  Se  Se241  1  0.09227267  0.24043884  0.19092407  1
  Se  Se242  1  0.09030146  0.25017563  0.70996662  1
  Se  Se243  1  0.08182995  0.58445608  0.19303420  1
  Se  Se244  1  0.09220263  0.58305915  0.68457209  1
  Se  Se245  1  0.08920833  0.90939328  0.18652674  1
  Se  Se246  1  0.07042074  0.92755919  0.71086681  1
  Se  Se247  1  0.42193245  0.24423340  0.18431561  1
  Se  Se248  1  0.42063443  0.24707178  0.68532766  1
  Se  Se249  1  0.41366854  0.58151305  0.19889788  1
  Se  Se250  1  0.41237445  0.59093903  0.69976678  1
  Se  Se251  1  0.41204165  0.91700161  0.19867759  1
  Se  Se252  1  0.41323720  0.91605046  0.69074233  1
  Se  Se253  1  0.74420588  0.25329238  0.20346656  1
  Se  Se254  1  0.73287917  0.27112626  0.69462672  1
  Se  Se255  1  0.73588203  0.59615918  0.19341367  1
  Se  Se256  1  0.75978081  0.58080978  0.69136636  1
  Se  Se257  1  0.75774278  0.91396085  0.18962882  1
  Se  Se258  1  0.74637897  0.91381284  0.69769809  1
