# generated using pymatgen
data_In86Cu29Se144
_symmetry_space_group_name_H-M   'P 1'
_cell_length_a   17.68545960
_cell_length_b   17.68188630
_cell_length_c   23.55033928
_cell_angle_alpha   90.03517055
_cell_angle_beta   90.01326871
_cell_angle_gamma   90.00506708
_symmetry_Int_Tables_number   1
_chemical_formula_structural   In86Cu29Se144
_chemical_formula_sum   'In86 Cu29 Se144'
_cell_volume   7364.47881103
_cell_formula_units_Z   1
loop_
 _symmetry_equiv_pos_site_id
 _symmetry_equiv_pos_as_xyz
  1  'x, y, z'
loop_
 _atom_site_type_symbol
 _atom_site_label
 _atom_site_symmetry_multiplicity
 _atom_site_fract_x
 _atom_site_fract_y
 _atom_site_fract_z
 _atom_site_occupancy
  In  In0  1  0.00593793  0.16488794  0.12830860  1
  In  In1  1  -0.00157188  0.16798297  0.62579494  1
  In  In2  1  -0.00773262  0.50280159  0.12627375  1
  In  In3  1  -0.01508450  0.49177166  0.62515429  1
  In  In4  1  -0.00418137  0.83777288  0.11339683  1
  In  In5  1  0.00663430  0.85132007  0.62511709  1
  In  In6  1  0.32809146  0.17500908  0.13171190  1
  In  In7  1  0.33458230  0.16536680  0.62622476  1
  In  In8  1  0.33968749  0.48329114  0.13095555  1
  In  In9  1  0.32090177  0.49422988  0.62267844  1
  In  In10  1  0.32791171  0.85333729  0.12770935  1
  In  In11  1  0.35347780  0.84248237  0.62036735  1
  In  In12  1  0.66530380  0.17695962  0.13861315  1
  In  In13  1  0.66813534  0.16483232  0.62346685  1
  In  In14  1  0.66534277  0.48907290  0.11662246  1
  In  In15  1  0.66800303  0.49495254  0.63234072  1
  In  In16  1  0.67862477  0.83345535  0.12311040  1
  In  In17  1  0.66535278  0.83277817  0.62783918  1
  In  In18  1  0.18580496  0.00174878  0.37291777  1
  In  In19  1  0.16450566  0.00368003  0.87695325  1
  In  In20  1  0.15411909  0.31785510  0.36592379  1
  In  In21  1  0.16164637  0.31985221  0.87404044  1
  In  In22  1  0.15518463  0.66865191  0.37507631  1
  In  In23  1  0.18015713  0.67191335  0.87877983  1
  In  In24  1  0.50087411  0.00188774  0.38244558  1
  In  In25  1  0.50589615  0.00095857  0.86045187  1
  In  In26  1  0.48618975  0.32213451  0.36770476  1
  In  In27  1  0.50773019  0.34003279  0.86889653  1
  In  In28  1  0.50657680  0.66867264  0.37826469  1
  In  In29  1  0.50104887  0.65089445  0.87605109  1
  In  In30  1  0.81924653  0.01205468  0.38904343  1
  In  In31  1  0.82886873  -0.00400309  0.86675175  1
  In  In32  1  0.79286958  0.28688280  0.32662708  1
  In  In33  1  0.83242915  0.33183559  0.87575133  1
  In  In34  1  0.83632886  0.67019153  0.37746927  1
  In  In35  1  0.82575160  0.67082471  0.87762683  1
  In  In36  1  -0.00629638  0.17553842  0.38644327  1
  In  In37  1  0.00480146  0.17502512  0.87040642  1
  In  In38  1  -0.04360634  0.42299940  0.32815811  1
  In  In39  1  -0.00077816  0.47931049  0.87815425  1
  In  In40  1  -0.00861785  0.82803173  0.37832968  1
  In  In41  1  -0.00953409  0.84138105  0.87774256  1
  In  In42  1  0.33527729  0.16511701  0.37906439  1
  In  In43  1  0.32907611  0.15912587  0.87177567  1
  In  In44  1  0.32209887  0.48115983  0.35810710  1
  In  In45  1  0.34851455  0.49781957  0.87935695  1
  In  In46  1  0.33034856  0.85987271  0.37329235  1
  In  In47  1  0.33128768  0.83323123  0.87565710  1
  In  In48  1  0.66281989  0.15668496  0.38115556  1
  In  In49  1  0.66998546  0.16690925  0.86635155  1
  In  In50  1  0.66443083  0.48012030  0.36178409  1
  In  In51  1  0.66364507  0.49586328  0.87590525  1
  In  In52  1  0.65670513  0.84164495  0.38790587  1
  In  In53  1  0.67727603  0.84568442  0.86284400  1
  In  In54  1  0.16619229  0.01219373  0.11815702  1
  In  In55  1  0.15689236  0.01483750  0.63451989  1
  In  In56  1  0.17932919  0.32580782  0.13319681  1
  In  In57  1  0.17156258  0.32116260  0.63120039  1
  In  In58  1  0.15674699  0.67267104  0.11894365  1
  In  In59  1  0.17297204  0.66487146  0.62615467  1
  In  In60  1  0.50094848  0.00561978  0.13227286  1
  In  In61  1  0.49908681  -0.00154767  0.63057100  1
  In  In62  1  0.50296680  0.33704242  0.13270774  1
  In  In63  1  0.51297627  0.31964136  0.62731037  1
  In  In64  1  0.51408110  0.66548140  0.11933010  1
  In  In65  1  0.50273911  0.67982290  0.62813621  1
  In  In66  1  0.83760479  0.00224437  0.12839105  1
  In  In67  1  0.83542167  0.00209134  0.62292382  1
  In  In68  1  0.82467815  0.35181852  0.14618076  1
  In  In69  1  0.83619163  0.32681449  0.63070375  1
  In  In70  1  0.83375110  0.66907865  0.11337612  1
  In  In71  1  0.81517961  0.66975287  0.62940658  1
  In  In72  1  0.00105421  0.66732126  0.24738272  1
  In  In73  1  0.50327024  0.82977544  -0.00619937  1
  In  In74  1  0.83214878  0.17089572  0.00327677  1
  In  In75  1  0.50342751  0.17240691  0.00497637  1
  In  In76  1  0.33538655  0.66598088  0.75252595  1
  In  In77  1  0.49667624  0.50003317  0.49305365  1
  In  In78  1  0.16659302  0.83994732  0.49787643  1
  In  In79  1  0.67053384  0.66640804  0.24699921  1
  In  In80  1  0.83217750  0.49835827  0.48877406  1
  In  In81  1  -0.00345991  0.00437138  0.24943204  1
  In  In82  1  0.16766504  0.49890729  0.00541347  1
  In  In83  1  0.00134200  0.66559963  0.75588775  1
  In  In84  1  0.15021350  0.49420427  0.47855797  1
  In  In85  1  0.33878251  0.67671344  0.23924725  1
  Cu  Cu86  1  -0.00429014  0.32850861  0.00127122  1
  Cu  Cu87  1  0.67436631  0.32440166  0.49586561  1
  Cu  Cu88  1  0.67026046  -0.00146402  -0.00477465  1
  Cu  Cu89  1  -0.00706679  0.67232276  0.49890894  1
  Cu  Cu90  1  0.33377477  0.67220094  0.00023423  1
  Cu  Cu91  1  0.00116106  0.66898764  -0.00349681  1
  Cu  Cu92  1  0.33387793  0.32827556  0.00542540  1
  Cu  Cu93  1  -0.00423739  0.00094170  -0.00178220  1
  Cu  Cu94  1  0.16332702  0.48804564  0.75060290  1
  Cu  Cu95  1  0.49863630  0.16940630  0.74537590  1
  Cu  Cu96  1  0.50001610  0.15788169  0.25574507  1
  Cu  Cu97  1  0.17226989  0.16010872  0.25204475  1
  Cu  Cu98  1  0.00138326  0.32965482  0.50174395  1
  Cu  Cu99  1  0.50131958  0.84435756  0.25619949  1
  Cu  Cu100  1  0.16927776  0.16706283  0.75090153  1
  Cu  Cu101  1  0.83028219  0.16311604  0.74665044  1
  Cu  Cu102  1  0.82911874  0.84030379  0.24928994  1
  Cu  Cu103  1  0.49947000  0.49607001  0.75090965  1
  Cu  Cu104  1  -0.00043873  0.00640657  0.50357489  1
  Cu  Cu105  1  0.66451735  0.66889339  0.50163247  1
  Cu  Cu106  1  0.33651207  0.32440869  0.50269870  1
  Cu  Cu107  1  0.67301937  0.66240214  -0.00354427  1
  Cu  Cu108  1  0.33655408  0.00573705  0.50352339  1
  Cu  Cu109  1  0.32675273  0.00285056  -0.00181228  1
  Cu  Cu110  1  0.66536476  -0.00138517  0.50890095  1
  Cu  Cu111  1  0.83954296  0.83715201  0.74726075  1
  Cu  Cu112  1  0.17458722  0.84376248  0.75279827  1
  Cu  Cu113  1  0.33237186  0.66426721  0.49717342  1
  Cu  Cu114  1  0.83302438  0.48808492  0.75296572  1
  Se  Se115  1  0.07612060  0.08732079  0.05076844  1
  Se  Se116  1  0.08455800  0.08758547  0.55614423  1
  Se  Se117  1  0.07868292  0.40725295  0.06253131  1
  Se  Se118  1  0.07983674  0.41405810  0.55965894  1
  Se  Se119  1  0.08215685  0.75487285  0.04765850  1
  Se  Se120  1  0.07989214  0.74315314  0.55851385  1
  Se  Se121  1  0.41030016  0.07875714  0.05885511  1
  Se  Se122  1  0.42050563  0.08354332  0.55964435  1
  Se  Se123  1  0.41906349  0.40966601  0.05706549  1
  Se  Se124  1  0.41359574  0.41096402  0.55936922  1
  Se  Se125  1  0.41247784  0.75164784  0.06259805  1
  Se  Se126  1  0.41437687  0.74300513  0.55298629  1
  Se  Se127  1  0.73845368  0.08140376  0.06156793  1
  Se  Se128  1  0.75286286  0.08496923  0.55429496  1
  Se  Se129  1  0.76829339  0.41759234  0.05928329  1
  Se  Se130  1  0.74624120  0.41159159  0.55633591  1
  Se  Se131  1  0.74962835  0.75352706  0.04798076  1
  Se  Se132  1  0.74749545  0.75119317  0.55446209  1
  Se  Se133  1  0.24813139  0.24627781  0.05540426  1
  Se  Se134  1  0.24974297  0.24710824  0.55665349  1
  Se  Se135  1  0.26061411  0.58894656  0.06337203  1
  Se  Se136  1  0.24552081  0.58275908  0.54825318  1
  Se  Se137  1  0.24511483  0.92017142  0.05206016  1
  Se  Se138  1  0.25180026  0.92603819  0.56294238  1
  Se  Se139  1  0.59662825  0.26026439  0.06063555  1
  Se  Se140  1  0.58846042  0.24703033  0.55051533  1
  Se  Se141  1  0.58910076  0.58198128  0.05024660  1
  Se  Se142  1  0.58755483  0.58244903  0.55893717  1
  Se  Se143  1  0.58678351  0.92355740  0.05713997  1
  Se  Se144  1  0.58126211  0.91553070  0.56036181  1
  Se  Se145  1  0.91647891  0.25778201  0.06809132  1
  Se  Se146  1  0.91541059  0.25168084  0.55687840  1
  Se  Se147  1  0.92213318  0.58478415  0.05124949  1
  Se  Se148  1  0.91437318  0.59040938  0.55883326  1
  Se  Se149  1  0.90822733  0.92307662  0.05166523  1
  Se  Se150  1  0.91965015  0.91791858  0.55340346  1
  Se  Se151  1  0.09009067  0.24897256  0.45082733  1
  Se  Se152  1  0.08062717  0.24767647  0.94886150  1
  Se  Se153  1  0.05622234  0.59012765  0.43259559  1
  Se  Se154  1  0.08084056  0.58604359  0.93761122  1
  Se  Se155  1  0.07602326  0.92868753  0.43800050  1
  Se  Se156  1  0.07959408  0.91934151  0.94383431  1
  Se  Se157  1  0.42121101  0.24577103  0.44812032  1
  Se  Se158  1  0.41255797  0.25335175  0.94019029  1
  Se  Se159  1  0.40197682  0.58283606  0.43165386  1
  Se  Se160  1  0.41662349  0.58512845  0.95194805  1
  Se  Se161  1  0.41534463  0.91777390  0.45072565  1
  Se  Se162  1  0.41559955  0.92947510  0.94034112  1
  Se  Se163  1  0.75556796  0.25483885  0.43129929  1
  Se  Se164  1  0.73717855  0.25379919  0.94358552  1
  Se  Se165  1  0.73214178  0.58652148  0.43436964  1
  Se  Se166  1  0.75290475  0.57741265  0.94258297  1
  Se  Se167  1  0.74867207  0.91587212  0.45384170  1
  Se  Se168  1  0.75267029  0.91682111  0.94176119  1
  Se  Se169  1  0.25098071  0.08416663  0.44926414  1
  Se  Se170  1  0.24613542  0.08875798  0.94621009  1
  Se  Se171  1  0.25851272  0.40439924  0.44154723  1
  Se  Se172  1  0.25523281  0.41006753  0.94285746  1
  Se  Se173  1  0.25535464  0.74812667  0.43753582  1
  Se  Se174  1  0.25189565  0.75700703  0.95022141  1
  Se  Se175  1  0.58180960  0.08111446  0.45422638  1
  Se  Se176  1  0.58727118  0.07899241  0.93968213  1
  Se  Se177  1  0.58867947  0.40505843  0.43996651  1
  Se  Se178  1  0.57145767  0.42399657  0.94372446  1
  Se  Se179  1  0.57643570  0.75085071  0.45213236  1
  Se  Se180  1  0.59502666  0.74381741  0.93453586  1
  Se  Se181  1  0.91403044  0.08852614  0.45184582  1
  Se  Se182  1  0.91598534  0.08206372  0.93817561  1
  Se  Se183  1  0.92245729  0.40480918  0.43915068  1
  Se  Se184  1  0.91208830  0.41125541  0.94987990  1
  Se  Se185  1  0.90667622  0.75616024  0.45064190  1
  Se  Se186  1  0.91588434  0.74936283  0.94291408  1
  Se  Se187  1  0.25389865  0.24514924  0.30620025  1
  Se  Se188  1  0.25237196  0.25007164  0.80482620  1
  Se  Se189  1  0.24917215  0.59439145  0.30653801  1
  Se  Se190  1  0.24338036  0.57094286  0.80919673  1
  Se  Se191  1  0.24097967  0.91242024  0.29783276  1
  Se  Se192  1  0.25443797  0.92269041  0.81024910  1
  Se  Se193  1  0.58167475  0.24122573  0.30999282  1
  Se  Se194  1  0.58205799  0.24876717  0.80256543  1
  Se  Se195  1  0.57645053  0.57877825  0.30538321  1
  Se  Se196  1  0.58338879  0.57847409  0.80320043  1
  Se  Se197  1  0.58594929  0.92100135  0.31207231  1
  Se  Se198  1  0.58104023  0.91044654  0.79751944  1
  Se  Se199  1  0.94000871  0.26934967  0.30981122  1
  Se  Se200  1  0.90898956  0.24590959  0.80592276  1
  Se  Se201  1  0.91272948  0.58354423  0.30898399  1
  Se  Se202  1  0.91326530  0.57117798  0.81187066  1
  Se  Se203  1  0.90743832  0.91693362  0.31263820  1
  Se  Se204  1  0.92178452  0.92041196  0.80044268  1
  Se  Se205  1  0.08579398  0.08929111  0.31439787  1
  Se  Se206  1  0.08482356  0.08595287  0.80574508  1
  Se  Se207  1  0.10318222  0.44415320  0.32940407  1
  Se  Se208  1  0.08201475  0.40728887  0.80591883  1
  Se  Se209  1  0.08660525  0.76575134  0.30501865  1
  Se  Se210  1  0.09544960  0.75750645  0.80999142  1
  Se  Se211  1  0.41572307  0.07875790  0.31112192  1
  Se  Se212  1  0.41765094  0.08739744  0.80140815  1
  Se  Se213  1  0.42996107  0.42401213  0.30123385  1
  Se  Se214  1  0.41331386  0.41541515  0.80279873  1
  Se  Se215  1  0.42167717  0.75947025  0.31167747  1
  Se  Se216  1  0.42649179  0.75248061  0.81154037  1
  Se  Se217  1  0.75270314  0.08526084  0.31009680  1
  Se  Se218  1  0.74666079  0.07914406  0.79938487  1
  Se  Se219  1  0.77770261  0.43186037  0.30515397  1
  Se  Se220  1  0.74662043  0.41102244  0.80764672  1
  Se  Se221  1  0.75114011  0.76029437  0.31090365  1
  Se  Se222  1  0.75907122  0.75260187  0.80114224  1
  Se  Se223  1  0.25095922  0.07936531  0.19382848  1
  Se  Se224  1  0.25398760  0.08429634  0.69855008  1
  Se  Se225  1  0.24635949  0.42170940  0.19921076  1
  Se  Se226  1  0.25091163  0.41224029  0.69630380  1
  Se  Se227  1  0.23740498  0.76166783  0.18810705  1
  Se  Se228  1  0.24860073  0.76012918  0.69094380  1
  Se  Se229  1  0.58739296  0.08269651  0.19980580  1
  Se  Se230  1  0.58394380  0.08660806  0.69391508  1
  Se  Se231  1  0.59201486  0.41937876  0.19506216  1
  Se  Se232  1  0.58200135  0.41277238  0.69637645  1
  Se  Se233  1  0.57692911  0.76369722  0.19287722  1
  Se  Se234  1  0.59980814  0.73554769  0.69564265  1
  Se  Se235  1  0.90488808  0.10013086  0.19803491  1
  Se  Se236  1  0.91696474  0.08318919  0.69387069  1
  Se  Se237  1  0.93784352  0.41190415  0.20265383  1
  Se  Se238  1  0.91952212  0.40912533  0.70016947  1
  Se  Se239  1  0.90829209  0.76059934  0.18919237  1
  Se  Se240  1  0.91941785  0.75350664  0.68841754  1
  Se  Se241  1  0.09053856  0.24346984  0.19727537  1
  Se  Se242  1  0.08134909  0.24734698  0.69806235  1
  Se  Se243  1  0.09441818  0.57687562  0.19049484  1
  Se  Se244  1  0.08835706  0.57363948  0.69097687  1
  Se  Se245  1  0.08148025  0.91768805  0.18482075  1
  Se  Se246  1  0.08482870  0.92055702  0.70130399  1
  Se  Se247  1  0.42502587  0.24342828  0.19607957  1
  Se  Se248  1  0.41542387  0.25341502  0.69340137  1
  Se  Se249  1  0.43003507  0.58145589  0.18808064  1
  Se  Se250  1  0.41966411  0.57436611  0.68756981  1
  Se  Se251  1  0.41789438  0.92106400  0.19825106  1
  Se  Se252  1  0.41905628  0.91392053  0.69969878  1
  Se  Se253  1  0.75375188  0.25221626  0.20777265  1
  Se  Se254  1  0.74680010  0.24846075  0.69532169  1
  Se  Se255  1  0.75818615  0.58219282  0.18484478  1
  Se  Se256  1  0.75444310  0.57471714  0.69913421  1
  Se  Se257  1  0.74840661  0.92183500  0.19389111  1
  Se  Se258  1  0.75557118  0.91627040  0.69133355  1
