# generated using pymatgen
data_In86Cu29Se144
_symmetry_space_group_name_H-M   'P 1'
_cell_length_a   17.58418328
_cell_length_b   17.58163907
_cell_length_c   23.45365038
_cell_angle_alpha   90.00788919
_cell_angle_beta   89.99628345
_cell_angle_gamma   90.03711083
_symmetry_Int_Tables_number   1
_chemical_formula_structural   In86Cu29Se144
_chemical_formula_sum   'In86 Cu29 Se144'
_cell_volume   7250.89995376
_cell_formula_units_Z   1
loop_
 _symmetry_equiv_pos_site_id
 _symmetry_equiv_pos_as_xyz
  1  'x, y, z'
loop_
 _atom_site_type_symbol
 _atom_site_label
 _atom_site_symmetry_multiplicity
 _atom_site_fract_x
 _atom_site_fract_y
 _atom_site_fract_z
 _atom_site_occupancy
  In  In0  1  0.00863166  0.14808605  0.13355999  1
  In  In1  1  -0.00577353  0.15904352  0.61728040  1
  In  In2  1  0.01019642  0.51120179  0.12753342  1
  In  In3  1  0.00910785  0.49371039  0.62040461  1
  In  In4  1  0.00779703  0.82614746  0.13169359  1
  In  In5  1  0.00154812  0.83999276  0.62384390  1
  In  In6  1  0.33064264  0.15604194  0.10987634  1
  In  In7  1  0.33046576  0.15947126  0.62362751  1
  In  In8  1  0.34925530  0.49518830  0.12765994  1
  In  In9  1  0.32647523  0.51159487  0.62404982  1
  In  In10  1  0.32453533  0.83037122  0.12025555  1
  In  In11  1  0.33106662  0.84102336  0.62421582  1
  In  In12  1  0.66105781  0.17468532  0.12743060  1
  In  In13  1  0.66561435  0.16280526  0.62740045  1
  In  In14  1  0.65173661  0.51122615  0.13795997  1
  In  In15  1  0.65744592  0.50378357  0.62678231  1
  In  In16  1  0.65492411  0.82469702  0.12274419  1
  In  In17  1  0.67858551  0.84072901  0.61275841  1
  In  In18  1  0.15442325  0.00953468  0.38018244  1
  In  In19  1  0.17090363  -0.00109880  0.86974664  1
  In  In20  1  0.17545562  0.32758922  0.38236264  1
  In  In21  1  0.15867471  0.31712805  0.87288224  1
  In  In22  1  0.16594019  0.67515524  0.37651973  1
  In  In23  1  0.17425091  0.69335090  0.86982116  1
  In  In24  1  0.50151524  -0.00226932  0.38487689  1
  In  In25  1  0.49796843  -0.00624611  0.87133720  1
  In  In26  1  0.50321094  0.31817401  0.37496159  1
  In  In27  1  0.50903288  0.32472786  0.87729043  1
  In  In28  1  0.50923011  0.67666875  0.36681689  1
  In  In29  1  0.49178094  0.68575578  0.88922052  1
  In  In30  1  0.84383460  -0.01169169  0.38556681  1
  In  In31  1  0.83499466  0.00474010  0.86428696  1
  In  In32  1  0.81862534  0.33146282  0.37623466  1
  In  In33  1  0.81168895  0.33793144  0.86929136  1
  In  In34  1  0.83788425  0.67395578  0.37181040  1
  In  In35  1  0.84844341  0.65576740  0.87015976  1
  In  In36  1  0.01298713  0.15003344  0.38153875  1
  In  In37  1  0.01388962  0.15958630  0.87388827  1
  In  In38  1  0.00167484  0.51736161  0.37388259  1
  In  In39  1  -0.01384640  0.51235846  0.87116379  1
  In  In40  1  0.00072246  0.83680845  0.37700319  1
  In  In41  1  0.01821811  0.84925599  0.85712571  1
  In  In42  1  0.33471648  0.16475544  0.38204141  1
  In  In43  1  0.35681589  0.13335838  0.89488953  1
  In  In44  1  0.32040614  0.50509172  0.37686725  1
  In  In45  1  0.33652170  0.51487922  0.87897601  1
  In  In46  1  0.34251415  0.82739740  0.38098721  1
  In  In47  1  0.31583278  0.86196205  0.90369613  1
  In  In48  1  0.66292668  0.16953258  0.38094857  1
  In  In49  1  0.63551474  0.14245152  0.84443673  1
  In  In50  1  0.66718578  0.49694577  0.36771171  1
  In  In51  1  0.66847650  0.49519212  0.87405115  1
  In  In52  1  0.67315633  0.82156950  0.39118354  1
  In  In53  1  0.65258732  0.83192441  0.87494106  1
  In  In54  1  0.17061559  -0.00937964  0.11926024  1
  In  In55  1  0.16217805  -0.00434493  0.62477203  1
  In  In56  1  0.17574823  0.33274631  0.12444143  1
  In  In57  1  0.16343426  0.32862019  0.61575086  1
  In  In58  1  0.15892173  0.67925355  0.13379190  1
  In  In59  1  0.16348217  0.66903428  0.61776645  1
  In  In60  1  0.48704122  -0.00898065  0.10483332  1
  In  In61  1  0.50216172  0.00497647  0.62843485  1
  In  In62  1  0.50040942  0.33976752  0.11750057  1
  In  In63  1  0.51696009  0.32545058  0.63508232  1
  In  In64  1  0.50254893  0.66171875  0.12879337  1
  In  In65  1  0.50022209  0.67292387  0.62087029  1
  In  In66  1  0.83941543  0.00922094  0.12975117  1
  In  In67  1  0.83303760  -0.00016761  0.62552869  1
  In  In68  1  0.81982824  0.32350073  0.12847947  1
  In  In69  1  0.83520541  0.32016083  0.62167478  1
  In  In70  1  0.83361308  0.66709093  0.13520158  1
  In  In71  1  0.82873323  0.68920407  0.61800224  1
  In  In72  1  0.66676445  -0.00370178  0.24806224  1
  In  In73  1  -0.00554474  0.33788636  0.24881672  1
  In  In74  1  0.83006277  0.50164679  -0.00329140  1
  In  In75  1  -0.00547498  0.32977975  0.75064282  1
  In  In76  1  0.82999906  0.17049509  -0.00090513  1
  In  In77  1  0.83227584  0.82743655  0.00125046  1
  In  In78  1  0.17092815  0.50244166  0.00076206  1
  In  In79  1  0.33819199  0.33248731  0.25262075  1
  In  In80  1  0.32872257  -0.00247370  0.24359346  1
  In  In81  1  0.49469146  0.49950427  0.50754585  1
  In  In82  1  0.33292246  0.67881248  0.74530164  1
  In  In83  1  0.83694488  0.50240057  0.49247269  1
  In  In84  1  0.67188709  0.66871896  0.75191367  1
  In  In85  1  0.33411247  0.32386591  0.74812118  1
  Cu  Cu86  1  0.83506555  0.16246102  0.25560298  1
  Cu  Cu87  1  0.65977485  0.33102991  -0.00255759  1
  Cu  Cu88  1  0.32860705  0.66907072  0.50062826  1
  Cu  Cu89  1  0.00952383  -0.00613319  -0.00067166  1
  Cu  Cu90  1  0.82872588  0.49956683  0.25595428  1
  Cu  Cu91  1  0.16827731  0.15417614  0.74811744  1
  Cu  Cu92  1  0.49984858  0.84051428  0.74934627  1
  Cu  Cu93  1  0.33110263  -0.00178282  0.50381727  1
  Cu  Cu94  1  -0.00020181  -0.00080476  0.50428285  1
  Cu  Cu95  1  0.33903927  0.66624673  0.00660701  1
  Cu  Cu96  1  0.50096684  0.16465093  0.24820108  1
  Cu  Cu97  1  0.66175784  0.00224379  -0.00820661  1
  Cu  Cu98  1  0.83474472  0.83315950  0.25814662  1
  Cu  Cu99  1  0.00573855  0.33020476  0.49885950  1
  Cu  Cu100  1  0.50271837  0.49927760  0.24686514  1
  Cu  Cu101  1  0.83527496  0.83640871  0.74359605  1
  Cu  Cu102  1  0.00934999  0.67686416  -0.00056856  1
  Cu  Cu103  1  0.50526202  0.49864410  0.75648800  1
  Cu  Cu104  1  0.00155260  0.67373759  0.49664917  1
  Cu  Cu105  1  0.66416705  0.00650078  0.50493629  1
  Cu  Cu106  1  0.33143307  0.33003619  -0.00115293  1
  Cu  Cu107  1  0.15956562  0.50443207  0.74517383  1
  Cu  Cu108  1  0.16556056  0.83865625  0.25332808  1
  Cu  Cu109  1  0.16349931  0.51192437  0.25580494  1
  Cu  Cu110  1  0.33619122  0.32842357  0.50250924  1
  Cu  Cu111  1  0.83121077  0.16864974  0.74198986  1
  Cu  Cu112  1  0.66589912  0.32808852  0.50374571  1
  Cu  Cu113  1  0.50260482  0.82641298  0.25232498  1
  Cu  Cu114  1  -0.00380891  0.32480564  -0.00217110  1
  Se  Se115  1  0.08598824  0.08099362  0.05505709  1
  Se  Se116  1  0.08754670  0.08419894  0.55271172  1
  Se  Se117  1  0.07401736  0.41022603  0.05676803  1
  Se  Se118  1  0.08883196  0.41815578  0.54680011  1
  Se  Se119  1  0.09091748  0.75833351  0.05467086  1
  Se  Se120  1  0.08262899  0.75683004  0.55205559  1
  Se  Se121  1  0.42305755  0.09000363  0.04110823  1
  Se  Se122  1  0.41745340  0.08178492  0.55475349  1
  Se  Se123  1  0.41434734  0.41775780  0.04801520  1
  Se  Se124  1  0.41032541  0.40567902  0.56967284  1
  Se  Se125  1  0.42063621  0.74907499  0.06146599  1
  Se  Se126  1  0.41041665  0.75013973  0.55710210  1
  Se  Se127  1  0.74015206  0.07545749  0.05875743  1
  Se  Se128  1  0.75243661  0.08680099  0.55687548  1
  Se  Se129  1  0.74256596  0.40937244  0.05712887  1
  Se  Se130  1  0.74549832  0.41649563  0.55757967  1
  Se  Se131  1  0.74475111  0.73415740  0.05880158  1
  Se  Se132  1  0.74369267  0.74843701  0.54213461  1
  Se  Se133  1  0.24535270  0.24992823  0.05104785  1
  Se  Se134  1  0.25054315  0.24435317  0.55343358  1
  Se  Se135  1  0.25504334  0.58842629  0.06741098  1
  Se  Se136  1  0.24538003  0.58151858  0.54979737  1
  Se  Se137  1  0.27034922  0.93140553  0.05150489  1
  Se  Se138  1  0.24437684  0.91446857  0.55280480  1
  Se  Se139  1  0.57968267  0.24666145  0.05331471  1
  Se  Se140  1  0.58148550  0.24609737  0.55618631  1
  Se  Se141  1  0.57609744  0.57237886  0.05830719  1
  Se  Se142  1  0.59356827  0.59581197  0.55200360  1
  Se  Se143  1  0.58969445  0.91422037  0.05002093  1
  Se  Se144  1  0.58006746  0.92053132  0.55577038  1
  Se  Se145  1  0.92358782  0.24990911  0.06589039  1
  Se  Se146  1  0.91784185  0.24887238  0.54867435  1
  Se  Se147  1  0.92621869  0.59377467  0.05555636  1
  Se  Se148  1  0.92272211  0.59040530  0.55689929  1
  Se  Se149  1  0.92203030  0.92192634  0.06005615  1
  Se  Se150  1  0.91244899  0.91634158  0.55414395  1
  Se  Se151  1  0.08858340  0.24482805  0.44667565  1
  Se  Se152  1  0.08346706  0.24230296  0.94987070  1
  Se  Se153  1  0.08605287  0.58736099  0.44674172  1
  Se  Se154  1  0.08265448  0.59017828  0.93818135  1
  Se  Se155  1  0.08294780  0.91706318  0.44839375  1
  Se  Se156  1  0.08810642  0.91316353  0.94123741  1
  Se  Se157  1  0.42030365  0.24727819  0.44876653  1
  Se  Se158  1  0.41752458  0.25102157  0.94478364  1
  Se  Se159  1  0.41262885  0.58918502  0.44178443  1
  Se  Se160  1  0.42067502  0.58431738  0.95182198  1
  Se  Se161  1  0.41654387  0.91578242  0.45084367  1
  Se  Se162  1  0.44673671  0.89374336  0.94379175  1
  Se  Se163  1  0.75150618  0.24649944  0.45085612  1
  Se  Se164  1  0.73435086  0.24707244  0.93639609  1
  Se  Se165  1  0.74137635  0.58927283  0.43734447  1
  Se  Se166  1  0.74409664  0.59683109  0.93969020  1
  Se  Se167  1  0.74654299  0.92092562  0.45158593  1
  Se  Se168  1  0.75063720  0.92439867  0.93874295  1
  Se  Se169  1  0.25002021  0.08153005  0.44712453  1
  Se  Se170  1  0.22875845  0.09876740  0.93932506  1
  Se  Se171  1  0.25538587  0.41442525  0.44947857  1
  Se  Se172  1  0.25250129  0.40900385  0.93575034  1
  Se  Se173  1  0.24761927  0.75541973  0.44777929  1
  Se  Se174  1  0.25048569  0.74700242  0.95508998  1
  Se  Se175  1  0.58018309  0.08792407  0.44963891  1
  Se  Se176  1  0.58152065  0.08563223  0.93746471  1
  Se  Se177  1  0.58679405  0.41114281  0.44399725  1
  Se  Se178  1  0.58212212  0.41984825  0.94383818  1
  Se  Se179  1  0.56270053  0.76006057  0.44728792  1
  Se  Se180  1  0.59382580  0.74911134  0.95263180  1
  Se  Se181  1  0.91671189  0.08443708  0.45017496  1
  Se  Se182  1  0.92264982  0.07456234  0.94406769  1
  Se  Se183  1  0.92768713  0.40867866  0.43475525  1
  Se  Se184  1  0.91994425  0.40566089  0.93826005  1
  Se  Se185  1  0.91409546  0.75444099  0.44511290  1
  Se  Se186  1  0.92733843  0.75087456  0.93653677  1
  Se  Se187  1  0.24651118  0.23937425  0.30644699  1
  Se  Se188  1  0.24718332  0.23429542  0.80887824  1
  Se  Se189  1  0.25084546  0.59307841  0.30582698  1
  Se  Se190  1  0.24282140  0.58144810  0.80537237  1
  Se  Se191  1  0.24751050  0.91501443  0.31471778  1
  Se  Se192  1  0.25120583  0.90204390  0.81090671  1
  Se  Se193  1  0.58616978  0.24429991  0.30212044  1
  Se  Se194  1  0.59570335  0.26899918  0.79925501  1
  Se  Se195  1  0.58459483  0.58267574  0.30243379  1
  Se  Se196  1  0.57306210  0.59071232  0.81512112  1
  Se  Se197  1  0.58005919  0.90967515  0.31239337  1
  Se  Se198  1  0.58973262  0.91920772  0.80040444  1
  Se  Se199  1  0.91447631  0.24579683  0.31420614  1
  Se  Se200  1  0.90621227  0.23942798  0.81395529  1
  Se  Se201  1  0.91492797  0.58619143  0.30197975  1
  Se  Se202  1  0.91455026  0.57987810  0.79103866  1
  Se  Se203  1  0.91883013  0.91999784  0.30550860  1
  Se  Se204  1  0.91775993  0.92169485  0.79704313  1
  Se  Se205  1  0.08460535  0.08298525  0.30068425  1
  Se  Se206  1  0.07921218  0.07463328  0.79924278  1
  Se  Se207  1  0.09098712  0.42037479  0.31224471  1
  Se  Se208  1  0.08690620  0.42331097  0.80984696  1
  Se  Se209  1  0.08143944  0.75395728  0.30603980  1
  Se  Se210  1  0.06467423  0.72919404  0.80389165  1
  Se  Se211  1  0.42237707  0.08367220  0.30794849  1
  Se  Se212  1  0.41345752  0.07691789  0.80452966  1
  Se  Se213  1  0.42554390  0.42424453  0.31471321  1
  Se  Se214  1  0.41563920  0.42264262  0.81079072  1
  Se  Se215  1  0.41092761  0.74805665  0.30232979  1
  Se  Se216  1  0.41888944  0.76321558  0.81043302  1
  Se  Se217  1  0.75357051  0.08087248  0.31464511  1
  Se  Se218  1  0.75014607  0.08006188  0.79344730  1
  Se  Se219  1  0.74535236  0.40888818  0.29997126  1
  Se  Se220  1  0.76275919  0.43990244  0.80110024  1
  Se  Se221  1  0.74475295  0.75406798  0.30801285  1
  Se  Se222  1  0.76192419  0.76014375  0.81255105  1
  Se  Se223  1  0.24268333  0.09363487  0.18873776  1
  Se  Se224  1  0.25261776  0.07487359  0.69326522  1
  Se  Se225  1  0.24286007  0.42834326  0.19696453  1
  Se  Se226  1  0.24162055  0.42030193  0.69093894  1
  Se  Se227  1  0.25079086  0.75656182  0.19912412  1
  Se  Se228  1  0.23398616  0.76220561  0.69153006  1
  Se  Se229  1  0.57080436  0.07753769  0.18556448  1
  Se  Se230  1  0.58892988  0.07988934  0.69878307  1
  Se  Se231  1  0.58022117  0.40673893  0.19685194  1
  Se  Se232  1  0.58909878  0.41960732  0.70160422  1
  Se  Se233  1  0.58721541  0.74396156  0.19968943  1
  Se  Se234  1  0.58170477  0.75829074  0.69068843  1
  Se  Se235  1  0.91995832  0.07869546  0.20570767  1
  Se  Se236  1  0.91802495  0.08487875  0.69360309  1
  Se  Se237  1  0.90491333  0.42809361  0.18565359  1
  Se  Se238  1  0.91089118  0.41956010  0.68683355  1
  Se  Se239  1  0.91755431  0.75177010  0.19996836  1
  Se  Se240  1  0.91752330  0.75253826  0.69154483  1
  Se  Se241  1  0.09035729  0.24961336  0.19398658  1
  Se  Se242  1  0.08911172  0.24244832  0.69182181  1
  Se  Se243  1  0.07842406  0.59289731  0.20264401  1
  Se  Se244  1  0.08164896  0.58530863  0.68799342  1
  Se  Se245  1  0.08661662  0.92000481  0.19443387  1
  Se  Se246  1  0.07278996  0.92640196  0.69627234  1
  Se  Se247  1  0.41833426  0.24069341  0.18641479  1
  Se  Se248  1  0.42812196  0.23392582  0.69488650  1
  Se  Se249  1  0.41513811  0.58384345  0.20009293  1
  Se  Se250  1  0.42707089  0.57789625  0.69428193  1
  Se  Se251  1  0.42747687  0.90931861  0.19040728  1
  Se  Se252  1  0.41499907  0.91895124  0.69405447  1
  Se  Se253  1  0.74785501  0.24149474  0.20249663  1
  Se  Se254  1  0.74687607  0.25465776  0.69438396  1
  Se  Se255  1  0.74778905  0.58499386  0.20117266  1
  Se  Se256  1  0.75749211  0.58527836  0.68420860  1
  Se  Se257  1  0.75827887  0.90520514  0.18802894  1
  Se  Se258  1  0.74643653  0.91615753  0.69296320  1
