# generated using pymatgen
data_In86Cu29Se144
_symmetry_space_group_name_H-M   'P 1'
_cell_length_a   17.58497141
_cell_length_b   17.58668657
_cell_length_c   23.44724828
_cell_angle_alpha   89.99530186
_cell_angle_beta   90.01695527
_cell_angle_gamma   89.99548027
_symmetry_Int_Tables_number   1
_chemical_formula_structural   In86Cu29Se144
_chemical_formula_sum   'In86 Cu29 Se144'
_cell_volume   7251.32800792
_cell_formula_units_Z   1
loop_
 _symmetry_equiv_pos_site_id
 _symmetry_equiv_pos_as_xyz
  1  'x, y, z'
loop_
 _atom_site_type_symbol
 _atom_site_label
 _atom_site_symmetry_multiplicity
 _atom_site_fract_x
 _atom_site_fract_y
 _atom_site_fract_z
 _atom_site_occupancy
  In  In0  1  -0.00171801  0.16863358  0.12331627  1
  In  In1  1  -0.00036158  0.16601231  0.62335135  1
  In  In2  1  -0.01053880  0.48001532  0.10117781  1
  In  In3  1  0.00098777  0.48563655  0.63036150  1
  In  In4  1  0.00698876  0.83047263  0.12567858  1
  In  In5  1  0.01779761  0.83716884  0.62620960  1
  In  In6  1  0.33078678  0.18550422  0.13544933  1
  In  In7  1  0.33333114  0.16977035  0.61817355  1
  In  In8  1  0.32023975  0.48972195  0.11564285  1
  In  In9  1  0.33485264  0.50216881  0.62384659  1
  In  In10  1  0.32558937  0.82695026  0.12002840  1
  In  In11  1  0.32658497  0.82623601  0.62220296  1
  In  In12  1  0.67103289  0.15515144  0.12145335  1
  In  In13  1  0.65635617  0.14583182  0.60834194  1
  In  In14  1  0.66835100  0.50410396  0.11613056  1
  In  In15  1  0.66198150  0.51222417  0.63242456  1
  In  In16  1  0.65993679  0.84624730  0.11968697  1
  In  In17  1  0.65561514  0.84236081  0.63058856  1
  In  In18  1  0.15863649  0.01029882  0.38061566  1
  In  In19  1  0.15806757  0.01520980  0.88117658  1
  In  In20  1  0.16755901  0.33038698  0.37143443  1
  In  In21  1  0.15199538  0.34095426  0.88652742  1
  In  In22  1  0.17357162  0.65839477  0.38260945  1
  In  In23  1  0.17917983  0.65640504  0.87997873  1
  In  In24  1  0.49370792  0.00815705  0.39243478  1
  In  In25  1  0.49535933  -0.01281156  0.86888770  1
  In  In26  1  0.49599721  0.33653846  0.38317367  1
  In  In27  1  0.51118522  0.33766971  0.87491694  1
  In  In28  1  0.49562699  0.66934365  0.38388129  1
  In  In29  1  0.49852546  0.66796871  0.87024157  1
  In  In30  1  0.85190488  -0.00040194  0.37355743  1
  In  In31  1  0.84299759  0.00747299  0.86484571  1
  In  In32  1  0.83516379  0.32265649  0.37359733  1
  In  In33  1  0.85389094  0.32256278  0.89262178  1
  In  In34  1  0.82937079  0.67476572  0.37535508  1
  In  In35  1  0.82327486  0.66605074  0.87379082  1
  In  In36  1  0.00254036  0.16960243  0.37211786  1
  In  In37  1  0.00049372  0.16848672  0.87577590  1
  In  In38  1  0.01610849  0.50021254  0.37108184  1
  In  In39  1  0.02149209  0.48591358  0.89676209  1
  In  In40  1  -0.00074935  0.85210632  0.37360057  1
  In  In41  1  -0.00252825  0.84917035  0.87487572  1
  In  In42  1  0.32959486  0.17306820  0.37911838  1
  In  In43  1  0.32613202  0.15443414  0.87408428  1
  In  In44  1  0.33963512  0.49119013  0.37867228  1
  In  In45  1  0.31827669  0.51544685  0.87645303  1
  In  In46  1  0.33154639  0.83486687  0.38369702  1
  In  In47  1  0.34487757  0.83015903  0.87593066  1
  In  In48  1  0.66859334  0.16387587  0.39185704  1
  In  In49  1  0.67965076  0.17096180  0.87051438  1
  In  In50  1  0.66580105  0.48952058  0.37887253  1
  In  In51  1  0.65980913  0.50430997  0.88064778  1
  In  In52  1  0.66339529  0.83306826  0.38180468  1
  In  In53  1  0.65975823  0.82285867  0.86421511  1
  In  In54  1  0.15526087  -0.01197535  0.12018587  1
  In  In55  1  0.16236829  -0.00096444  0.62320228  1
  In  In56  1  0.16493074  0.33023766  0.12213014  1
  In  In57  1  0.16147638  0.32800815  0.62050658  1
  In  In58  1  0.14479304  0.65497822  0.10142748  1
  In  In59  1  0.17564481  0.67064634  0.62552087  1
  In  In60  1  0.50790475  -0.00275119  0.12359400  1
  In  In61  1  0.51754130  0.00546563  0.61269987  1
  In  In62  1  0.48341448  0.33294775  0.12706526  1
  In  In63  1  0.49199156  0.32785783  0.61866237  1
  In  In64  1  0.49738558  0.66633256  0.11850331  1
  In  In65  1  0.49655426  0.66595848  0.62649328  1
  In  In66  1  0.82977881  0.01545051  0.12352936  1
  In  In67  1  0.82206992  0.01255871  0.63109333  1
  In  In68  1  0.84419549  0.33742592  0.11476806  1
  In  In69  1  0.85106493  0.32622990  0.62983127  1
  In  In70  1  0.84842440  0.66017225  0.11693289  1
  In  In71  1  0.82642196  0.65481076  0.63475281  1
  In  In72  1  0.33002147  0.00464074  0.26148802  1
  In  In73  1  0.33154536  0.33243250  0.74454667  1
  In  In74  1  0.32817562  0.66488109  0.24290295  1
  In  In75  1  0.82949074  0.83282946  -0.00360453  1
  In  In76  1  0.83494731  0.83993442  0.50088177  1
  In  In77  1  0.00065103  0.66547086  0.75634908  1
  In  In78  1  0.66812181  0.32987175  0.25546745  1
  In  In79  1  0.66718609  0.67041165  0.26083139  1
  In  In80  1  0.66906969  0.00516076  0.25063246  1
  In  In81  1  0.33456392  -0.00289431  0.74407174  1
  In  In82  1  0.49761583  0.16690618  0.00371673  1
  In  In83  1  0.00323301  0.66516056  0.23871317  1
  In  In84  1  0.67254153  0.33138276  0.75236958  1
  In  In85  1  0.83383278  0.49459055  0.50794009  1
  Cu  Cu86  1  0.50223962  0.82857740  0.74690254  1
  Cu  Cu87  1  -0.00169702  0.00619599  -0.00197312  1
  Cu  Cu88  1  0.67069392  0.33733838  -0.00194084  1
  Cu  Cu89  1  0.32864514  -0.00152476  0.00090007  1
  Cu  Cu90  1  0.00411868  0.00686086  0.49994496  1
  Cu  Cu91  1  0.49580502  0.50532070  0.75140610  1
  Cu  Cu92  1  0.66060842  0.66867493  0.50641930  1
  Cu  Cu93  1  0.83538456  0.49306109  0.75874993  1
  Cu  Cu94  1  0.34385219  0.67430098  -0.00533179  1
  Cu  Cu95  1  0.66201886  -0.00318959  -0.00646119  1
  Cu  Cu96  1  0.16214705  0.16405589  0.25029965  1
  Cu  Cu97  1  0.01101786  0.66669884  0.50253269  1
  Cu  Cu98  1  0.84266573  0.17059759  0.24812589  1
  Cu  Cu99  1  0.83294337  0.83556599  0.75037882  1
  Cu  Cu100  1  0.32697260  0.33597889  0.49952029  1
  Cu  Cu101  1  0.49359405  0.48955935  0.25190068  1
  Cu  Cu102  1  0.16803973  0.48455528  0.24432451  1
  Cu  Cu103  1  0.33318358  0.66381711  0.50373462  1
  Cu  Cu104  1  0.84441388  0.50254711  0.23839352  1
  Cu  Cu105  1  0.33192397  0.33483213  0.00070845  1
  Cu  Cu106  1  0.33183431  -0.00590979  0.50424347  1
  Cu  Cu107  1  0.15757678  0.82937315  0.24807327  1
  Cu  Cu108  1  0.17020128  0.83703229  0.74952059  1
  Cu  Cu109  1  0.66330279  0.33507127  0.50332865  1
  Cu  Cu110  1  0.00635699  0.33105068  0.49903261  1
  Cu  Cu111  1  0.83676098  0.16636442  0.75026738  1
  Cu  Cu112  1  0.65766209  0.66899662  -0.00670029  1
  Cu  Cu113  1  0.15475809  0.17437025  0.75171316  1
  Cu  Cu114  1  0.49960425  0.83914143  0.25049885  1
  Se  Se115  1  0.08299557  0.08335679  0.05540536  1
  Se  Se116  1  0.08855600  0.08888915  0.55405188  1
  Se  Se117  1  0.10537066  0.42535753  0.04963939  1
  Se  Se118  1  0.08278427  0.41923771  0.55302213  1
  Se  Se119  1  0.07977701  0.76291764  0.04662481  1
  Se  Se120  1  0.09123337  0.75235408  0.55526387  1
  Se  Se121  1  0.40601315  0.07873054  0.06515415  1
  Se  Se122  1  0.41479142  0.08049658  0.55448492  1
  Se  Se123  1  0.41882613  0.41751788  0.05111415  1
  Se  Se124  1  0.41320070  0.41700329  0.55358278  1
  Se  Se125  1  0.42139025  0.75781606  0.05335696  1
  Se  Se126  1  0.41677637  0.74862728  0.55531930  1
  Se  Se127  1  0.74643508  0.08023947  0.04542081  1
  Se  Se128  1  0.76416339  0.08776115  0.54805070  1
  Se  Se129  1  0.75379046  0.42108242  0.05173009  1
  Se  Se130  1  0.74215228  0.40928322  0.56973989  1
  Se  Se131  1  0.73921179  0.74262974  0.05983678  1
  Se  Se132  1  0.75018320  0.74363567  0.56232252  1
  Se  Se133  1  0.25378746  0.24748572  0.05452504  1
  Se  Se134  1  0.24606826  0.24855519  0.55131011  1
  Se  Se135  1  0.26033034  0.59341527  0.05109218  1
  Se  Se136  1  0.24761177  0.58083348  0.55485040  1
  Se  Se137  1  0.24593145  0.91251876  0.05273184  1
  Se  Se138  1  0.24502154  0.91389274  0.55639734  1
  Se  Se139  1  0.59056580  0.25913069  0.06217495  1
  Se  Se140  1  0.57901353  0.24806649  0.55183720  1
  Se  Se141  1  0.57938112  0.58361153  0.05079194  1
  Se  Se142  1  0.57970641  0.58039268  0.55659116  1
  Se  Se143  1  0.57610615  0.91630486  0.04587863  1
  Se  Se144  1  0.58840000  0.90916307  0.54780419  1
  Se  Se145  1  0.90484965  0.23440864  0.05265106  1
  Se  Se146  1  0.91928018  0.24970964  0.55082350  1
  Se  Se147  1  0.92964326  0.59131951  0.04464620  1
  Se  Se148  1  0.92563322  0.59150348  0.56222931  1
  Se  Se149  1  0.91707988  0.92382861  0.05813466  1
  Se  Se150  1  0.92631976  0.92522833  0.56261322  1
  Se  Se151  1  0.08725297  0.24783959  0.44275482  1
  Se  Se152  1  0.09307872  0.23422568  0.94678936  1
  Se  Se153  1  0.08630678  0.57716320  0.44896166  1
  Se  Se154  1  0.08525635  0.59546068  0.95150673  1
  Se  Se155  1  0.08461081  0.91725258  0.44864396  1
  Se  Se156  1  0.08258103  0.92152929  0.94732114  1
  Se  Se157  1  0.41418111  0.25072131  0.45008261  1
  Se  Se158  1  0.41059368  0.25439855  0.93815692  1
  Se  Se159  1  0.41485717  0.58095207  0.44706012  1
  Se  Se160  1  0.41862978  0.58379438  0.94077762  1
  Se  Se161  1  0.41773285  0.91045033  0.45271344  1
  Se  Se162  1  0.41652288  0.92054963  0.94729256  1
  Se  Se163  1  0.75259404  0.25798775  0.45045930  1
  Se  Se164  1  0.74924330  0.24689903  0.94859958  1
  Se  Se165  1  0.74466027  0.59023213  0.44596515  1
  Se  Se166  1  0.74747322  0.58565466  0.94761001  1
  Se  Se167  1  0.74743403  0.93024102  0.44027238  1
  Se  Se168  1  0.74400839  0.92049746  0.93135133  1
  Se  Se169  1  0.25501425  0.07962022  0.44573557  1
  Se  Se170  1  0.24783219  0.08740158  0.95216751  1
  Se  Se171  1  0.24485941  0.41699250  0.44263862  1
  Se  Se172  1  0.25216390  0.41884162  0.94487114  1
  Se  Se173  1  0.25005678  0.74782864  0.44888403  1
  Se  Se174  1  0.25487203  0.75361204  0.94300105  1
  Se  Se175  1  0.58596641  0.08099628  0.45701105  1
  Se  Se176  1  0.58295147  0.08220517  0.93549494  1
  Se  Se177  1  0.58130428  0.42037675  0.45123420  1
  Se  Se178  1  0.58042135  0.41836041  0.95060297  1
  Se  Se179  1  0.58107467  0.75197164  0.44969429  1
  Se  Se180  1  0.57787567  0.75512934  0.94103988  1
  Se  Se181  1  0.92079493  0.08788741  0.44468501  1
  Se  Se182  1  0.91231610  0.08449776  0.94307408  1
  Se  Se183  1  0.92329638  0.41430387  0.44035279  1
  Se  Se184  1  0.91510784  0.42376871  0.95683979  1
  Se  Se185  1  0.92780681  0.74464003  0.44282992  1
  Se  Se186  1  0.92116163  0.74707625  0.93705709  1
  Se  Se187  1  0.24941907  0.24478668  0.30265220  1
  Se  Se188  1  0.24283451  0.24744071  0.81054596  1
  Se  Se189  1  0.24364166  0.57113295  0.30408605  1
  Se  Se190  1  0.24710454  0.58763450  0.79779673  1
  Se  Se191  1  0.23781928  0.90539298  0.31065218  1
  Se  Se192  1  0.24602301  0.91887096  0.81332102  1
  Se  Se193  1  0.58258654  0.24255071  0.31806598  1
  Se  Se194  1  0.57511022  0.23966797  0.80518051  1
  Se  Se195  1  0.57189728  0.57311945  0.31111195  1
  Se  Se196  1  0.58529036  0.58256773  0.80453204  1
  Se  Se197  1  0.57517828  0.91840997  0.31270140  1
  Se  Se198  1  0.58359520  0.91613982  0.79820449  1
  Se  Se199  1  0.92314916  0.25621988  0.30103528  1
  Se  Se200  1  0.91484943  0.25109007  0.80684937  1
  Se  Se201  1  0.91180495  0.58192173  0.30870850  1
  Se  Se202  1  0.91679307  0.57331020  0.81796077  1
  Se  Se203  1  0.91552686  0.91537238  0.29840572  1
  Se  Se204  1  0.92100686  0.91961890  0.79662034  1
  Se  Se205  1  0.07985597  0.07939658  0.30301718  1
  Se  Se206  1  0.07825673  0.08287020  0.80330482  1
  Se  Se207  1  0.08063871  0.40900361  0.29995679  1
  Se  Se208  1  0.08229677  0.42035959  0.81041137  1
  Se  Se209  1  0.08610163  0.74595853  0.31270092  1
  Se  Se210  1  0.09057717  0.75928954  0.81310574  1
  Se  Se211  1  0.42814000  0.09213461  0.31270226  1
  Se  Se212  1  0.42356770  0.08971909  0.80386371  1
  Se  Se213  1  0.41350415  0.40680230  0.30592598  1
  Se  Se214  1  0.41857320  0.42078425  0.81033922  1
  Se  Se215  1  0.41792493  0.75502737  0.30677604  1
  Se  Se216  1  0.41483561  0.74927358  0.79966794  1
  Se  Se217  1  0.75815606  0.09626368  0.31063394  1
  Se  Se218  1  0.74866505  0.08252165  0.79894096  1
  Se  Se219  1  0.76415754  0.42892115  0.30534203  1
  Se  Se220  1  0.75644247  0.41400894  0.82091388  1
  Se  Se221  1  0.76043907  0.77110680  0.30640530  1
  Se  Se222  1  0.75114607  0.74632235  0.79804819  1
  Se  Se223  1  0.24282723  0.08246208  0.19052148  1
  Se  Se224  1  0.24137608  0.09637904  0.69307991  1
  Se  Se225  1  0.25663537  0.40597162  0.19287739  1
  Se  Se226  1  0.23900571  0.42234348  0.69007585  1
  Se  Se227  1  0.22945514  0.74665323  0.18526073  1
  Se  Se228  1  0.25238078  0.75055859  0.70014583  1
  Se  Se229  1  0.57262189  0.09501598  0.19480696  1
  Se  Se230  1  0.58699700  0.08071390  0.69123654  1
  Se  Se231  1  0.58422246  0.42223133  0.19127418  1
  Se  Se232  1  0.57238232  0.41742726  0.69370624  1
  Se  Se233  1  0.57866743  0.75590574  0.19298541  1
  Se  Se234  1  0.58693876  0.74327530  0.69501735  1
  Se  Se235  1  0.91939849  0.08195717  0.19516566  1
  Se  Se236  1  0.92004318  0.08324019  0.69537860  1
  Se  Se237  1  0.92419701  0.41574237  0.18824636  1
  Se  Se238  1  0.91845376  0.41274460  0.70404271  1
  Se  Se239  1  0.90393646  0.75820693  0.19105434  1
  Se  Se240  1  0.91416811  0.75588362  0.68930786  1
  Se  Se241  1  0.08370682  0.24857793  0.19308830  1
  Se  Se242  1  0.07611294  0.25570707  0.69357732  1
  Se  Se243  1  0.08939249  0.56787156  0.18439411  1
  Se  Se244  1  0.08681771  0.58060833  0.69098713  1
  Se  Se245  1  0.07662427  0.91785492  0.19882178  1
  Se  Se246  1  0.08613966  0.92266718  0.70056286  1
  Se  Se247  1  0.42718337  0.24609375  0.20347245  1
  Se  Se248  1  0.42543589  0.23677609  0.69390571  1
  Se  Se249  1  0.42159757  0.57219216  0.18859667  1
  Se  Se250  1  0.41192283  0.58471678  0.69612827  1
  Se  Se251  1  0.41412698  0.91430448  0.19207089  1
  Se  Se252  1  0.42560987  0.91040981  0.68417195  1
  Se  Se253  1  0.75548980  0.24522568  0.18894880  1
  Se  Se254  1  0.75337632  0.24104316  0.68733412  1
  Se  Se255  1  0.75432255  0.58486352  0.19130718  1
  Se  Se256  1  0.74943924  0.57641660  0.70828687  1
  Se  Se257  1  0.75503262  0.91278159  0.18969206  1
  Se  Se258  1  0.74900902  0.91726615  0.69573682  1
