# generated using pymatgen
data_In86Cu29Se144
_symmetry_space_group_name_H-M   'P 1'
_cell_length_a   17.56872375
_cell_length_b   17.57036692
_cell_length_c   23.42924700
_cell_angle_alpha   89.99981852
_cell_angle_beta   89.98165317
_cell_angle_gamma   90.00472006
_symmetry_Int_Tables_number   1
_chemical_formula_structural   In86Cu29Se144
_chemical_formula_sum   'In86 Cu29 Se144'
_cell_volume   7232.34861730
_cell_formula_units_Z   1
loop_
 _symmetry_equiv_pos_site_id
 _symmetry_equiv_pos_as_xyz
  1  'x, y, z'
loop_
 _atom_site_type_symbol
 _atom_site_label
 _atom_site_symmetry_multiplicity
 _atom_site_fract_x
 _atom_site_fract_y
 _atom_site_fract_z
 _atom_site_occupancy
  In  In0  1  -0.00705263  0.15889297  0.11904423  1
  In  In1  1  0.00049984  0.17542370  0.61773682  1
  In  In2  1  0.01275200  0.50408136  0.11667101  1
  In  In3  1  0.00820288  0.49621317  0.63061081  1
  In  In4  1  -0.00456559  0.82752280  0.11482738  1
  In  In5  1  -0.01065254  0.83286972  0.63586968  1
  In  In6  1  0.33365948  0.16984721  0.13719610  1
  In  In7  1  0.32939373  0.15885234  0.61492213  1
  In  In8  1  0.33488152  0.49099193  0.12721139  1
  In  In9  1  0.32381770  0.51078786  0.62100850  1
  In  In10  1  0.33255259  0.83619850  0.11895809  1
  In  In11  1  0.34913853  0.84432299  0.62342982  1
  In  In12  1  0.67076729  0.16016164  0.14025547  1
  In  In13  1  0.66626730  0.16286832  0.62084869  1
  In  In14  1  0.65678492  0.49009887  0.11447030  1
  In  In15  1  0.66935384  0.49441039  0.63820299  1
  In  In16  1  0.66759359  0.83795791  0.11245086  1
  In  In17  1  0.65274804  0.84718603  0.64294170  1
  In  In18  1  0.18434426  0.00919532  0.36985654  1
  In  In19  1  0.17240325  -0.00621984  0.88384719  1
  In  In20  1  0.16870496  0.33394587  0.37873488  1
  In  In21  1  0.16383047  0.33344379  0.88611567  1
  In  In22  1  0.17663942  0.65677053  0.37589535  1
  In  In23  1  0.17007537  0.67901600  0.88673003  1
  In  In24  1  0.50927219  0.00873038  0.35687626  1
  In  In25  1  0.49291220  0.00325402  0.86645909  1
  In  In26  1  0.48255373  0.30036617  0.34735420  1
  In  In27  1  0.51446233  0.33341951  0.87475929  1
  In  In28  1  0.48734943  0.67674912  0.36985099  1
  In  In29  1  0.50633998  0.65926481  0.89316290  1
  In  In30  1  0.82741784  0.02625913  0.36989956  1
  In  In31  1  0.81907755  0.01417595  0.88518137  1
  In  In32  1  0.81230610  0.31624819  0.35992220  1
  In  In33  1  0.82372535  0.34242177  0.88521172  1
  In  In34  1  0.82987677  0.65839071  0.37027503  1
  In  In35  1  0.83132224  0.66634037  0.87895090  1
  In  In36  1  -0.00166676  0.17697332  0.38063225  1
  In  In37  1  -0.00066643  0.16799684  0.88331818  1
  In  In38  1  0.01123224  0.50592956  0.37418546  1
  In  In39  1  -0.01049134  0.50967734  0.88270648  1
  In  In40  1  -0.00745490  0.83091796  0.37294412  1
  In  In41  1  0.00876389  0.82018429  0.87867684  1
  In  In42  1  0.32814808  0.16392479  0.37566122  1
  In  In43  1  0.33978280  0.14955041  0.87533937  1
  In  In44  1  0.31955351  0.48457194  0.35800669  1
  In  In45  1  0.32652878  0.51467744  0.90009313  1
  In  In46  1  0.35754084  0.84537916  0.34464594  1
  In  In47  1  0.32897210  0.84238337  0.88822928  1
  In  In48  1  0.66620376  0.16269862  0.36987626  1
  In  In49  1  0.66422898  0.17842984  0.86357035  1
  In  In50  1  0.67324472  0.48707642  0.37561510  1
  In  In51  1  0.66332558  0.50092043  0.88232333  1
  In  In52  1  0.64575855  0.85241260  0.36887047  1
  In  In53  1  0.66810207  0.83792797  0.88169897  1
  In  In54  1  0.17811882  0.01177774  0.11943410  1
  In  In55  1  0.17315548  0.00797422  0.62151107  1
  In  In56  1  0.18114769  0.33948810  0.12152867  1
  In  In57  1  0.17102940  0.33600463  0.61560779  1
  In  In58  1  0.18303776  0.66328441  0.11183915  1
  In  In59  1  0.16774863  0.65492492  0.62807668  1
  In  In60  1  0.51098098  -0.01425145  0.14377072  1
  In  In61  1  0.48811006  0.01931611  0.64918592  1
  In  In62  1  0.49549400  0.33117628  0.14272561  1
  In  In63  1  0.51527016  0.32906457  0.62751707  1
  In  In64  1  0.47990303  0.66393465  0.10572209  1
  In  In65  1  0.49869080  0.67631001  0.63138398  1
  In  In66  1  0.82462151  -0.00363493  0.11920125  1
  In  In67  1  0.82083306  0.00464217  0.62636456  1
  In  In68  1  0.82049578  0.32013988  0.11703365  1
  In  In69  1  0.82714342  0.32424446  0.62231988  1
  In  In70  1  0.83581098  0.66663657  0.11225405  1
  In  In71  1  0.82990696  0.66951764  0.64365709  1
  In  In72  1  0.49698832  0.84541596  0.49066693  1
  In  In73  1  0.49835293  0.16756128  0.00729117  1
  In  In74  1  0.65573179  0.66649133  0.23931434  1
  In  In75  1  0.00432149  0.33588694  0.25151486  1
  In  In76  1  0.83036203  0.83581720  0.50917031  1
  In  In77  1  -0.00237748  -0.00314781  0.75341916  1
  In  In78  1  0.34115907  0.33641008  0.75446923  1
  In  In79  1  0.16907701  0.83603662  0.49786995  1
  In  In80  1  -0.00262476  -0.00332852  0.23906621  1
  In  In81  1  0.33527636  0.67188653  0.75567165  1
  In  In82  1  -0.00610252  0.33353457  0.74605610  1
  In  In83  1  0.49721393  0.49101862  0.49774061  1
  In  In84  1  0.01387650  0.66825831  0.22944425  1
  In  In85  1  0.84429163  0.48710157  0.50082196  1
  Cu  Cu86  1  0.66077094  0.31847227  0.49290156  1
  Cu  Cu87  1  0.17544965  0.16224840  0.74974791  1
  Cu  Cu88  1  0.50393104  0.50569232  0.24165654  1
  Cu  Cu89  1  0.15894686  0.50415823  0.75516653  1
  Cu  Cu90  1  0.66446674  0.33231404  0.00079408  1
  Cu  Cu91  1  0.66679090  0.00627297  0.49756383  1
  Cu  Cu92  1  0.33726987  0.32859598  0.01025215  1
  Cu  Cu93  1  0.81508345  0.84109725  0.24540622  1
  Cu  Cu94  1  0.00136949  0.33955600  0.49847818  1
  Cu  Cu95  1  0.84228387  0.49989364  0.23850234  1
  Cu  Cu96  1  0.32445887  0.66484544  0.49256210  1
  Cu  Cu97  1  0.17659493  0.83376954  0.75871340  1
  Cu  Cu98  1  0.00059991  -0.00569506  -0.00169446  1
  Cu  Cu99  1  0.50741591  0.83010302  0.75840143  1
  Cu  Cu100  1  0.50367969  0.50072706  0.76203981  1
  Cu  Cu101  1  0.16368868  0.16956320  0.25062490  1
  Cu  Cu102  1  0.00316567  0.32809214  0.00547582  1
  Cu  Cu103  1  0.82274270  0.50374064  0.76250019  1
  Cu  Cu104  1  0.67132242  0.66902821  -0.00248947  1
  Cu  Cu105  1  0.65868368  0.00792900  0.00452246  1
  Cu  Cu106  1  0.82603747  0.17175547  0.74975863  1
  Cu  Cu107  1  0.17115375  0.82672116  0.24284903  1
  Cu  Cu108  1  0.66414845  0.66546911  0.50874680  1
  Cu  Cu109  1  0.00088784  0.66072449  -0.00173327  1
  Cu  Cu110  1  0.33390788  0.00334212  0.00435840  1
  Cu  Cu111  1  0.00501385  0.66080924  0.50362515  1
  Cu  Cu112  1  0.33654056  0.33183829  0.49123453  1
  Cu  Cu113  1  0.83732618  0.82715226  0.76183555  1
  Cu  Cu114  1  0.00651488  0.01076797  0.49640479  1
  Se  Se115  1  0.08143935  0.08019495  0.05262056  1
  Se  Se116  1  0.08745436  0.08959328  0.55507320  1
  Se  Se117  1  0.09133809  0.41298017  0.05192161  1
  Se  Se118  1  0.08282384  0.42267042  0.55324771  1
  Se  Se119  1  0.08392089  0.74379189  0.05247265  1
  Se  Se120  1  0.07627847  0.75014235  0.56314749  1
  Se  Se121  1  0.41410334  0.07611441  0.06817473  1
  Se  Se122  1  0.42531317  0.07334641  0.55992248  1
  Se  Se123  1  0.42677362  0.40617466  0.06252438  1
  Se  Se124  1  0.40606478  0.40793716  0.56378621  1
  Se  Se125  1  0.40014702  0.75338303  0.04003187  1
  Se  Se126  1  0.41104839  0.74198962  0.55151441  1
  Se  Se127  1  0.74276147  0.09095459  0.05777092  1
  Se  Se128  1  0.75592534  0.08701870  0.54935920  1
  Se  Se129  1  0.75278028  0.41703363  0.04945189  1
  Se  Se130  1  0.73399886  0.40903985  0.55351534  1
  Se  Se131  1  0.75564222  0.75525975  0.04756895  1
  Se  Se132  1  0.73922642  0.74738867  0.56988782  1
  Se  Se133  1  0.25422330  0.23930913  0.05887997  1
  Se  Se134  1  0.25248761  0.25147854  0.54953553  1
  Se  Se135  1  0.25205448  0.56243978  0.05160143  1
  Se  Se136  1  0.24151949  0.58418634  0.54783809  1
  Se  Se137  1  0.24429515  0.91733500  0.05007997  1
  Se  Se138  1  0.26432111  0.92535551  0.55313265  1
  Se  Se139  1  0.58903156  0.25530827  0.06706511  1
  Se  Se140  1  0.57792906  0.24210769  0.55182515  1
  Se  Se141  1  0.58619140  0.58802100  0.05120020  1
  Se  Se142  1  0.58312331  0.58231501  0.56460487  1
  Se  Se143  1  0.57248035  0.92388814  0.05448438  1
  Se  Se144  1  0.58898718  0.92185702  0.55765456  1
  Se  Se145  1  0.91289684  0.24429840  0.05109488  1
  Se  Se146  1  0.91544001  0.25669215  0.54992898  1
  Se  Se147  1  0.91750344  0.57561586  0.05035777  1
  Se  Se148  1  0.91747797  0.58856175  0.56532434  1
  Se  Se149  1  0.91233612  0.91592932  0.05214804  1
  Se  Se150  1  0.92890719  0.93062718  0.56071315  1
  Se  Se151  1  0.08622075  0.25268074  0.44858697  1
  Se  Se152  1  0.08690739  0.24343950  0.95202209  1
  Se  Se153  1  0.08927875  0.58274017  0.44816430  1
  Se  Se154  1  0.08916980  0.58140066  0.94508745  1
  Se  Se155  1  0.07647713  0.92483009  0.43507367  1
  Se  Se156  1  0.08527900  0.90969000  0.94693932  1
  Se  Se157  1  0.42015442  0.24880626  0.43973123  1
  Se  Se158  1  0.41160258  0.25551154  0.93992268  1
  Se  Se159  1  0.41035018  0.58373435  0.43772859  1
  Se  Se160  1  0.42236827  0.58324638  0.96343353  1
  Se  Se161  1  0.40852605  0.93117134  0.42824794  1
  Se  Se162  1  0.42152023  0.92892878  0.94628295  1
  Se  Se163  1  0.75352232  0.24073986  0.44366019  1
  Se  Se164  1  0.74165874  0.24622970  0.94373715  1
  Se  Se165  1  0.74571526  0.58513900  0.44826987  1
  Se  Se166  1  0.75345329  0.57963761  0.94859699  1
  Se  Se167  1  0.74640387  0.92059590  0.43912178  1
  Se  Se168  1  0.74553136  0.92384361  0.95330071  1
  Se  Se169  1  0.24801251  0.08511883  0.44858296  1
  Se  Se170  1  0.25077883  0.08546870  0.94942713  1
  Se  Se171  1  0.25313736  0.42154067  0.44485297  1
  Se  Se172  1  0.25227006  0.40933427  0.95414211  1
  Se  Se173  1  0.26203288  0.75840342  0.43193103  1
  Se  Se174  1  0.27022724  0.74017758  0.95455790  1
  Se  Se175  1  0.58091220  0.08028536  0.43899001  1
  Se  Se176  1  0.58470334  0.08620988  0.93874370  1
  Se  Se177  1  0.58003705  0.40094632  0.43457419  1
  Se  Se178  1  0.57931157  0.41705142  0.95150795  1
  Se  Se179  1  0.59092220  0.74273820  0.44099623  1
  Se  Se180  1  0.58442261  0.75780075  0.95228019  1
  Se  Se181  1  0.91579668  0.08796048  0.44504877  1
  Se  Se182  1  0.91709964  0.08372164  0.94983659  1
  Se  Se183  1  0.92135124  0.40563002  0.42658835  1
  Se  Se184  1  0.92174061  0.41173284  0.94894459  1
  Se  Se185  1  0.91821731  0.73727695  0.44575303  1
  Se  Se186  1  0.91770702  0.74772571  0.94707515  1
  Se  Se187  1  0.24524142  0.25088220  0.30738123  1
  Se  Se188  1  0.24562841  0.24745783  0.81300239  1
  Se  Se189  1  0.26328213  0.59647550  0.30092484  1
  Se  Se190  1  0.24655781  0.57770709  0.81329598  1
  Se  Se191  1  0.24582518  0.91753928  0.29629919  1
  Se  Se192  1  0.25615122  0.91993098  0.80995671  1
  Se  Se193  1  0.61744158  0.27745935  0.30935192  1
  Se  Se194  1  0.56614237  0.24455198  0.79761243  1
  Se  Se195  1  0.58034612  0.57674120  0.31292182  1
  Se  Se196  1  0.58261439  0.58867318  0.81376907  1
  Se  Se197  1  0.55820492  0.89987330  0.29045415  1
  Se  Se198  1  0.58786845  0.91851432  0.80860894  1
  Se  Se199  1  0.91081570  0.23535159  0.29896522  1
  Se  Se200  1  0.90874106  0.24695291  0.81110748  1
  Se  Se201  1  0.92125596  0.58257611  0.29843142  1
  Se  Se202  1  0.91498025  0.58541998  0.80644196  1
  Se  Se203  1  0.90415107  0.91244711  0.30563567  1
  Se  Se204  1  0.91154482  0.91531118  0.82066575  1
  Se  Se205  1  0.07975028  0.08797628  0.30747492  1
  Se  Se206  1  0.08931648  0.08901626  0.81047717  1
  Se  Se207  1  0.09864555  0.42975144  0.30312489  1
  Se  Se208  1  0.08217791  0.41824913  0.81185381  1
  Se  Se209  1  0.08672823  0.75464787  0.30615667  1
  Se  Se210  1  0.09303936  0.74608989  0.80553165  1
  Se  Se211  1  0.42317611  0.10417125  0.30102694  1
  Se  Se212  1  0.42294904  0.09387924  0.79637098  1
  Se  Se213  1  0.42397558  0.41940440  0.29764097  1
  Se  Se214  1  0.41451599  0.43165970  0.82216520  1
  Se  Se215  1  0.42163275  0.74086191  0.28559411  1
  Se  Se216  1  0.42369361  0.75389312  0.82009270  1
  Se  Se217  1  0.72434515  0.06215047  0.29919521  1
  Se  Se218  1  0.74828531  0.08366458  0.80340929  1
  Se  Se219  1  0.75780115  0.42614333  0.29777001  1
  Se  Se220  1  0.74184031  0.41411094  0.81020683  1
  Se  Se221  1  0.74459870  0.75367375  0.30815985  1
  Se  Se222  1  0.74636041  0.74985169  0.81205227  1
  Se  Se223  1  0.24718225  0.08213635  0.20149976  1
  Se  Se224  1  0.25652851  0.08091976  0.69480886  1
  Se  Se225  1  0.26911130  0.39624732  0.19799393  1
  Se  Se226  1  0.24179967  0.42568003  0.69464167  1
  Se  Se227  1  0.25291105  0.74574790  0.18776864  1
  Se  Se228  1  0.24933020  0.75857061  0.68724726  1
  Se  Se229  1  0.56075793  0.10323248  0.19982146  1
  Se  Se230  1  0.61772409  0.05602287  0.68896785  1
  Se  Se231  1  0.59201481  0.41875838  0.19811408  1
  Se  Se232  1  0.57972022  0.41556588  0.70357664  1
  Se  Se233  1  0.57234292  0.75131922  0.17363450  1
  Se  Se234  1  0.58569416  0.74261782  0.70448303  1
  Se  Se235  1  0.90020337  0.08943479  0.19207174  1
  Se  Se236  1  0.91434465  0.09481505  0.69219871  1
  Se  Se237  1  0.91913825  0.41716243  0.18058318  1
  Se  Se238  1  0.89836695  0.42713586  0.69267365  1
  Se  Se239  1  0.90187028  0.75876731  0.19142029  1
  Se  Se240  1  0.92332143  0.74565391  0.70904378  1
  Se  Se241  1  0.08570588  0.24403141  0.18582094  1
  Se  Se242  1  0.09535366  0.24587185  0.69218535  1
  Se  Se243  1  0.10864071  0.56906002  0.18869654  1
  Se  Se244  1  0.07814172  0.58816309  0.70072682  1
  Se  Se245  1  0.09018386  0.90641390  0.18277590  1
  Se  Se246  1  0.09582314  0.91084365  0.69353862  1
  Se  Se247  1  0.43606129  0.22549642  0.20765113  1
  Se  Se248  1  0.41597122  0.24716941  0.68581005  1
  Se  Se249  1  0.41934058  0.58495639  0.18832456  1
  Se  Se250  1  0.42227525  0.57342045  0.69570446  1
  Se  Se251  1  0.39488841  0.92707674  0.19355352  1
  Se  Se252  1  0.41915840  0.91062268  0.70548095  1
  Se  Se253  1  0.75084299  0.25665592  0.19987552  1
  Se  Se254  1  0.74261329  0.25190981  0.69369589  1
  Se  Se255  1  0.75567367  0.57997146  0.18345101  1
  Se  Se256  1  0.74007796  0.58715020  0.70600664  1
  Se  Se257  1  0.73550072  0.92233894  0.19021157  1
  Se  Se258  1  0.76354187  0.91026890  0.69962337  1
