# generated using pymatgen
data_In86Cu29Se144
_symmetry_space_group_name_H-M   'P 1'
_cell_length_a   17.58837151
_cell_length_b   17.57980890
_cell_length_c   23.44513191
_cell_angle_alpha   90.00972379
_cell_angle_beta   90.04128493
_cell_angle_gamma   90.00711819
_symmetry_Int_Tables_number   1
_chemical_formula_structural   In86Cu29Se144
_chemical_formula_sum   'In86 Cu29 Se144'
_cell_volume   7249.23766882
_cell_formula_units_Z   1
loop_
 _symmetry_equiv_pos_site_id
 _symmetry_equiv_pos_as_xyz
  1  'x, y, z'
loop_
 _atom_site_type_symbol
 _atom_site_label
 _atom_site_symmetry_multiplicity
 _atom_site_fract_x
 _atom_site_fract_y
 _atom_site_fract_z
 _atom_site_occupancy
  In  In0  1  0.02666144  0.19762061  0.09480792  1
  In  In1  1  0.00209564  0.17050034  0.62308263  1
  In  In2  1  0.01446693  0.48587420  0.13261660  1
  In  In3  1  -0.00047548  0.50104579  0.62526733  1
  In  In4  1  -0.01075005  0.83272398  0.12463072  1
  In  In5  1  -0.00392617  0.84216255  0.63160726  1
  In  In6  1  0.32486587  0.18597748  0.14309129  1
  In  In7  1  0.32888562  0.16983223  0.60629037  1
  In  In8  1  0.32370825  0.48665723  0.12138899  1
  In  In9  1  0.32957292  0.51173491  0.61888560  1
  In  In10  1  0.34750250  0.83118877  0.12799470  1
  In  In11  1  0.32311049  0.83030372  0.62863108  1
  In  In12  1  0.67616924  0.16759384  0.12714735  1
  In  In13  1  0.68066663  0.18059396  0.61474520  1
  In  In14  1  0.66402965  0.50804379  0.13396998  1
  In  In15  1  0.66490582  0.48767741  0.62296112  1
  In  In16  1  0.65556322  0.83879353  0.12478757  1
  In  In17  1  0.67380670  0.81984032  0.62239971  1
  In  In18  1  0.18343355  0.00625572  0.36820082  1
  In  In19  1  0.15722217  0.01447300  0.88071365  1
  In  In20  1  0.16229723  0.33656794  0.37998119  1
  In  In21  1  0.15300591  0.34198352  0.88829392  1
  In  In22  1  0.15576896  0.66683023  0.37809851  1
  In  In23  1  0.15885863  0.65596138  0.86726009  1
  In  In24  1  0.50371319  0.02286563  0.36681767  1
  In  In25  1  0.48678881  -0.00701955  0.87840227  1
  In  In26  1  0.48670007  0.30913173  0.35151711  1
  In  In27  1  0.51382459  0.33283347  0.87630654  1
  In  In28  1  0.50465423  0.65291455  0.37438149  1
  In  In29  1  0.48647787  0.66993697  0.88194526  1
  In  In30  1  0.83606975  -0.00100402  0.38449458  1
  In  In31  1  0.84844020  0.00332112  0.87242611  1
  In  In32  1  0.83435373  0.33663468  0.37400498  1
  In  In33  1  0.83532282  0.32522641  0.87127370  1
  In  In34  1  0.83157008  0.65796266  0.38107070  1
  In  In35  1  0.83649578  0.65447589  0.86988456  1
  In  In36  1  -0.01216597  0.18080939  0.38217018  1
  In  In37  1  0.00002190  0.16827517  0.87319273  1
  In  In38  1  -0.00076636  0.49863241  0.37862754  1
  In  In39  1  0.00197255  0.49739194  0.86926331  1
  In  In40  1  0.00010934  0.81831758  0.37616863  1
  In  In41  1  0.00082808  0.83205126  0.86559001  1
  In  In42  1  0.33192631  0.17474327  0.37778099  1
  In  In43  1  0.32312369  0.15510324  0.87688330  1
  In  In44  1  0.33966157  0.47819887  0.38606789  1
  In  In45  1  0.32291342  0.50608890  0.88195716  1
  In  In46  1  0.32344617  0.83937717  0.37256962  1
  In  In47  1  0.34496385  0.82480957  0.87553545  1
  In  In48  1  0.65928954  0.17971242  0.38080453  1
  In  In49  1  0.66981078  0.18417427  0.87241697  1
  In  In50  1  0.67292720  0.50354497  0.37188490  1
  In  In51  1  0.67169326  0.48659645  0.87725777  1
  In  In52  1  0.68065357  0.82702002  0.38198108  1
  In  In53  1  0.65529841  0.82055777  0.87581050  1
  In  In54  1  0.16298949  0.03044828  0.12215838  1
  In  In55  1  0.15814080  0.00128753  0.62547624  1
  In  In56  1  0.16757008  0.33753271  0.12708140  1
  In  In57  1  0.15980825  0.32359760  0.61265325  1
  In  In58  1  0.16489457  0.64800484  0.12535927  1
  In  In59  1  0.17419389  0.65401514  0.62993700  1
  In  In60  1  0.50399288  -0.00645644  0.12519901  1
  In  In61  1  0.48804041  0.00649818  0.62539680  1
  In  In62  1  0.49064429  0.34053387  0.13668408  1
  In  In63  1  0.51518428  0.33954356  0.62428765  1
  In  In64  1  0.50632749  0.67213073  0.12472253  1
  In  In65  1  0.49503140  0.66213251  0.62952494  1
  In  In66  1  0.82749701  0.00997932  0.12167131  1
  In  In67  1  0.84403224  0.01250417  0.61530857  1
  In  In68  1  0.84411942  0.32546863  0.13456903  1
  In  In69  1  0.83631333  0.33756671  0.62219849  1
  In  In70  1  0.84281721  0.65775368  0.13575694  1
  In  In71  1  0.83832240  0.67878946  0.61367411  1
  In  In72  1  0.66867879  0.00179497  0.24726487  1
  In  In73  1  0.83906167  0.49294763  -0.00186322  1
  In  In74  1  0.49970080  0.83568897  0.50590187  1
  In  In75  1  0.82460773  0.83496375  0.00022322  1
  In  In76  1  0.33256598  0.33413053  0.74798376  1
  In  In77  1  0.16919982  0.83562446  -0.00642680  1
  In  In78  1  0.66721837  0.66120871  0.74417953  1
  In  In79  1  0.50614835  0.49468376  0.49763328  1
  In  In80  1  0.49563034  0.16568895  0.00303106  1
  In  In81  1  0.32451797  -0.00480142  0.75330083  1
  In  In82  1  0.66742113  -0.00146653  0.75469916  1
  In  In83  1  -0.00008316  0.00545404  0.24295068  1
  In  In84  1  0.16264604  0.83425943  0.50016381  1
  In  In85  1  0.33204956  0.66137136  0.25326490  1
  Cu  Cu86  1  0.83483405  0.17004775  0.25141238  1
  Cu  Cu87  1  0.16430444  0.83448654  0.25080958  1
  Cu  Cu88  1  0.66772866  0.00299458  0.49641428  1
  Cu  Cu89  1  0.65817600  0.66675413  0.00583844  1
  Cu  Cu90  1  0.33724813  0.65732843  0.00527658  1
  Cu  Cu91  1  0.33828287  0.01000958  0.49295831  1
  Cu  Cu92  1  0.16359695  0.49644201  0.74995892  1
  Cu  Cu93  1  0.16490451  0.82706806  0.75137503  1
  Cu  Cu94  1  0.33325352  0.33042923  0.00723245  1
  Cu  Cu95  1  0.33184880  -0.00259150  0.00450195  1
  Cu  Cu96  1  0.84002874  0.49432098  0.74840469  1
  Cu  Cu97  1  0.00599802  0.00396858  0.50085423  1
  Cu  Cu98  1  0.50234939  0.49782408  0.25232428  1
  Cu  Cu99  1  0.66751966  0.33455821  0.49381685  1
  Cu  Cu100  1  -0.00290365  0.66414274  0.50127303  1
  Cu  Cu101  1  -0.00420687  0.33673981  0.50086494  1
  Cu  Cu102  1  0.83610446  0.50149301  0.25606268  1
  Cu  Cu103  1  0.16337548  0.49544530  0.25424953  1
  Cu  Cu104  1  0.00499946  0.66235999  -0.00478097  1
  Cu  Cu105  1  0.50569650  0.17146725  0.74443291  1
  Cu  Cu106  1  0.66173117  0.00024306  0.00050231  1
  Cu  Cu107  1  0.16229337  0.17604107  0.25219883  1
  Cu  Cu108  1  0.50670997  0.83310189  0.24909877  1
  Cu  Cu109  1  0.66654087  0.33907895  0.00242601  1
  Cu  Cu110  1  0.83660665  0.82175556  0.25538851  1
  Cu  Cu111  1  0.83821958  0.83504517  0.74369881  1
  Cu  Cu112  1  0.16034405  0.16998246  0.74922366  1
  Cu  Cu113  1  0.84192762  0.17244525  0.74037175  1
  Cu  Cu114  1  0.50051186  0.50067589  0.74938012  1
  Se  Se115  1  0.06988344  0.07333977  0.04604213  1
  Se  Se116  1  0.08851092  0.08775028  0.55362149  1
  Se  Se117  1  0.08601999  0.41549507  0.05446661  1
  Se  Se118  1  0.08030262  0.42036110  0.55335803  1
  Se  Se119  1  0.07989300  0.74519461  0.05756945  1
  Se  Se120  1  0.07707050  0.74569000  0.56319248  1
  Se  Se121  1  0.40607643  0.08186213  0.06660581  1
  Se  Se122  1  0.42474364  0.08809888  0.54759048  1
  Se  Se123  1  0.42037596  0.41393880  0.05609448  1
  Se  Se124  1  0.41330947  0.41101416  0.56068204  1
  Se  Se125  1  0.41751488  0.74730746  0.05442921  1
  Se  Se126  1  0.40526534  0.74309812  0.55885449  1
  Se  Se127  1  0.74449192  0.08589173  0.04989777  1
  Se  Se128  1  0.75332203  0.08717649  0.54858040  1
  Se  Se129  1  0.74781110  0.41479885  0.06514179  1
  Se  Se130  1  0.74951128  0.41594425  0.55050073  1
  Se  Se131  1  0.74608100  0.73971975  0.06509877  1
  Se  Se132  1  0.74579239  0.74847379  0.54540500  1
  Se  Se133  1  0.25039948  0.24753253  0.05986459  1
  Se  Se134  1  0.25368791  0.25976722  0.54254349  1
  Se  Se135  1  0.24717519  0.57591462  0.05248227  1
  Se  Se136  1  0.24400930  0.58569573  0.54889982  1
  Se  Se137  1  0.25079429  0.91871484  0.06618929  1
  Se  Se138  1  0.25944381  0.92854775  0.55535359  1
  Se  Se139  1  0.58584916  0.25651642  0.06154215  1
  Se  Se140  1  0.58370083  0.25341735  0.55039060  1
  Se  Se141  1  0.58046682  0.57804495  0.05821113  1
  Se  Se142  1  0.58898207  0.59056283  0.56039441  1
  Se  Se143  1  0.57823357  0.91434684  0.04930085  1
  Se  Se144  1  0.59218165  0.92781065  0.56405962  1
  Se  Se145  1  0.90199648  0.24805481  0.05238100  1
  Se  Se146  1  0.91532698  0.24941620  0.55415864  1
  Se  Se147  1  0.92669435  0.58479438  0.05912693  1
  Se  Se148  1  0.91411003  0.57983908  0.55417678  1
  Se  Se149  1  0.91906610  0.92633827  0.05390858  1
  Se  Se150  1  0.92332047  0.91742265  0.55302223  1
  Se  Se151  1  0.08052321  0.25116842  0.44991327  1
  Se  Se152  1  0.09837580  0.22892777  0.94377747  1
  Se  Se153  1  0.08218910  0.58230143  0.44929608  1
  Se  Se154  1  0.08401494  0.57663943  0.94210526  1
  Se  Se155  1  0.08030814  0.92564074  0.43390546  1
  Se  Se156  1  0.06766516  0.92124988  0.94242329  1
  Se  Se157  1  0.42272570  0.25662177  0.44088068  1
  Se  Se158  1  0.40779795  0.25510336  0.93825275  1
  Se  Se159  1  0.40906605  0.58929297  0.44524195  1
  Se  Se160  1  0.41942075  0.57433667  0.94988482  1
  Se  Se161  1  0.41658666  0.92323082  0.43740363  1
  Se  Se162  1  0.41169236  0.91227221  0.95110289  1
  Se  Se163  1  0.75620178  0.24986590  0.44529347  1
  Se  Se164  1  0.74876404  0.25666270  0.94750960  1
  Se  Se165  1  0.74138997  0.58317722  0.44878149  1
  Se  Se166  1  0.74286379  0.59103480  0.94558331  1
  Se  Se167  1  0.75329859  0.91506014  0.45165312  1
  Se  Se168  1  0.73823273  0.92312342  0.93431115  1
  Se  Se169  1  0.24575082  0.08883251  0.44592208  1
  Se  Se170  1  0.24774025  0.08125691  0.95347811  1
  Se  Se171  1  0.23907635  0.42126140  0.45167959  1
  Se  Se172  1  0.25195389  0.41366592  0.95040892  1
  Se  Se173  1  0.25673196  0.74471626  0.44322362  1
  Se  Se174  1  0.25597545  0.73507278  0.94161301  1
  Se  Se175  1  0.58277192  0.08691925  0.44657464  1
  Se  Se176  1  0.58603297  0.08114718  0.93576297  1
  Se  Se177  1  0.58361154  0.40548190  0.42985137  1
  Se  Se178  1  0.58137046  0.42020907  0.95013372  1
  Se  Se179  1  0.58421031  0.74350435  0.44405389  1
  Se  Se180  1  0.57610074  0.74881523  0.95060071  1
  Se  Se181  1  0.91793939  0.08543642  0.44960821  1
  Se  Se182  1  0.90442853  0.09852043  0.94178413  1
  Se  Se183  1  0.91197224  0.41942378  0.44683912  1
  Se  Se184  1  0.92908954  0.40293343  0.94142870  1
  Se  Se185  1  0.91456512  0.74887940  0.44808812  1
  Se  Se186  1  0.91864544  0.74287494  0.94095851  1
  Se  Se187  1  0.24517472  0.25595786  0.30860736  1
  Se  Se188  1  0.24313713  0.24657500  0.81048704  1
  Se  Se189  1  0.24556490  0.57340720  0.31595014  1
  Se  Se190  1  0.25128985  0.57849148  0.80175586  1
  Se  Se191  1  0.25331638  0.91828023  0.29567194  1
  Se  Se192  1  0.23746642  0.90766132  0.81843128  1
  Se  Se193  1  0.59470373  0.24428306  0.29592306  1
  Se  Se194  1  0.58581112  0.25551962  0.79863348  1
  Se  Se195  1  0.58684982  0.58406158  0.30017751  1
  Se  Se196  1  0.58221655  0.57757844  0.81267146  1
  Se  Se197  1  0.58472385  0.91119727  0.31365916  1
  Se  Se198  1  0.57022915  0.90784444  0.80718915  1
  Se  Se199  1  0.91882187  0.25535125  0.30261900  1
  Se  Se200  1  0.92259527  0.25245281  0.80005910  1
  Se  Se201  1  0.91953779  0.58577458  0.30920397  1
  Se  Se202  1  0.92115245  0.58204151  0.79937808  1
  Se  Se203  1  0.91451144  0.91279386  0.30823975  1
  Se  Se204  1  0.91884871  0.91827043  0.79927724  1
  Se  Se205  1  0.08279297  0.09220008  0.31106404  1
  Se  Se206  1  0.08088104  0.08183365  0.80145075  1
  Se  Se207  1  0.07769936  0.41386089  0.30734353  1
  Se  Se208  1  0.08512936  0.40945067  0.80366555  1
  Se  Se209  1  0.08436923  0.74825048  0.30202850  1
  Se  Se210  1  0.07802953  0.74248276  0.80030148  1
  Se  Se211  1  0.39831252  0.07984145  0.30687992  1
  Se  Se212  1  0.42421201  0.09209346  0.80436263  1
  Se  Se213  1  0.41137176  0.41822528  0.30074132  1
  Se  Se214  1  0.42162609  0.42085679  0.81206034  1
  Se  Se215  1  0.42436315  0.75573960  0.31077552  1
  Se  Se216  1  0.41599049  0.74259238  0.80278234  1
  Se  Se217  1  0.75812760  0.08643019  0.31153239  1
  Se  Se218  1  0.75961098  0.09676354  0.80485516  1
  Se  Se219  1  0.74950392  0.41543019  0.30322065  1
  Se  Se220  1  0.75494599  0.41527853  0.80430914  1
  Se  Se221  1  0.75043140  0.74320761  0.30833102  1
  Se  Se222  1  0.75767683  0.75644412  0.80584395  1
  Se  Se223  1  0.24498698  0.08760886  0.20230784  1
  Se  Se224  1  0.24838159  0.09469232  0.69001679  1
  Se  Se225  1  0.25028026  0.41507056  0.20063677  1
  Se  Se226  1  0.24304623  0.42017753  0.68596549  1
  Se  Se227  1  0.24373710  0.75142627  0.18930979  1
  Se  Se228  1  0.24956258  0.74568019  0.69909008  1
  Se  Se229  1  0.57523570  0.09219390  0.19225146  1
  Se  Se230  1  0.58611045  0.08920233  0.68728776  1
  Se  Se231  1  0.58754868  0.41571934  0.19958046  1
  Se  Se232  1  0.58763129  0.41670664  0.70149683  1
  Se  Se233  1  0.58965919  0.74892739  0.19757375  1
  Se  Se234  1  0.57482001  0.75967344  0.69447197  1
  Se  Se235  1  0.91327465  0.09775102  0.18532823  1
  Se  Se236  1  0.92293849  0.08217278  0.69282545  1
  Se  Se237  1  0.91783457  0.41904651  0.19990546  1
  Se  Se238  1  0.92267550  0.41162083  0.69448354  1
  Se  Se239  1  0.92540739  0.74695398  0.19986830  1
  Se  Se240  1  0.91730975  0.74556582  0.69318510  1
  Se  Se241  1  0.07885577  0.24985146  0.19024175  1
  Se  Se242  1  0.08373277  0.25530107  0.69275258  1
  Se  Se243  1  0.08212197  0.58255977  0.20179191  1
  Se  Se244  1  0.08135194  0.58263266  0.69741426  1
  Se  Se245  1  0.09223034  0.91417778  0.18402475  1
  Se  Se246  1  0.08782807  0.91750445  0.69914143  1
  Se  Se247  1  0.42457440  0.24879465  0.20672038  1
  Se  Se248  1  0.41899293  0.24368737  0.68468304  1
  Se  Se249  1  0.42000372  0.57619568  0.18904243  1
  Se  Se250  1  0.41340043  0.57861672  0.69677612  1
  Se  Se251  1  0.42196519  0.91726621  0.19876355  1
  Se  Se252  1  0.42035410  0.90930355  0.69489629  1
  Se  Se253  1  0.74781481  0.25235050  0.20001558  1
  Se  Se254  1  0.75188741  0.25525773  0.69342491  1
  Se  Se255  1  0.75168073  0.58562003  0.20261773  1
  Se  Se256  1  0.76052775  0.57475402  0.68636167  1
  Se  Se257  1  0.76249944  0.90612217  0.19204879  1
  Se  Se258  1  0.75600977  0.91594655  0.68687277  1
