# generated using pymatgen
data_In86Cu29Se144
_symmetry_space_group_name_H-M   'P 1'
_cell_length_a   17.58817039
_cell_length_b   17.59053234
_cell_length_c   23.44819482
_cell_angle_alpha   89.97346470
_cell_angle_beta   89.98820233
_cell_angle_gamma   89.99083858
_symmetry_Int_Tables_number   1
_chemical_formula_structural   In86Cu29Se144
_chemical_formula_sum   'In86 Cu29 Se144'
_cell_volume   7254.52529860
_cell_formula_units_Z   1
loop_
 _symmetry_equiv_pos_site_id
 _symmetry_equiv_pos_as_xyz
  1  'x, y, z'
loop_
 _atom_site_type_symbol
 _atom_site_label
 _atom_site_symmetry_multiplicity
 _atom_site_fract_x
 _atom_site_fract_y
 _atom_site_fract_z
 _atom_site_occupancy
  In  In0  1  0.02195047  0.17217332  0.13231290  1
  In  In1  1  0.00571560  0.17047955  0.62300981  1
  In  In2  1  0.00057322  0.50035499  0.12641952  1
  In  In3  1  -0.00537066  0.49059755  0.62497101  1
  In  In4  1  -0.00705834  0.82655011  0.11848846  1
  In  In5  1  0.00673998  0.83618752  0.61132746  1
  In  In6  1  0.31580621  0.14802656  0.10710667  1
  In  In7  1  0.33316395  0.16544224  0.62588800  1
  In  In8  1  0.32766540  0.51175162  0.11974894  1
  In  In9  1  0.31763660  0.50022805  0.62883801  1
  In  In10  1  0.33546900  0.84568825  0.11319013  1
  In  In11  1  0.33324021  0.86002682  0.62769877  1
  In  In12  1  0.66406565  0.17748923  0.12476735  1
  In  In13  1  0.66156899  0.16824679  0.61486076  1
  In  In14  1  0.68115938  0.48917108  0.12896078  1
  In  In15  1  0.68269807  0.51331246  0.63105246  1
  In  In16  1  0.66426935  0.82509282  0.12325499  1
  In  In17  1  0.66052335  0.82176435  0.62991479  1
  In  In18  1  0.17473818  0.00016291  0.37655899  1
  In  In19  1  0.18344430  -0.00825710  0.88445369  1
  In  In20  1  0.15785472  0.34114943  0.38183350  1
  In  In21  1  0.16572776  0.32880875  0.87616724  1
  In  In22  1  0.14900848  0.67349640  0.38726004  1
  In  In23  1  0.15826402  0.66981317  0.88017199  1
  In  In24  1  0.49206425  0.01368054  0.37679820  1
  In  In25  1  0.48336869  0.00865044  0.89093387  1
  In  In26  1  0.49788557  0.31656160  0.37141958  1
  In  In27  1  0.48247784  0.33277759  0.86957687  1
  In  In28  1  0.50609159  0.65882366  0.36900525  1
  In  In29  1  0.51447542  0.66947757  0.87466146  1
  In  In30  1  0.84140877  -0.00724647  0.38658700  1
  In  In31  1  0.82424933  -0.00463883  0.87721967  1
  In  In32  1  0.83050900  0.32925003  0.37137850  1
  In  In33  1  0.85260872  0.33481847  0.86977956  1
  In  In34  1  0.84313212  0.67379004  0.36691841  1
  In  In35  1  0.82682447  0.66923401  0.88194852  1
  In  In36  1  -0.00159481  0.17067742  0.37971196  1
  In  In37  1  0.00604681  0.18347034  0.86820720  1
  In  In38  1  0.00731218  0.50822872  0.37080586  1
  In  In39  1  0.00762395  0.49255730  0.88208232  1
  In  In40  1  0.00247402  0.82199847  0.37795692  1
  In  In41  1  -0.00041436  0.82873135  0.88101491  1
  In  In42  1  0.33272725  0.15769249  0.38351417  1
  In  In43  1  0.32719030  0.16368053  0.87775962  1
  In  In44  1  0.32396099  0.48719306  0.37621768  1
  In  In45  1  0.33255716  0.48375880  0.87176485  1
  In  In46  1  0.31729018  0.83992987  0.37399339  1
  In  In47  1  0.33166210  0.84532687  0.88234299  1
  In  In48  1  0.66287501  0.17145979  0.37904624  1
  In  In49  1  0.66531724  0.15296632  0.87643302  1
  In  In50  1  0.67996607  0.50493349  0.36429239  1
  In  In51  1  0.66746197  0.51320885  0.87638298  1
  In  In52  1  0.67947053  0.83165821  0.37348873  1
  In  In53  1  0.66991601  0.82815031  0.88498378  1
  In  In54  1  0.17903789  0.00665193  0.11473383  1
  In  In55  1  0.18880985  0.01816595  0.60467411  1
  In  In56  1  0.15535107  0.32557481  0.12395498  1
  In  In57  1  0.16510573  0.32924377  0.62792085  1
  In  In58  1  0.15865048  0.65923294  0.11795398  1
  In  In59  1  0.16160595  0.66822627  0.61214317  1
  In  In60  1  0.48409581  -0.00981717  0.11271377  1
  In  In61  1  0.47401824  0.00022017  0.62999932  1
  In  In62  1  0.51015527  0.32923759  0.12386876  1
  In  In63  1  0.49937639  0.31464373  0.62575974  1
  In  In64  1  0.50007618  0.68087984  0.12517735  1
  In  In65  1  0.51878970  0.68190323  0.63172784  1
  In  In66  1  0.84728788  -0.00506469  0.12261531  1
  In  In67  1  0.83817291  0.00490668  0.61566410  1
  In  In68  1  0.82946830  0.33858434  0.12962415  1
  In  In69  1  0.84588745  0.33346738  0.63105361  1
  In  In70  1  0.83777862  0.66284410  0.12647956  1
  In  In71  1  0.82352690  0.66402143  0.62654698  1
  In  In72  1  0.49800879  0.50152114  -0.00355775  1
  In  In73  1  0.66432235  0.00425476  0.25613592  1
  In  In74  1  0.00770388  -0.00081161  0.25505319  1
  In  In75  1  0.66570990  0.33842773  0.74713812  1
  In  In76  1  0.83996175  0.50124277  0.50720981  1
  In  In77  1  0.33373602  0.66744072  0.75331256  1
  In  In78  1  0.49564739  0.83895541  0.50618308  1
  In  In79  1  0.32931501  0.67087145  0.24767114  1
  In  In80  1  0.00811903  0.00427651  0.74104322  1
  In  In81  1  0.49574737  0.49301014  0.49598685  1
  In  In82  1  0.83662274  0.16462286  -0.00266150  1
  In  In83  1  0.66192656  -0.00463282  0.75596157  1
  In  In84  1  0.33452211  0.32983040  0.24934491  1
  In  In85  1  -0.00469963  0.66266309  0.74909538  1
  Cu  Cu86  1  0.17460203  0.84123108  0.74685449  1
  Cu  Cu87  1  0.49931398  0.50180237  0.75237977  1
  Cu  Cu88  1  0.32667274  0.67088321  -0.00294055  1
  Cu  Cu89  1  0.83862505  0.49656259  0.24791447  1
  Cu  Cu90  1  0.83236367  0.83329835  0.75271260  1
  Cu  Cu91  1  0.17258496  0.16517413  0.74818144  1
  Cu  Cu92  1  0.49769738  0.16447846  0.24891979  1
  Cu  Cu93  1  0.00540686  -0.00243004  -0.00031011  1
  Cu  Cu94  1  0.83177372  0.82361832  0.24567862  1
  Cu  Cu95  1  0.16241385  0.83463825  0.25005010  1
  Cu  Cu96  1  0.49737836  0.83911617  0.24290755  1
  Cu  Cu97  1  0.16179951  0.50321050  0.24998543  1
  Cu  Cu98  1  0.66639226  0.33197412  0.49570511  1
  Cu  Cu99  1  0.33007485  0.66927259  0.50347759  1
  Cu  Cu100  1  0.32634205  0.32740489  0.50143193  1
  Cu  Cu101  1  0.00211379  0.33459715  0.00159329  1
  Cu  Cu102  1  0.66359132  -0.00625905  0.00080118  1
  Cu  Cu103  1  0.00234523  0.33097525  0.50350657  1
  Cu  Cu104  1  0.51443234  0.49907476  0.24651149  1
  Cu  Cu105  1  0.66585287  0.00124785  0.49886721  1
  Cu  Cu106  1  0.32827843  0.33069419  -0.00437356  1
  Cu  Cu107  1  0.49169274  0.16149029  0.75260767  1
  Cu  Cu108  1  0.83635817  0.17247028  0.25296892  1
  Cu  Cu109  1  -0.00427162  0.66310144  0.00144654  1
  Cu  Cu110  1  0.67131866  0.66503290  0.00482821  1
  Cu  Cu111  1  0.16110818  0.48699300  0.75218592  1
  Cu  Cu112  1  0.67090138  0.67083250  0.50201154  1
  Cu  Cu113  1  0.66919195  0.33412339  0.00064836  1
  Cu  Cu114  1  0.00092690  0.00083811  0.49567008  1
  Se  Se115  1  0.08036819  0.08545789  0.05475922  1
  Se  Se116  1  0.08002862  0.08585055  0.55075493  1
  Se  Se117  1  0.08486265  0.41890798  0.05594626  1
  Se  Se118  1  0.08337248  0.41463823  0.55820809  1
  Se  Se119  1  0.08177190  0.74909578  0.05069697  1
  Se  Se120  1  0.08385396  0.75050365  0.54382219  1
  Se  Se121  1  0.43308180  0.10059118  0.05220476  1
  Se  Se122  1  0.41676729  0.08675574  0.55493647  1
  Se  Se123  1  0.40901229  0.40992450  0.05820212  1
  Se  Se124  1  0.40834100  0.40855855  0.56176724  1
  Se  Se125  1  0.41333342  0.74716836  0.05247970  1
  Se  Se126  1  0.41045399  0.74271203  0.56635461  1
  Se  Se127  1  0.74527575  0.07572439  0.06094363  1
  Se  Se128  1  0.74976607  0.08627332  0.55044414  1
  Se  Se129  1  0.75548552  0.41456732  0.05119843  1
  Se  Se130  1  0.74143592  0.41003630  0.56072732  1
  Se  Se131  1  0.75539790  0.74882302  0.05768110  1
  Se  Se132  1  0.75000364  0.75438173  0.55714128  1
  Se  Se133  1  0.24313597  0.25366251  0.05223048  1
  Se  Se134  1  0.24510693  0.24577876  0.55777411  1
  Se  Se135  1  0.24532044  0.58264956  0.04656900  1
  Se  Se136  1  0.24905448  0.57902470  0.55177300  1
  Se  Se137  1  0.24625941  0.91606185  0.04427013  1
  Se  Se138  1  0.23928889  0.90039886  0.55089363  1
  Se  Se139  1  0.58406977  0.24927549  0.04827714  1
  Se  Se140  1  0.57811544  0.25018933  0.54601333  1
  Se  Se141  1  0.58677351  0.58338939  0.06341130  1
  Se  Se142  1  0.58725018  0.58607005  0.55645505  1
  Se  Se143  1  0.58255218  0.90956627  0.05573860  1
  Se  Se144  1  0.58774943  0.92713569  0.56613699  1
  Se  Se145  1  0.92288376  0.25097697  0.06242726  1
  Se  Se146  1  0.91530152  0.25076809  0.55604374  1
  Se  Se147  1  0.91496589  0.57814604  0.05543536  1
  Se  Se148  1  0.92820828  0.59793981  0.56065280  1
  Se  Se149  1  0.91656883  0.91451046  0.04748462  1
  Se  Se150  1  0.91600351  0.91787206  0.54854391  1
  Se  Se151  1  0.08557526  0.24790500  0.44966816  1
  Se  Se152  1  0.08272226  0.24862312  0.94843595  1
  Se  Se153  1  0.08629653  0.57138726  0.44997267  1
  Se  Se154  1  0.08350480  0.58233993  0.94932197  1
  Se  Se155  1  0.08030078  0.91893982  0.43805298  1
  Se  Se156  1  0.08541477  0.91320513  0.94469026  1
  Se  Se157  1  0.41452743  0.25104517  0.44679543  1
  Se  Se158  1  0.41526981  0.24988339  0.94425768  1
  Se  Se159  1  0.40642494  0.59101876  0.43907387  1
  Se  Se160  1  0.40694306  0.58992557  0.93517719  1
  Se  Se161  1  0.40670719  0.92357340  0.44279666  1
  Se  Se162  1  0.41688505  0.91214767  0.95741793  1
  Se  Se163  1  0.75339069  0.24939200  0.44538535  1
  Se  Se164  1  0.74716755  0.25542552  0.93609723  1
  Se  Se165  1  0.74871003  0.58775940  0.44308050  1
  Se  Se166  1  0.75164120  0.57923247  0.95214479  1
  Se  Se167  1  0.74748161  0.91347361  0.44911502  1
  Se  Se168  1  0.75392172  0.91376083  0.95178161  1
  Se  Se169  1  0.24667252  0.08076057  0.45182743  1
  Se  Se170  1  0.24362681  0.09112641  0.95126557  1
  Se  Se171  1  0.24596495  0.41770797  0.45264895  1
  Se  Se172  1  0.24595038  0.41755037  0.94521292  1
  Se  Se173  1  0.25062795  0.74969491  0.44487331  1
  Se  Se174  1  0.24489089  0.75419456  0.94312793  1
  Se  Se175  1  0.58230399  0.08400080  0.44576649  1
  Se  Se176  1  0.58453627  0.08393875  0.95129902  1
  Se  Se177  1  0.59211532  0.41369944  0.43326693  1
  Se  Se178  1  0.58630372  0.40833206  0.93606191  1
  Se  Se179  1  0.58381446  0.74559389  0.44322773  1
  Se  Se180  1  0.58369537  0.74604033  0.95342538  1
  Se  Se181  1  0.91452493  0.08908904  0.44893933  1
  Se  Se182  1  0.92764116  0.07734837  0.93536014  1
  Se  Se183  1  0.92224311  0.41150944  0.44173386  1
  Se  Se184  1  0.91581592  0.41502135  0.94932781  1
  Se  Se185  1  0.90361279  0.75700221  0.44389197  1
  Se  Se186  1  0.91399480  0.74981327  0.94859682  1
  Se  Se187  1  0.24838840  0.25101361  0.31739679  1
  Se  Se188  1  0.25089517  0.24975864  0.80596186  1
  Se  Se189  1  0.24368502  0.58120075  0.31105728  1
  Se  Se190  1  0.23786482  0.57567737  0.80962073  1
  Se  Se191  1  0.24738753  0.92032162  0.29817195  1
  Se  Se192  1  0.25606084  0.92000505  0.80379662  1
  Se  Se193  1  0.58562137  0.24477385  0.30045595  1
  Se  Se194  1  0.57833230  0.24186052  0.80828379  1
  Se  Se195  1  0.59257840  0.58745911  0.29860277  1
  Se  Se196  1  0.58530119  0.58447209  0.80130986  1
  Se  Se197  1  0.57323713  0.91057658  0.31338743  1
  Se  Se198  1  0.57645399  0.91780564  0.82491587  1
  Se  Se199  1  0.92270230  0.25235369  0.30557911  1
  Se  Se200  1  0.91484520  0.24587534  0.79712913  1
  Se  Se201  1  0.91900282  0.58257435  0.30151513  1
  Se  Se202  1  0.91378642  0.57851597  0.81653639  1
  Se  Se203  1  0.90831785  0.90834671  0.30612987  1
  Se  Se204  1  0.91687709  0.91461663  0.80724742  1
  Se  Se205  1  0.09316020  0.09444468  0.30988068  1
  Se  Se206  1  0.09439287  0.08435480  0.81061447  1
  Se  Se207  1  0.08311457  0.41629864  0.30391592  1
  Se  Se208  1  0.07680282  0.40821291  0.80692271  1
  Se  Se209  1  0.08457840  0.74758903  0.30386626  1
  Se  Se210  1  0.08987551  0.76031028  0.80220119  1
  Se  Se211  1  0.41097901  0.08667400  0.30301060  1
  Se  Se212  1  0.41216987  0.07922413  0.80909686  1
  Se  Se213  1  0.42829532  0.42513739  0.30715509  1
  Se  Se214  1  0.41188051  0.41434942  0.79422702  1
  Se  Se215  1  0.42113909  0.75944608  0.30964200  1
  Se  Se216  1  0.42013415  0.75571762  0.81450416  1
  Se  Se217  1  0.76265950  0.08702857  0.31418613  1
  Se  Se218  1  0.76161751  0.09116661  0.80368683  1
  Se  Se219  1  0.75266754  0.41179716  0.29902653  1
  Se  Se220  1  0.75331196  0.42261305  0.81129213  1
  Se  Se221  1  0.74564432  0.74454340  0.30003642  1
  Se  Se222  1  0.75122594  0.75361891  0.80969560  1
  Se  Se223  1  0.24533032  0.08789351  0.19167058  1
  Se  Se224  1  0.25130663  0.07766542  0.69408780  1
  Se  Se225  1  0.24736866  0.42684453  0.19104498  1
  Se  Se226  1  0.24991123  0.41003022  0.69919296  1
  Se  Se227  1  0.24240785  0.75784153  0.18459658  1
  Se  Se228  1  0.24548248  0.75152654  0.68708014  1
  Se  Se229  1  0.57704753  0.08337510  0.18756236  1
  Se  Se230  1  0.57758371  0.08806014  0.69151269  1
  Se  Se231  1  0.59033224  0.40948966  0.19436594  1
  Se  Se232  1  0.57518832  0.42653699  0.68361283  1
  Se  Se233  1  0.58402354  0.75157728  0.19944289  1
  Se  Se234  1  0.58869038  0.75409249  0.71064009  1
  Se  Se235  1  0.91434236  0.09078349  0.19342111  1
  Se  Se236  1  0.90811689  0.09193654  0.69111796  1
  Se  Se237  1  0.92223534  0.41252454  0.19575896  1
  Se  Se238  1  0.90141718  0.43486866  0.69763925  1
  Se  Se239  1  0.92249158  0.74639353  0.19535563  1
  Se  Se240  1  0.91530147  0.76174885  0.68858217  1
  Se  Se241  1  0.08848403  0.25614854  0.20636381  1
  Se  Se242  1  0.08304597  0.24676691  0.69860221  1
  Se  Se243  1  0.08136784  0.58801517  0.19559809  1
  Se  Se244  1  0.09275008  0.57745762  0.69103424  1
  Se  Se245  1  0.08634987  0.91310772  0.18484818  1
  Se  Se246  1  0.09659626  0.91549432  0.68149165  1
  Se  Se247  1  0.41850343  0.24146806  0.18514022  1
  Se  Se248  1  0.41245657  0.24849487  0.69910808  1
  Se  Se249  1  0.42559277  0.57708466  0.19202620  1
  Se  Se250  1  0.42381712  0.58185966  0.68688065  1
  Se  Se251  1  0.41024680  0.91878205  0.19262689  1
  Se  Se252  1  0.43602854  0.89482272  0.70046062  1
  Se  Se253  1  0.75020834  0.24850016  0.19660279  1
  Se  Se254  1  0.74940168  0.24263512  0.68885868  1
  Se  Se255  1  0.75345568  0.58140551  0.19614922  1
  Se  Se256  1  0.75251923  0.59292663  0.70540424  1
  Se  Se257  1  0.75558438  0.91615994  0.19289663  1
  Se  Se258  1  0.75734085  0.91583267  0.69041478  1
