# generated using pymatgen
data_In86Cu29Se144
_symmetry_space_group_name_H-M   'P 1'
_cell_length_a   17.57919423
_cell_length_b   17.57968592
_cell_length_c   23.43894713
_cell_angle_alpha   89.99187871
_cell_angle_beta   89.99505598
_cell_angle_gamma   89.98332811
_symmetry_Int_Tables_number   1
_chemical_formula_structural   In86Cu29Se144
_chemical_formula_sum   'In86 Cu29 Se144'
_cell_volume   7243.49477690
_cell_formula_units_Z   1
loop_
 _symmetry_equiv_pos_site_id
 _symmetry_equiv_pos_as_xyz
  1  'x, y, z'
loop_
 _atom_site_type_symbol
 _atom_site_label
 _atom_site_symmetry_multiplicity
 _atom_site_fract_x
 _atom_site_fract_y
 _atom_site_fract_z
 _atom_site_occupancy
  In  In0  1  -0.00645773  0.17099585  0.13001059  1
  In  In1  1  -0.00329555  0.16019691  0.61753304  1
  In  In2  1  -0.00047525  0.49645267  0.14417350  1
  In  In3  1  -0.00596080  0.51472332  0.61765448  1
  In  In4  1  -0.01731526  0.84758205  0.13752620  1
  In  In5  1  0.01866012  0.83958262  0.62647326  1
  In  In6  1  0.32698283  0.17154382  0.14045715  1
  In  In7  1  0.33640939  0.17489828  0.60219649  1
  In  In8  1  0.32652824  0.49725482  0.13619256  1
  In  In9  1  0.39480381  0.50346853  0.61739753  1
  In  In10  1  0.35175072  0.83386754  0.12731622  1
  In  In11  1  0.32364877  0.82265574  0.62201460  1
  In  In12  1  0.66224983  0.15125686  0.12631267  1
  In  In13  1  0.67063061  0.16591640  0.62321513  1
  In  In14  1  0.67963288  0.50963223  0.12582066  1
  In  In15  1  0.65841000  0.49364943  0.62619512  1
  In  In16  1  0.67184189  0.83196944  0.12585118  1
  In  In17  1  0.66485233  0.83612209  0.62517521  1
  In  In18  1  0.16759849  -0.00396605  0.37724032  1
  In  In19  1  0.16086344  0.01138225  0.86579989  1
  In  In20  1  0.15340211  0.32773556  0.36883362  1
  In  In21  1  0.18022161  0.33319202  0.86906519  1
  In  In22  1  0.17023634  0.67907892  0.37608139  1
  In  In23  1  0.16243166  0.65784893  0.86918416  1
  In  In24  1  0.49969970  -0.00267744  0.37996174  1
  In  In25  1  0.50175105  -0.01500472  0.87362545  1
  In  In26  1  0.48651186  0.34034432  0.39004227  1
  In  In27  1  0.50023607  0.32410578  0.87044157  1
  In  In28  1  0.51197708  0.66467520  0.38985545  1
  In  In29  1  0.52477411  0.68830792  0.84741538  1
  In  In30  1  0.84181968  0.01115969  0.36680907  1
  In  In31  1  0.82957701  -0.00204733  0.87225597  1
  In  In32  1  0.84332417  0.32675237  0.38017369  1
  In  In33  1  0.82230739  0.33770155  0.87396931  1
  In  In34  1  0.82258634  0.65805420  0.37281280  1
  In  In35  1  0.82567733  0.67992422  0.87787256  1
  In  In36  1  0.00009702  0.16594568  0.37563201  1
  In  In37  1  -0.00354633  0.13997007  0.86629217  1
  In  In38  1  -0.00576647  0.48808637  0.36735869  1
  In  In39  1  0.00344769  0.50412853  0.87190683  1
  In  In40  1  0.00529773  0.84503224  0.36710438  1
  In  In41  1  -0.01968812  0.83047831  0.87453722  1
  In  In42  1  0.33247422  0.16352817  0.38390626  1
  In  In43  1  0.33103243  0.17648594  0.87008992  1
  In  In44  1  0.34325168  0.50391026  0.37546460  1
  In  In45  1  0.33100730  0.50486677  0.86853841  1
  In  In46  1  0.32565983  0.83775950  0.38538076  1
  In  In47  1  0.35225376  0.84217736  0.87590737  1
  In  In48  1  0.67511312  0.16065183  0.38037070  1
  In  In49  1  0.67657095  0.17548611  0.86581208  1
  In  In50  1  0.65847653  0.51421002  0.38756131  1
  In  In51  1  0.66636605  0.50734731  0.85877923  1
  In  In52  1  0.65793305  0.82738247  0.37302314  1
  In  In53  1  0.66614746  0.83458570  0.86968988  1
  In  In54  1  0.16014020  0.00790286  0.13556988  1
  In  In55  1  0.16301906  -0.00210194  0.62235492  1
  In  In56  1  0.16555671  0.33748434  0.15103317  1
  In  In57  1  0.18419641  0.32745291  0.61521691  1
  In  In58  1  0.15997701  0.65731421  0.13241105  1
  In  In59  1  0.17768256  0.68356778  0.61855677  1
  In  In60  1  0.51253776  -0.01185341  0.14005573  1
  In  In61  1  0.51078196  0.00973734  0.61645342  1
  In  In62  1  0.49894374  0.32160171  0.13623459  1
  In  In63  1  0.51310638  0.34496160  0.60288311  1
  In  In64  1  0.50584771  0.68420997  0.12327470  1
  In  In65  1  0.49938300  0.66629418  0.62798743  1
  In  In66  1  0.83079085  -0.00137672  0.12417495  1
  In  In67  1  0.82814532  0.00547592  0.62961086  1
  In  In68  1  0.84381238  0.33036334  0.12449215  1
  In  In69  1  0.82118190  0.32224645  0.61595422  1
  In  In70  1  0.82119123  0.68039874  0.14061702  1
  In  In71  1  0.82358574  0.65502797  0.61732905  1
  In  In72  1  0.16723130  0.50356351  0.49858582  1
  In  In73  1  0.82854009  0.83252707  0.50283168  1
  In  In74  1  -0.00216350  0.32932365  0.73520129  1
  In  In75  1  0.33779953  0.66888850  0.25314109  1
  In  In76  1  0.50506808  0.15262863  0.00435845  1
  In  In77  1  0.66472577  0.33258413  0.25859026  1
  In  In78  1  0.16216091  0.50070821  0.01828986  1
  In  In79  1  0.16704849  0.83357225  0.00208254  1
  In  In80  1  0.33886845  0.33076576  0.73838076  1
  In  In81  1  0.83452310  0.51112727  -0.00386068  1
  In  In82  1  0.16559732  0.16569847  -0.00637296  1
  In  In83  1  0.50070923  0.50495672  -0.00125710  1
  In  In84  1  0.33220916  -0.00136736  0.74281629  1
  In  In85  1  -0.00887532  0.67463060  0.74821183  1
  Cu  Cu86  1  0.50103849  0.83218163  0.74673967  1
  Cu  Cu87  1  0.67104411  0.33296157  0.49656197  1
  Cu  Cu88  1  0.67333559  0.00142058  0.49978544  1
  Cu  Cu89  1  0.67075378  0.32946140  -0.00741178  1
  Cu  Cu90  1  -0.00174656  0.31956172  0.00214375  1
  Cu  Cu91  1  0.33755144  0.66464652  0.50176984  1
  Cu  Cu92  1  0.50293765  0.83498023  0.25482443  1
  Cu  Cu93  1  0.83117528  0.83428790  0.25435542  1
  Cu  Cu94  1  0.82050452  0.49835658  0.74486605  1
  Cu  Cu95  1  -0.00551673  0.67213289  0.49525449  1
  Cu  Cu96  1  0.82954494  0.50099057  0.25532833  1
  Cu  Cu97  1  -0.00196014  0.33235253  0.49655397  1
  Cu  Cu98  1  0.67175559  -0.00683317  0.00092439  1
  Cu  Cu99  1  0.83471560  0.16638929  0.74520558  1
  Cu  Cu100  1  0.34112768  -0.00134876  0.00621068  1
  Cu  Cu101  1  0.16661676  0.83567447  0.25358994  1
  Cu  Cu102  1  0.50375719  0.16421085  0.74289158  1
  Cu  Cu103  1  -0.01025616  -0.00529704  -0.00196013  1
  Cu  Cu104  1  0.33193295  -0.00753329  0.50150045  1
  Cu  Cu105  1  0.49082023  0.16542211  0.26110476  1
  Cu  Cu106  1  0.34224518  0.67489898  -0.00494217  1
  Cu  Cu107  1  0.17214809  0.50115728  0.74167492  1
  Cu  Cu108  1  0.83059716  0.83565959  0.74773535  1
  Cu  Cu109  1  0.16780041  0.15796027  0.26041640  1
  Cu  Cu110  1  0.50683621  0.50337914  0.25941430  1
  Cu  Cu111  1  -0.00763106  0.67206684  0.01195010  1
  Cu  Cu112  1  0.33010175  0.33323553  0.00890530  1
  Cu  Cu113  1  0.83294941  0.16476416  0.25174046  1
  Cu  Cu114  1  0.00320854  -0.00034313  0.49476608  1
  Se  Se115  1  0.07526612  0.07597421  0.05513282  1
  Se  Se116  1  0.08590292  0.08221191  0.55033443  1
  Se  Se117  1  0.07316159  0.39881488  0.06744376  1
  Se  Se118  1  0.07549781  0.41201516  0.55975237  1
  Se  Se119  1  0.07739742  0.75040550  0.06835570  1
  Se  Se120  1  0.07938722  0.74890967  0.55117867  1
  Se  Se121  1  0.41139559  0.07940424  0.07217278  1
  Se  Se122  1  0.42037186  0.07944612  0.54570052  1
  Se  Se123  1  0.41529475  0.41160825  0.06529687  1
  Se  Se124  1  0.39161970  0.38968271  0.54976277  1
  Se  Se125  1  0.42369849  0.75813738  0.04913364  1
  Se  Se126  1  0.41804224  0.75051168  0.55603336  1
  Se  Se127  1  0.74849448  0.08301719  0.05355080  1
  Se  Se128  1  0.75650868  0.08479575  0.55324718  1
  Se  Se129  1  0.74762637  0.41108466  0.05499439  1
  Se  Se130  1  0.74806815  0.41991196  0.55384565  1
  Se  Se131  1  0.75130724  0.74426869  0.05862925  1
  Se  Se132  1  0.73269776  0.73836237  0.55203671  1
  Se  Se133  1  0.24479921  0.25485385  0.06493598  1
  Se  Se134  1  0.24142867  0.24537492  0.53608869  1
  Se  Se135  1  0.26572323  0.59737865  0.06093881  1
  Se  Se136  1  0.26117237  0.58083825  0.56404609  1
  Se  Se137  1  0.25326984  0.92507698  0.06475190  1
  Se  Se138  1  0.24592550  0.91244466  0.55495353  1
  Se  Se139  1  0.59002564  0.25725066  0.05820247  1
  Se  Se140  1  0.59047139  0.24281949  0.54844164  1
  Se  Se141  1  0.59246979  0.59256169  0.05804934  1
  Se  Se142  1  0.56021023  0.56457236  0.56023993  1
  Se  Se143  1  0.58534873  0.91901947  0.05933809  1
  Se  Se144  1  0.58930909  0.91753497  0.55126080  1
  Se  Se145  1  0.91116669  0.23963373  0.05249085  1
  Se  Se146  1  0.91599185  0.24885481  0.55175871  1
  Se  Se147  1  0.92010241  0.58423363  0.07102123  1
  Se  Se148  1  0.91098325  0.58524605  0.54386609  1
  Se  Se149  1  0.91094079  0.91147294  0.05396711  1
  Se  Se150  1  0.92402832  0.92226339  0.55962663  1
  Se  Se151  1  0.08238883  0.24845092  0.44617108  1
  Se  Se152  1  0.07752311  0.25531010  0.93050648  1
  Se  Se153  1  0.07510233  0.58924733  0.43650637  1
  Se  Se154  1  0.07370709  0.59184425  0.95049371  1
  Se  Se155  1  0.08496759  0.91019330  0.44645449  1
  Se  Se156  1  0.07878444  0.92232178  0.93816898  1
  Se  Se157  1  0.42243202  0.23890096  0.45205181  1
  Se  Se158  1  0.41109578  0.25329462  0.94922915  1
  Se  Se159  1  0.42018446  0.57953098  0.45027271  1
  Se  Se160  1  0.41545765  0.59121200  0.93449072  1
  Se  Se161  1  0.42053900  0.91083000  0.45014337  1
  Se  Se162  1  0.42591570  0.91633397  0.95380550  1
  Se  Se163  1  0.75565608  0.24751000  0.44710386  1
  Se  Se164  1  0.75577219  0.24439175  0.94485922  1
  Se  Se165  1  0.75537844  0.58379723  0.45245428  1
  Se  Se166  1  0.73345640  0.59104537  0.93965402  1
  Se  Se167  1  0.75132666  0.92406038  0.43563851  1
  Se  Se168  1  0.75089581  0.91228961  0.94173642  1
  Se  Se169  1  0.24769551  0.07642768  0.44911179  1
  Se  Se170  1  0.26470313  0.07336516  0.93989601  1
  Se  Se171  1  0.24811283  0.41488178  0.43347920  1
  Se  Se172  1  0.25276752  0.41732181  0.94874295  1
  Se  Se173  1  0.24885444  0.74732629  0.45366710  1
  Se  Se174  1  0.25262011  0.74530606  0.93647419  1
  Se  Se175  1  0.58619683  0.08165199  0.44676001  1
  Se  Se176  1  0.59457670  0.07496433  0.93673414  1
  Se  Se177  1  0.58312781  0.41824881  0.45058316  1
  Se  Se178  1  0.58873716  0.41172877  0.93684135  1
  Se  Se179  1  0.57892493  0.76364367  0.45264747  1
  Se  Se180  1  0.57999770  0.75158034  0.93578708  1
  Se  Se181  1  0.91606450  0.08342316  0.44565313  1
  Se  Se182  1  0.91154484  0.08179145  0.94412949  1
  Se  Se183  1  0.91645965  0.42099262  0.44730033  1
  Se  Se184  1  0.92764720  0.41103631  0.94232162  1
  Se  Se185  1  0.91776209  0.75353883  0.43445319  1
  Se  Se186  1  0.91243779  0.74912021  0.95147746  1
  Se  Se187  1  0.24977423  0.24406465  0.31141470  1
  Se  Se188  1  0.24028442  0.23836022  0.79425210  1
  Se  Se189  1  0.24585984  0.58028673  0.31062420  1
  Se  Se190  1  0.24980168  0.58571036  0.79862176  1
  Se  Se191  1  0.25304778  0.91387614  0.30747296  1
  Se  Se192  1  0.24797041  0.91232358  0.81174966  1
  Se  Se193  1  0.57378038  0.24713444  0.31935803  1
  Se  Se194  1  0.58293819  0.24913095  0.79934201  1
  Se  Se195  1  0.58531097  0.59111178  0.30976635  1
  Se  Se196  1  0.56886184  0.56979666  0.79304897  1
  Se  Se197  1  0.58495682  0.92147053  0.30624196  1
  Se  Se198  1  0.58438115  0.91805054  0.79788221  1
  Se  Se199  1  0.91673838  0.24831455  0.30410104  1
  Se  Se200  1  0.91338516  0.24846781  0.80797217  1
  Se  Se201  1  0.91577231  0.58439675  0.30561761  1
  Se  Se202  1  0.90291546  0.57615925  0.80674847  1
  Se  Se203  1  0.91823193  0.92215257  0.29855079  1
  Se  Se204  1  0.91482372  0.91734498  0.80085544  1
  Se  Se205  1  0.07999485  0.07625811  0.30953911  1
  Se  Se206  1  0.09271825  0.09424768  0.79229154  1
  Se  Se207  1  0.08284828  0.41615473  0.29834430  1
  Se  Se208  1  0.09027119  0.42096475  0.80046054  1
  Se  Se209  1  0.08405674  0.74946684  0.30350026  1
  Se  Se210  1  0.08370587  0.75845858  0.81022554  1
  Se  Se211  1  0.41128555  0.07778719  0.31234801  1
  Se  Se212  1  0.42386288  0.08965141  0.80786377  1
  Se  Se213  1  0.42296601  0.41773124  0.30698550  1
  Se  Se214  1  0.42152287  0.41963797  0.80555079  1
  Se  Se215  1  0.42344093  0.75456956  0.31708653  1
  Se  Se216  1  0.40956052  0.75448783  0.79829373  1
  Se  Se217  1  0.74497667  0.08351527  0.30088466  1
  Se  Se218  1  0.75209561  0.08299597  0.80078623  1
  Se  Se219  1  0.75073916  0.42326681  0.31909958  1
  Se  Se220  1  0.74352475  0.40907815  0.79834334  1
  Se  Se221  1  0.74783052  0.75035216  0.30604130  1
  Se  Se222  1  0.74932148  0.74905163  0.79962207  1
  Se  Se223  1  0.25220831  0.07731607  0.20432935  1
  Se  Se224  1  0.25591851  0.09431098  0.67992767  1
  Se  Se225  1  0.26403861  0.41065246  0.20962110  1
  Se  Se226  1  0.25469309  0.42803034  0.68002182  1
  Se  Se227  1  0.24640650  0.75859338  0.18987963  1
  Se  Se228  1  0.23816439  0.76032521  0.69920858  1
  Se  Se229  1  0.57817026  0.08970252  0.20421212  1
  Se  Se230  1  0.59001496  0.08019089  0.69365101  1
  Se  Se231  1  0.58183118  0.42606851  0.19156703  1
  Se  Se232  1  0.56890632  0.41098500  0.69009129  1
  Se  Se233  1  0.58569097  0.75369129  0.19917337  1
  Se  Se234  1  0.58606706  0.74980858  0.69437433  1
  Se  Se235  1  0.91352718  0.08135196  0.19443665  1
  Se  Se236  1  0.92063289  0.08405729  0.69471612  1
  Se  Se237  1  0.90777538  0.41106626  0.20311859  1
  Se  Se238  1  0.90685649  0.42672847  0.68382354  1
  Se  Se239  1  0.91991476  0.74812733  0.20532784  1
  Se  Se240  1  0.90531586  0.75880575  0.68029169  1
  Se  Se241  1  0.08308937  0.23831088  0.20307093  1
  Se  Se242  1  0.09466286  0.24344360  0.68197935  1
  Se  Se243  1  0.09611099  0.57002125  0.20467217  1
  Se  Se244  1  0.08645523  0.58585024  0.68842081  1
  Se  Se245  1  0.08126369  0.91902863  0.20072925  1
  Se  Se246  1  0.08921463  0.92082950  0.69967067  1
  Se  Se247  1  0.41233364  0.25333627  0.20798202  1
  Se  Se248  1  0.42801385  0.24159190  0.67921826  1
  Se  Se249  1  0.43133891  0.58060383  0.19097186  1
  Se  Se250  1  0.40030484  0.60113719  0.69673410  1
  Se  Se251  1  0.41413155  0.91742992  0.20517292  1
  Se  Se252  1  0.42578359  0.91410114  0.68300477  1
  Se  Se253  1  0.74999425  0.24587505  0.19123018  1
  Se  Se254  1  0.74941074  0.25067719  0.69561348  1
  Se  Se255  1  0.74479333  0.58560965  0.20554681  1
  Se  Se256  1  0.74123674  0.58516771  0.69223719  1
  Se  Se257  1  0.75084047  0.91686289  0.19615699  1
  Se  Se258  1  0.74601482  0.91876202  0.69513043  1
