# generated using pymatgen
data_In86Cu29Se144
_symmetry_space_group_name_H-M   'P 1'
_cell_length_a   17.56738656
_cell_length_b   17.57135693
_cell_length_c   23.42575190
_cell_angle_alpha   90.00174499
_cell_angle_beta   90.00247938
_cell_angle_gamma   89.98900975
_symmetry_Int_Tables_number   1
_chemical_formula_structural   In86Cu29Se144
_chemical_formula_sum   'In86 Cu29 Se144'
_cell_volume   7231.12700347
_cell_formula_units_Z   1
loop_
 _symmetry_equiv_pos_site_id
 _symmetry_equiv_pos_as_xyz
  1  'x, y, z'
loop_
 _atom_site_type_symbol
 _atom_site_label
 _atom_site_symmetry_multiplicity
 _atom_site_fract_x
 _atom_site_fract_y
 _atom_site_fract_z
 _atom_site_occupancy
  In  In0  1  0.00488050  0.16408462  0.13021866  1
  In  In1  1  0.00260142  0.17242252  0.63239316  1
  In  In2  1  -0.00413114  0.49086077  0.12350779  1
  In  In3  1  -0.00326502  0.49753377  0.61970571  1
  In  In4  1  0.00515971  0.84320473  0.12579323  1
  In  In5  1  -0.00676672  0.81375914  0.59877952  1
  In  In6  1  0.32371091  0.15768243  0.12108202  1
  In  In7  1  0.34045837  0.15896237  0.62593434  1
  In  In8  1  0.32878119  0.51506924  0.12646546  1
  In  In9  1  0.30960631  0.50097268  0.62133174  1
  In  In10  1  0.34117683  0.82641029  0.13351992  1
  In  In11  1  0.33262382  0.82444569  0.61141508  1
  In  In12  1  0.66074554  0.17092179  0.12905442  1
  In  In13  1  0.66625097  0.17939027  0.62543413  1
  In  In14  1  0.66766394  0.50045494  0.13815392  1
  In  In15  1  0.66862621  0.48270640  0.62283347  1
  In  In16  1  0.66548957  0.83646920  0.13199496  1
  In  In17  1  0.66304940  0.82800241  0.61555327  1
  In  In18  1  0.15422875  -0.01298073  0.36612516  1
  In  In19  1  0.18125103  -0.00083027  0.87777751  1
  In  In20  1  0.16303922  0.34873798  0.38006534  1
  In  In21  1  0.16774108  0.33558202  0.87417523  1
  In  In22  1  0.17119150  0.66835324  0.38725475  1
  In  In23  1  0.14186354  0.65995650  0.87228619  1
  In  In24  1  0.50089281  0.00009299  0.37091466  1
  In  In25  1  0.50409548  -0.00089533  0.88550171  1
  In  In26  1  0.50089844  0.32047527  0.37635617  1
  In  In27  1  0.48799844  0.32287108  0.86702832  1
  In  In28  1  0.50870005  0.67839681  0.36954079  1
  In  In29  1  0.50587130  0.67381831  0.87676127  1
  In  In30  1  0.83218408  -0.00408537  0.36967286  1
  In  In31  1  0.82300792  -0.00444638  0.87962413  1
  In  In32  1  0.84099163  0.34131462  0.36927290  1
  In  In33  1  0.84095756  0.32991866  0.85512511  1
  In  In34  1  0.83067718  0.67691971  0.39040662  1
  In  In35  1  0.84807566  0.66601396  0.87700135  1
  In  In36  1  -0.00518643  0.16431947  0.36645102  1
  In  In37  1  0.00523185  0.18295521  0.87003160  1
  In  In38  1  0.01077094  0.50152430  0.38817659  1
  In  In39  1  0.00765809  0.50896186  0.86839105  1
  In  In40  1  -0.00878176  0.84101169  0.39492339  1
  In  In41  1  -0.00128746  0.81635478  0.87341501  1
  In  In42  1  0.34740048  0.16722569  0.37763798  1
  In  In43  1  0.32499652  0.17421009  0.88766084  1
  In  In44  1  0.31741671  0.50697336  0.38101525  1
  In  In45  1  0.33193192  0.48210009  0.87170453  1
  In  In46  1  0.32988603  0.83242024  0.37650526  1
  In  In47  1  0.33785682  0.84139274  0.87545677  1
  In  In48  1  0.66128393  0.15656717  0.36622597  1
  In  In49  1  0.65931552  0.16191777  0.87596412  1
  In  In50  1  0.67432638  0.51088060  0.36863902  1
  In  In51  1  0.68001984  0.49801313  0.87169929  1
  In  In52  1  0.66712482  0.83550683  0.37348076  1
  In  In53  1  0.66544479  0.83645229  0.88351483  1
  In  In54  1  0.15899977  0.00620085  0.13460190  1
  In  In55  1  0.16589631  0.00050492  0.62563539  1
  In  In56  1  0.16079961  0.32902682  0.11915424  1
  In  In57  1  0.15053228  0.33547080  0.63907547  1
  In  In58  1  0.17468672  0.67340302  0.12370882  1
  In  In59  1  0.14027373  0.63672523  0.58396215  1
  In  In60  1  0.50030299  0.00009736  0.12948818  1
  In  In61  1  0.49072727  -0.00551666  0.61482232  1
  In  In62  1  0.51149534  0.33131680  0.12426511  1
  In  In63  1  0.50636785  0.32109028  0.62905342  1
  In  In64  1  0.49193239  0.67700928  0.13447096  1
  In  In65  1  0.49028122  0.67697689  0.61933687  1
  In  In66  1  0.84302676  -0.01197515  0.13501358  1
  In  In67  1  0.84251539  -0.01791540  0.61718153  1
  In  In68  1  0.83322539  0.33537160  0.13177575  1
  In  In69  1  0.82390187  0.33603119  0.63101228  1
  In  In70  1  0.82060964  0.66271025  0.12757284  1
  In  In71  1  0.84608527  0.67198529  0.61007484  1
  In  In72  1  0.66542965  0.00380958  0.75669090  1
  In  In73  1  0.17010951  0.83366596  0.00008814  1
  In  In74  1  0.33427777  0.00093427  0.74422898  1
  In  In75  1  0.00004410  0.66861780  0.26022176  1
  In  In76  1  0.83421082  0.16499949  -0.00357710  1
  In  In77  1  0.66969743  0.66244120  0.74372820  1
  In  In78  1  0.49761232  0.49957001  0.00107358  1
  In  In79  1  0.32998461  0.66523827  0.74381580  1
  In  In80  1  0.82683496  0.15952568  0.49728253  1
  In  In81  1  0.83754429  0.50485583  -0.00196129  1
  In  In82  1  0.16826701  0.16297944  0.50827443  1
  In  In83  1  0.33149321  0.33648225  0.25449771  1
  In  In84  1  0.50082806  0.50503620  0.50019116  1
  In  In85  1  0.00001408  0.00347717  0.74787749  1
  Cu  Cu86  1  0.65979160  0.67894638  0.00743052  1
  Cu  Cu87  1  0.66249679  -0.00111824  0.49149652  1
  Cu  Cu88  1  -0.00016384  0.33328172  0.50189343  1
  Cu  Cu89  1  0.00548936  0.00396077  0.00649256  1
  Cu  Cu90  1  0.84180379  0.49904732  0.74587210  1
  Cu  Cu91  1  0.49859261  0.50314898  0.25144782  1
  Cu  Cu92  1  0.32935933  0.66825697  0.00245103  1
  Cu  Cu93  1  0.50040944  0.83705776  0.25333911  1
  Cu  Cu94  1  0.66507325  0.33307163  -0.00088747  1
  Cu  Cu95  1  0.83647621  0.82641422  0.74329554  1
  Cu  Cu96  1  0.00487722  0.33707637  -0.00363834  1
  Cu  Cu97  1  0.66891635  0.33232343  0.50143021  1
  Cu  Cu98  1  0.33346930  0.33612042  0.50140314  1
  Cu  Cu99  1  0.50079816  0.16492478  0.24977571  1
  Cu  Cu100  1  0.33139071  0.33029634  -0.00358670  1
  Cu  Cu101  1  0.33909793  0.00332618  0.49344527  1
  Cu  Cu102  1  0.33998290  0.00001014  0.00501683  1
  Cu  Cu103  1  0.66756754  -0.00310862  0.00774341  1
  Cu  Cu104  1  0.15927384  0.50182707  0.74339577  1
  Cu  Cu105  1  0.67051573  0.66845000  0.49462076  1
  Cu  Cu106  1  0.16663317  0.16966087  0.24779248  1
  Cu  Cu107  1  0.15934793  0.50388536  0.25731071  1
  Cu  Cu108  1  0.15965970  0.82226436  0.73966194  1
  Cu  Cu109  1  0.17074052  0.83409596  0.25259700  1
  Cu  Cu110  1  0.83373911  0.49948855  0.25357162  1
  Cu  Cu111  1  0.83478840  0.82931230  0.25797960  1
  Cu  Cu112  1  0.50134502  0.49124010  0.74433723  1
  Cu  Cu113  1  0.83182708  0.16816081  0.24766499  1
  Cu  Cu114  1  0.49761119  0.16657591  0.75195248  1
  Se  Se115  1  0.08821182  0.08750807  0.05759587  1
  Se  Se116  1  0.06690058  0.07570122  0.55961423  1
  Se  Se117  1  0.08444371  0.42084813  0.05215044  1
  Se  Se118  1  0.08770853  0.41048960  0.55652377  1
  Se  Se119  1  0.07555361  0.74526902  0.05652689  1
  Se  Se120  1  0.11773393  0.77449669  0.54579077  1
  Se  Se121  1  0.42188668  0.08569315  0.05776828  1
  Se  Se122  1  0.41942541  0.08945750  0.54809782  1
  Se  Se123  1  0.40666947  0.41020484  0.06265548  1
  Se  Se124  1  0.41547638  0.41417793  0.56378915  1
  Se  Se125  1  0.41445665  0.74823554  0.05580028  1
  Se  Se126  1  0.42860881  0.75918634  0.54289524  1
  Se  Se127  1  0.75160751  0.07855646  0.06445226  1
  Se  Se128  1  0.73836557  0.07148573  0.56166053  1
  Se  Se129  1  0.74312634  0.41549457  0.05824455  1
  Se  Se130  1  0.75675098  0.41429204  0.55023368  1
  Se  Se131  1  0.74935074  0.75501424  0.06032068  1
  Se  Se132  1  0.75330722  0.75393007  0.54821099  1
  Se  Se133  1  0.24895388  0.24864228  0.05366276  1
  Se  Se134  1  0.25449809  0.25857719  0.56572346  1
  Se  Se135  1  0.24439095  0.58360726  0.05136856  1
  Se  Se136  1  0.27451640  0.60059165  0.54743770  1
  Se  Se137  1  0.25532060  0.92096066  0.06535110  1
  Se  Se138  1  0.25907962  0.93207729  0.55791728  1
  Se  Se139  1  0.58474880  0.24755642  0.05136271  1
  Se  Se140  1  0.58260274  0.24812630  0.55005241  1
  Se  Se141  1  0.58698394  0.58700273  0.06424832  1
  Se  Se142  1  0.59485657  0.59149516  0.56235674  1
  Se  Se143  1  0.58159567  0.91486772  0.06023282  1
  Se  Se144  1  0.58202328  0.91615347  0.55010990  1
  Se  Se145  1  0.92119339  0.25845316  0.05686177  1
  Se  Se146  1  0.91722587  0.25079402  0.55795085  1
  Se  Se147  1  0.92283585  0.59456804  0.06047651  1
  Se  Se148  1  0.92012008  0.57866735  0.54647316  1
  Se  Se149  1  0.91961204  0.91916984  0.05470962  1
  Se  Se150  1  0.91331148  0.90954803  0.53992704  1
  Se  Se151  1  0.07817027  0.24992458  0.44227053  1
  Se  Se152  1  0.08761060  0.25011399  0.94607740  1
  Se  Se153  1  0.09544987  0.58050291  0.45693727  1
  Se  Se154  1  0.07408171  0.58293958  0.94950619  1
  Se  Se155  1  0.08890370  0.92342062  0.45114840  1
  Se  Se156  1  0.07732374  0.92192320  0.93880128  1
  Se  Se157  1  0.41774451  0.25155518  0.45202618  1
  Se  Se158  1  0.42384882  0.24922791  0.95010044  1
  Se  Se159  1  0.41580472  0.59357136  0.43760070  1
  Se  Se160  1  0.40786698  0.58837757  0.93813709  1
  Se  Se161  1  0.41952713  0.91722739  0.44074625  1
  Se  Se162  1  0.41809129  0.91347908  0.95032175  1
  Se  Se163  1  0.74461640  0.25382847  0.43525603  1
  Se  Se164  1  0.74995928  0.26143741  0.93624324  1
  Se  Se165  1  0.75153118  0.57655781  0.44891649  1
  Se  Se166  1  0.73821592  0.59787700  0.94477987  1
  Se  Se167  1  0.75189491  0.91769566  0.44293343  1
  Se  Se168  1  0.75085017  0.91436109  0.95344824  1
  Se  Se169  1  0.25111604  0.08091261  0.43723023  1
  Se  Se170  1  0.25077124  0.07970030  0.95365278  1
  Se  Se171  1  0.24704146  0.42023274  0.45383946  1
  Se  Se172  1  0.24818053  0.41811593  0.94801287  1
  Se  Se173  1  0.23466391  0.77205020  0.45116432  1
  Se  Se174  1  0.25219820  0.74128517  0.93386277  1
  Se  Se175  1  0.58018564  0.08665570  0.44246998  1
  Se  Se176  1  0.58837606  0.08290005  0.95232494  1
  Se  Se177  1  0.58943247  0.41346823  0.43947441  1
  Se  Se178  1  0.58734583  0.41350306  0.93675576  1
  Se  Se179  1  0.58576700  0.75356678  0.44559590  1
  Se  Se180  1  0.57622963  0.75699416  0.95052821  1
  Se  Se181  1  0.92432250  0.07603618  0.44088570  1
  Se  Se182  1  0.92821618  0.07702119  0.93752357  1
  Se  Se183  1  0.91712820  0.41471589  0.44662969  1
  Se  Se184  1  0.91836656  0.40901832  0.93550986  1
  Se  Se185  1  0.93918294  0.72831627  0.45360309  1
  Se  Se186  1  0.90881179  0.75871561  0.94774079  1
  Se  Se187  1  0.24134985  0.24669320  0.31521658  1
  Se  Se188  1  0.26175805  0.25650348  0.81152436  1
  Se  Se189  1  0.24316587  0.58918913  0.30777444  1
  Se  Se190  1  0.24242926  0.57688409  0.80827309  1
  Se  Se191  1  0.25541634  0.91970353  0.30324189  1
  Se  Se192  1  0.23960878  0.90260462  0.80012860  1
  Se  Se193  1  0.58349941  0.25112112  0.30117056  1
  Se  Se194  1  0.58543488  0.24726392  0.80432228  1
  Se  Se195  1  0.58424794  0.58726819  0.30201850  1
  Se  Se196  1  0.57571232  0.57389880  0.80677460  1
  Se  Se197  1  0.58811843  0.91996824  0.30304151  1
  Se  Se198  1  0.57395216  0.90823011  0.80911727  1
  Se  Se199  1  0.91652503  0.25227684  0.30004507  1
  Se  Se200  1  0.92413328  0.24476860  0.79202104  1
  Se  Se201  1  0.91060066  0.57717834  0.31829073  1
  Se  Se202  1  0.91834327  0.58726283  0.80016986  1
  Se  Se203  1  0.92383199  0.90933973  0.30950924  1
  Se  Se204  1  0.90825665  0.91034336  0.80745285  1
  Se  Se205  1  0.08315464  0.08418797  0.30077302  1
  Se  Se206  1  0.09412807  0.08371791  0.81127954  1
  Se  Se207  1  0.07622450  0.41898463  0.30768338  1
  Se  Se208  1  0.08334234  0.41728483  0.80341002  1
  Se  Se209  1  0.08907932  0.76021459  0.31698305  1
  Se  Se210  1  0.07565617  0.74371516  0.79583972  1
  Se  Se211  1  0.41501814  0.08393432  0.30222482  1
  Se  Se212  1  0.42032496  0.08473210  0.81380018  1
  Se  Se213  1  0.42031234  0.42633963  0.31635523  1
  Se  Se214  1  0.41422868  0.41167267  0.79715466  1
  Se  Se215  1  0.41410856  0.75277134  0.30444620  1
  Se  Se216  1  0.42103260  0.75520750  0.80502074  1
  Se  Se217  1  0.75235725  0.08038920  0.30057030  1
  Se  Se218  1  0.76307619  0.09478552  0.80818908  1
  Se  Se219  1  0.74620852  0.41435219  0.30287173  1
  Se  Se220  1  0.75167714  0.41920137  0.79645102  1
  Se  Se221  1  0.75299401  0.74477991  0.31068627  1
  Se  Se222  1  0.75317999  0.75435551  0.80854203  1
  Se  Se223  1  0.25208349  0.08333980  0.20025935  1
  Se  Se224  1  0.23760721  0.09518623  0.69602883  1
  Se  Se225  1  0.24102879  0.42547548  0.19389579  1
  Se  Se226  1  0.24847655  0.41620709  0.69844249  1
  Se  Se227  1  0.25065197  0.74688617  0.19983560  1
  Se  Se228  1  0.24130618  0.74680559  0.67943090  1
  Se  Se229  1  0.58664580  0.08153150  0.19803488  1
  Se  Se230  1  0.57283580  0.08347736  0.68946113  1
  Se  Se231  1  0.57899810  0.41524340  0.19988249  1
  Se  Se232  1  0.58892126  0.40753660  0.69651769  1
  Se  Se233  1  0.58414980  0.75061273  0.20092404  1
  Se  Se234  1  0.57581164  0.75684533  0.69328645  1
  Se  Se235  1  0.91932761  0.08372189  0.19773194  1
  Se  Se236  1  0.90118634  0.08362265  0.68729573  1
  Se  Se237  1  0.91777608  0.41794253  0.19920892  1
  Se  Se238  1  0.92160831  0.41289458  0.69230518  1
  Se  Se239  1  0.91353625  0.75346045  0.19262577  1
  Se  Se240  1  0.92126016  0.75111609  0.68544708  1
  Se  Se241  1  0.08359397  0.25541359  0.19632425  1
  Se  Se242  1  0.08216146  0.24207324  0.70706695  1
  Se  Se243  1  0.08446826  0.58245386  0.19116118  1
  Se  Se244  1  0.08773598  0.58625703  0.68084952  1
  Se  Se245  1  0.08219017  0.91599718  0.20196952  1
  Se  Se246  1  0.07735804  0.90615615  0.68426542  1
  Se  Se247  1  0.41808657  0.24727671  0.19076602  1
  Se  Se248  1  0.41387548  0.24711783  0.69657665  1
  Se  Se249  1  0.41255680  0.58555288  0.19977504  1
  Se  Se250  1  0.42317368  0.57277659  0.68532624  1
  Se  Se251  1  0.41551990  0.91921841  0.19927702  1
  Se  Se252  1  0.41985330  0.90450259  0.68892013  1
  Se  Se253  1  0.74703898  0.25269761  0.19623077  1
  Se  Se254  1  0.75015474  0.24573471  0.69865670  1
  Se  Se255  1  0.74904617  0.58640516  0.20500746  1
  Se  Se256  1  0.76144722  0.57688794  0.68305209  1
  Se  Se257  1  0.75262978  0.91400859  0.20274108  1
  Se  Se258  1  0.74980899  0.90881323  0.69154024  1
