# generated using pymatgen
data_In86Cu29Se144
_symmetry_space_group_name_H-M   'P 1'
_cell_length_a   17.57516876
_cell_length_b   17.57762059
_cell_length_c   23.42766158
_cell_angle_alpha   90.02849408
_cell_angle_beta   89.98517069
_cell_angle_gamma   90.02218818
_symmetry_Int_Tables_number   1
_chemical_formula_structural   In86Cu29Se144
_chemical_formula_sum   'In86 Cu29 Se144'
_cell_volume   7237.49757423
_cell_formula_units_Z   1
loop_
 _symmetry_equiv_pos_site_id
 _symmetry_equiv_pos_as_xyz
  1  'x, y, z'
loop_
 _atom_site_type_symbol
 _atom_site_label
 _atom_site_symmetry_multiplicity
 _atom_site_fract_x
 _atom_site_fract_y
 _atom_site_fract_z
 _atom_site_occupancy
  In  In0  1  0.02147018  0.14145152  0.15862796  1
  In  In1  1  -0.00996559  0.16930620  0.61558021  1
  In  In2  1  -0.01276034  0.49927306  0.12857897  1
  In  In3  1  0.01040205  0.50239277  0.61276211  1
  In  In4  1  0.00331807  0.83762842  0.12005178  1
  In  In5  1  -0.02116179  0.83041222  0.62013485  1
  In  In6  1  0.32831704  0.18057718  0.13223780  1
  In  In7  1  0.33756895  0.15333466  0.62888940  1
  In  In8  1  0.33664631  0.49500888  0.13306487  1
  In  In9  1  0.34050514  0.50840463  0.61723835  1
  In  In10  1  0.32101092  0.83386864  0.12749186  1
  In  In11  1  0.34196293  0.82873778  0.62854018  1
  In  In12  1  0.66084717  0.16211671  0.13487878  1
  In  In13  1  0.66360378  0.16342186  0.62216987  1
  In  In14  1  0.68853528  0.49503888  0.13079660  1
  In  In15  1  0.65579375  0.49647672  0.61131691  1
  In  In16  1  0.67491168  0.81987621  0.13176443  1
  In  In17  1  0.67552254  0.83744575  0.61378282  1
  In  In18  1  0.15211005  0.01962801  0.36457719  1
  In  In19  1  0.17147527  -0.01020159  0.88213293  1
  In  In20  1  0.17499656  0.33079880  0.36183315  1
  In  In21  1  0.15703513  0.33662118  0.88548636  1
  In  In22  1  0.16370026  0.65217170  0.37216216  1
  In  In23  1  0.17290263  0.67728786  0.86574266  1
  In  In24  1  0.51590580  -0.01715434  0.38821670  1
  In  In25  1  0.49717725  0.00451648  0.86115853  1
  In  In26  1  0.49139924  0.34062483  0.38296656  1
  In  In27  1  0.50378833  0.31572727  0.87008685  1
  In  In28  1  0.50297072  0.66744265  0.37847861  1
  In  In29  1  0.49676743  0.67756179  0.86907485  1
  In  In30  1  0.83197201  0.00628819  0.36899152  1
  In  In31  1  0.81759416  -0.00210330  0.87354348  1
  In  In32  1  0.85220980  0.31929743  0.39263664  1
  In  In33  1  0.83378700  0.33979836  0.87307126  1
  In  In34  1  0.81900246  0.67271282  0.39061187  1
  In  In35  1  0.84277723  0.65973319  0.87688489  1
  In  In36  1  -0.01451144  0.16021618  0.34972974  1
  In  In37  1  0.00290832  0.17971504  0.87975248  1
  In  In38  1  0.00954932  0.48459087  0.39260970  1
  In  In39  1  -0.01380041  0.49636264  0.87506294  1
  In  In40  1  -0.01702317  0.84361629  0.37824679  1
  In  In41  1  0.00730876  0.82837145  0.87924733  1
  In  In42  1  0.32506606  0.18169570  0.37234634  1
  In  In43  1  0.33302651  0.15929478  0.87849072  1
  In  In44  1  0.33337991  0.49719936  0.37385228  1
  In  In45  1  0.32133809  0.50635699  0.87196251  1
  In  In46  1  0.35090303  0.83599838  0.37602239  1
  In  In47  1  0.32915154  0.82988672  0.86706066  1
  In  In48  1  0.68246323  0.15110691  0.38159526  1
  In  In49  1  0.65637508  0.16354774  0.85544282  1
  In  In50  1  0.66060506  0.51000584  0.38896458  1
  In  In51  1  0.68238829  0.49956527  0.87192875  1
  In  In52  1  0.66850463  0.83230759  0.37819213  1
  In  In53  1  0.66277509  0.84217380  0.87435925  1
  In  In54  1  0.16176056  -0.01249866  0.11926479  1
  In  In55  1  0.17211081  0.01125604  0.62876005  1
  In  In56  1  0.17861821  0.31048748  0.14519810  1
  In  In57  1  0.15241911  0.33995802  0.61805902  1
  In  In58  1  0.16583458  0.67976739  0.12710524  1
  In  In59  1  0.17552195  0.66189047  0.62760628  1
  In  In60  1  0.50470798  0.00997963  0.13071000  1
  In  In61  1  0.50529123  0.00416563  0.62277567  1
  In  In62  1  0.49729525  0.32295956  0.13206676  1
  In  In63  1  0.50764163  0.33892263  0.61675323  1
  In  In64  1  0.50165372  0.66524699  0.13580319  1
  In  In65  1  0.49767685  0.65701487  0.61337481  1
  In  In66  1  0.84342719  -0.00742191  0.13659438  1
  In  In67  1  0.82031302  -0.01689697  0.61183272  1
  In  In68  1  0.83916733  0.33950309  0.12930061  1
  In  In69  1  0.82884900  0.32142516  0.61063301  1
  In  In70  1  0.83325006  0.65799345  0.12427867  1
  In  In71  1  0.83416534  0.67660498  0.61524280  1
  In  In72  1  0.16220784  0.17227100  0.49673144  1
  In  In73  1  0.49940633  0.83439267  -0.00410310  1
  In  In74  1  -0.00453989  0.66291883  0.25700372  1
  In  In75  1  0.33817005  0.33662853  0.74716603  1
  In  In76  1  0.34114244  -0.00524205  0.25555349  1
  In  In77  1  -0.00253330  0.33546261  0.74647059  1
  In  In78  1  0.15979829  0.50201801  0.00159682  1
  In  In79  1  0.49846672  0.16517699  -0.00221493  1
  In  In80  1  0.50261124  0.49708007  0.00873305  1
  In  In81  1  0.66685291  0.33804781  0.26166252  1
  In  In82  1  0.00069061  -0.00405335  0.74787237  1
  In  In83  1  0.83462321  0.16798617  0.00313355  1
  In  In84  1  0.66446487  0.66664800  0.73968528  1
  In  In85  1  0.16543883  0.83561450  0.49004746  1
  Cu  Cu86  1  0.68281673  0.66180525  0.00285668  1
  Cu  Cu87  1  0.67127951  -0.00527713  -0.00025069  1
  Cu  Cu88  1  0.49832247  0.50069019  0.25940167  1
  Cu  Cu89  1  0.50838762  0.82672522  0.25806015  1
  Cu  Cu90  1  0.66433854  0.32828685  0.49621034  1
  Cu  Cu91  1  0.83296033  0.49830402  0.74667160  1
  Cu  Cu92  1  0.33081581  0.33691689  0.49897870  1
  Cu  Cu93  1  0.83026154  0.83542298  0.25477569  1
  Cu  Cu94  1  0.16554761  0.83239244  0.24798996  1
  Cu  Cu95  1  0.49624595  0.83922608  0.74511314  1
  Cu  Cu96  1  0.50254126  0.16193188  0.25891832  1
  Cu  Cu97  1  0.49935787  0.50089551  0.74000418  1
  Cu  Cu98  1  0.82672314  0.50865235  0.26160330  1
  Cu  Cu99  1  0.67480623  0.33765066  -0.00205197  1
  Cu  Cu100  1  0.32385311  0.00117385  -0.00029926  1
  Cu  Cu101  1  0.67080762  0.00405113  0.49892856  1
  Cu  Cu102  1  0.82874611  0.83003654  0.74335316  1
  Cu  Cu103  1  0.32983875  0.67043715  -0.00438542  1
  Cu  Cu104  1  0.17020148  0.49780689  0.25385915  1
  Cu  Cu105  1  0.82471827  0.16173170  0.73967775  1
  Cu  Cu106  1  0.33190963  0.65586670  0.49914271  1
  Cu  Cu107  1  0.17159685  0.16544508  0.75337868  1
  Cu  Cu108  1  -0.00177465  0.67131852  0.00034423  1
  Cu  Cu109  1  0.33771841  0.00005377  0.50102231  1
  Cu  Cu110  1  0.16565142  0.83229109  0.75208406  1
  Cu  Cu111  1  -0.00155968  0.00353324  0.00727357  1
  Cu  Cu112  1  0.16653512  0.51085295  0.74480561  1
  Cu  Cu113  1  0.00060358  0.66922309  0.49764424  1
  Cu  Cu114  1  0.00237291  0.32935547  0.00882836  1
  Se  Se115  1  0.07743465  0.08581785  0.06415738  1
  Se  Se116  1  0.07733396  0.07391766  0.55603337  1
  Se  Se117  1  0.08180013  0.41213478  0.06803180  1
  Se  Se118  1  0.07829438  0.41083523  0.54183290  1
  Se  Se119  1  0.08547636  0.75151317  0.05225784  1
  Se  Se120  1  0.08308631  0.74897331  0.55865070  1
  Se  Se121  1  0.40723033  0.07694972  0.06071147  1
  Se  Se122  1  0.41929533  0.08619521  0.55233972  1
  Se  Se123  1  0.40969640  0.40241491  0.06000376  1
  Se  Se124  1  0.41776836  0.41889785  0.55117629  1
  Se  Se125  1  0.41316052  0.74389009  0.05947342  1
  Se  Se126  1  0.40948262  0.74528619  0.55239646  1
  Se  Se127  1  0.74327174  0.07785811  0.06267574  1
  Se  Se128  1  0.75462607  0.08861105  0.55199076  1
  Se  Se129  1  0.75890881  0.41618239  0.05353874  1
  Se  Se130  1  0.74678078  0.41343508  0.54906413  1
  Se  Se131  1  0.75857525  0.75121144  0.05616535  1
  Se  Se132  1  0.74605158  0.74716585  0.54500096  1
  Se  Se133  1  0.24500314  0.24868244  0.05876897  1
  Se  Se134  1  0.25650312  0.25431823  0.56326441  1
  Se  Se135  1  0.25707749  0.58895714  0.06067099  1
  Se  Se136  1  0.24277953  0.57766344  0.55115922  1
  Se  Se137  1  0.24806277  0.90843420  0.04988064  1
  Se  Se138  1  0.25242214  0.92119809  0.55832570  1
  Se  Se139  1  0.59429384  0.25657811  0.05777662  1
  Se  Se140  1  0.58111364  0.24520626  0.55073709  1
  Se  Se141  1  0.59662824  0.58875156  0.06375237  1
  Se  Se142  1  0.59467529  0.59578496  0.54371499  1
  Se  Se143  1  0.58689659  0.92010308  0.06139904  1
  Se  Se144  1  0.58518634  0.92091608  0.55148424  1
  Se  Se145  1  0.92494713  0.24657024  0.06812425  1
  Se  Se146  1  0.93962133  0.27048811  0.54791341  1
  Se  Se147  1  0.91940095  0.58270089  0.05249343  1
  Se  Se148  1  0.91809910  0.58653014  0.55235921  1
  Se  Se149  1  0.91236062  0.91846200  0.05557621  1
  Se  Se150  1  0.91914993  0.91813469  0.54626496  1
  Se  Se151  1  0.08012020  0.24850789  0.42595219  1
  Se  Se152  1  0.08617857  0.24681332  0.95556176  1
  Se  Se153  1  0.08815547  0.58410875  0.45109366  1
  Se  Se154  1  0.07676113  0.59169107  0.93608152  1
  Se  Se155  1  0.07619127  0.93392532  0.43915594  1
  Se  Se156  1  0.07852078  0.91876393  0.94954935  1
  Se  Se157  1  0.41055148  0.24833018  0.44746693  1
  Se  Se158  1  0.40677460  0.26117525  0.94539033  1
  Se  Se159  1  0.41758427  0.57800819  0.44307503  1
  Se  Se160  1  0.41563097  0.58903177  0.94199542  1
  Se  Se161  1  0.42106469  0.91018212  0.45510674  1
  Se  Se162  1  0.41039074  0.92790246  0.93812684  1
  Se  Se163  1  0.75349928  0.24253815  0.45125115  1
  Se  Se164  1  0.74185482  0.24769848  0.93555894  1
  Se  Se165  1  0.73730133  0.59295583  0.46199801  1
  Se  Se166  1  0.75933384  0.57643349  0.94615813  1
  Se  Se167  1  0.75294275  0.92285682  0.44124072  1
  Se  Se168  1  0.75194379  0.90918907  0.94784400  1
  Se  Se169  1  0.25452901  0.07585995  0.43955031  1
  Se  Se170  1  0.24291268  0.08730104  0.94751990  1
  Se  Se171  1  0.24707670  0.41141410  0.43940352  1
  Se  Se172  1  0.25925141  0.41353566  0.94666762  1
  Se  Se173  1  0.25821762  0.74055740  0.43668813  1
  Se  Se174  1  0.24892555  0.75415405  0.94211347  1
  Se  Se175  1  0.58226846  0.08733499  0.44914512  1
  Se  Se176  1  0.59167376  0.07548443  0.93883410  1
  Se  Se177  1  0.57869407  0.41707515  0.45104446  1
  Se  Se178  1  0.58811205  0.41212831  0.93899229  1
  Se  Se179  1  0.57626411  0.75931798  0.44520998  1
  Se  Se180  1  0.59530814  0.73689364  0.94403359  1
  Se  Se181  1  0.92100097  0.09102377  0.43245051  1
  Se  Se182  1  0.92153637  0.07573612  0.93821603  1
  Se  Se183  1  0.89380851  0.43745264  0.44989284  1
  Se  Se184  1  0.92044140  0.40669124  0.94814084  1
  Se  Se185  1  0.91551492  0.75513482  0.44992493  1
  Se  Se186  1  0.91432062  0.75230829  0.94502485  1
  Se  Se187  1  0.24491058  0.23895700  0.29213442  1
  Se  Se188  1  0.24191232  0.25546489  0.81160042  1
  Se  Se189  1  0.25448827  0.58393535  0.30244056  1
  Se  Se190  1  0.25383588  0.59027085  0.79779179  1
  Se  Se191  1  0.24183142  0.91023328  0.31447265  1
  Se  Se192  1  0.24767427  0.92026497  0.80279991  1
  Se  Se193  1  0.57957599  0.24426570  0.32017615  1
  Se  Se194  1  0.59271419  0.26509519  0.79356043  1
  Se  Se195  1  0.58567686  0.58216725  0.30893038  1
  Se  Se196  1  0.57837108  0.57703186  0.80739523  1
  Se  Se197  1  0.58864118  0.91710909  0.30571238  1
  Se  Se198  1  0.58367060  0.91618458  0.80018073  1
  Se  Se199  1  0.91410291  0.27177399  0.30026614  1
  Se  Se200  1  0.90608166  0.23836468  0.80316102  1
  Se  Se201  1  0.91088480  0.58154344  0.32464001  1
  Se  Se202  1  0.91636616  0.58027672  0.80046027  1
  Se  Se203  1  0.91837681  0.92173486  0.29900684  1
  Se  Se204  1  0.90789437  0.90869732  0.80809388  1
  Se  Se205  1  0.08787265  0.09526868  0.28474372  1
  Se  Se206  1  0.08524275  0.08891051  0.81191219  1
  Se  Se207  1  0.08045705  0.42215482  0.30722018  1
  Se  Se208  1  0.09130292  0.42661839  0.80681032  1
  Se  Se209  1  0.08486080  0.75908566  0.31397304  1
  Se  Se210  1  0.07672444  0.74981976  0.80063200  1
  Se  Se211  1  0.42457763  0.08166174  0.32173131  1
  Se  Se212  1  0.42522360  0.10593002  0.80435722  1
  Se  Se213  1  0.41438996  0.41074848  0.30396564  1
  Se  Se214  1  0.42555002  0.42738025  0.81143072  1
  Se  Se215  1  0.41745696  0.74568703  0.30481221  1
  Se  Se216  1  0.41502461  0.75148717  0.79720629  1
  Se  Se217  1  0.74794513  0.08518705  0.29777888  1
  Se  Se218  1  0.74745092  0.07674340  0.79682441  1
  Se  Se219  1  0.75396158  0.42441103  0.32437014  1
  Se  Se220  1  0.75131465  0.41258060  0.79864396  1
  Se  Se221  1  0.75262589  0.74809931  0.30860547  1
  Se  Se222  1  0.75067485  0.75058951  0.80797771  1
  Se  Se223  1  0.25293812  0.07331366  0.18803404  1
  Se  Se224  1  0.25530469  0.08032430  0.70387949  1
  Se  Se225  1  0.25418751  0.41364394  0.20162048  1
  Se  Se226  1  0.24248353  0.42280655  0.68756534  1
  Se  Se227  1  0.25287995  0.74721404  0.20171285  1
  Se  Se228  1  0.25055446  0.75212654  0.69522790  1
  Se  Se229  1  0.58585575  0.07823122  0.20709475  1
  Se  Se230  1  0.59285693  0.07596996  0.69400698  1
  Se  Se231  1  0.57824346  0.42466872  0.19289946  1
  Se  Se232  1  0.58557048  0.41950239  0.69055116  1
  Se  Se233  1  0.58974836  0.74305821  0.20210225  1
  Se  Se234  1  0.57431273  0.75849365  0.68304398  1
  Se  Se235  1  0.89759195  0.09412628  0.20398743  1
  Se  Se236  1  0.91003005  0.08155994  0.68505585  1
  Se  Se237  1  0.90759469  0.42693258  0.20427465  1
  Se  Se238  1  0.91161362  0.42077986  0.68258572  1
  Se  Se239  1  0.91294580  0.75511596  0.19314711  1
  Se  Se240  1  0.91325490  0.74442175  0.69554215  1
  Se  Se241  1  0.05384456  0.27610689  0.19546240  1
  Se  Se242  1  0.08959422  0.23917088  0.69097553  1
  Se  Se243  1  0.08967261  0.57847661  0.19254600  1
  Se  Se244  1  0.07765007  0.58534993  0.69027108  1
  Se  Se245  1  0.08139481  0.91432624  0.19562433  1
  Se  Se246  1  0.08855772  0.90635416  0.68497405  1
  Se  Se247  1  0.41980562  0.24530815  0.20545393  1
  Se  Se248  1  0.42632775  0.24772263  0.68809336  1
  Se  Se249  1  0.41649097  0.58123066  0.20013249  1
  Se  Se250  1  0.41675226  0.58762678  0.69196382  1
  Se  Se251  1  0.42955960  0.90323660  0.19150247  1
  Se  Se252  1  0.41487980  0.92525173  0.69242463  1
  Se  Se253  1  0.75097537  0.25083634  0.19489438  1
  Se  Se254  1  0.74926732  0.25242660  0.68815649  1
  Se  Se255  1  0.74987883  0.58985879  0.20197175  1
  Se  Se256  1  0.75473953  0.57538866  0.68284483  1
  Se  Se257  1  0.74627249  0.91481269  0.19791708  1
  Se  Se258  1  0.74625126  0.91523010  0.69294849  1
