# generated using pymatgen
data_In86Cu29Se144
_symmetry_space_group_name_H-M   'P 1'
_cell_length_a   17.56286506
_cell_length_b   17.56371234
_cell_length_c   23.41696424
_cell_angle_alpha   90.00692583
_cell_angle_beta   89.99711983
_cell_angle_gamma   89.97395999
_symmetry_Int_Tables_number   1
_chemical_formula_structural   In86Cu29Se144
_chemical_formula_sum   'In86 Cu29 Se144'
_cell_volume   7223.40930597
_cell_formula_units_Z   1
loop_
 _symmetry_equiv_pos_site_id
 _symmetry_equiv_pos_as_xyz
  1  'x, y, z'
loop_
 _atom_site_type_symbol
 _atom_site_label
 _atom_site_symmetry_multiplicity
 _atom_site_fract_x
 _atom_site_fract_y
 _atom_site_fract_z
 _atom_site_occupancy
  In  In0  1  -0.00485979  0.18367241  0.12644522  1
  In  In1  1  0.00532880  0.16113490  0.63382781  1
  In  In2  1  -0.01114790  0.51468503  0.15461055  1
  In  In3  1  -0.01285010  0.47569277  0.60137827  1
  In  In4  1  -0.00362737  0.83175930  0.11742567  1
  In  In5  1  0.01528486  0.84166064  0.63177515  1
  In  In6  1  0.33865538  0.15911359  0.13224414  1
  In  In7  1  0.33818918  0.17251545  0.62295259  1
  In  In8  1  0.32176280  0.50156857  0.14279625  1
  In  In9  1  0.31928395  0.50861692  0.62532554  1
  In  In10  1  0.33769065  0.83255804  0.11962051  1
  In  In11  1  0.30816046  0.83974705  0.64460151  1
  In  In12  1  0.66140328  0.16095944  0.12339652  1
  In  In13  1  0.67160320  0.17992601  0.61762849  1
  In  In14  1  0.68171662  0.50329247  0.14338359  1
  In  In15  1  0.67383161  0.48738508  0.61488151  1
  In  In16  1  0.66641509  0.84063472  0.13001645  1
  In  In17  1  0.66878745  0.83470790  0.62539933  1
  In  In18  1  0.17901951  0.00014072  0.37468824  1
  In  In19  1  0.15726368  -0.01440129  0.86362698  1
  In  In20  1  0.16363662  0.33120725  0.38433126  1
  In  In21  1  0.16052032  0.32418008  0.86502444  1
  In  In22  1  0.13787503  0.62446080  0.33941685  1
  In  In23  1  0.17585791  0.66418491  0.87592040  1
  In  In24  1  0.50571035  0.00647624  0.36756382  1
  In  In25  1  0.49333633  0.00557700  0.88190695  1
  In  In26  1  0.48763927  0.31961593  0.36941737  1
  In  In27  1  0.48417444  0.32393943  0.87571889  1
  In  In28  1  0.49983582  0.66410924  0.36573215  1
  In  In29  1  0.49959532  0.67780167  0.88322633  1
  In  In30  1  0.82986567  0.00623099  0.36803835  1
  In  In31  1  0.83451493  0.00425895  0.88248488  1
  In  In32  1  0.85870886  0.36459733  0.33897917  1
  In  In33  1  0.82929634  0.32820989  0.87257686  1
  In  In34  1  0.82297650  0.63762211  0.34738901  1
  In  In35  1  0.84360440  0.67469481  0.87940414  1
  In  In36  1  0.00008090  0.19082334  0.38017729  1
  In  In37  1  -0.00739771  0.16277545  0.86589537  1
  In  In38  1  0.00369742  0.49235785  0.37948570  1
  In  In39  1  0.00518207  0.50196481  0.86883381  1
  In  In40  1  0.00780727  0.82374978  0.37145066  1
  In  In41  1  -0.00802181  0.83883738  0.88880761  1
  In  In42  1  0.33195858  0.16546228  0.38034788  1
  In  In43  1  0.33678687  0.16523322  0.87132682  1
  In  In44  1  0.30357628  0.47784819  0.34990401  1
  In  In45  1  0.32126622  0.48824575  0.86769641  1
  In  In46  1  0.32808373  0.83307261  0.36660393  1
  In  In47  1  0.33193217  0.83307511  0.87782942  1
  In  In48  1  0.66212294  0.16535472  0.36768089  1
  In  In49  1  0.67181584  0.16093287  0.88410141  1
  In  In50  1  0.67403260  0.50169820  0.36133697  1
  In  In51  1  0.66522816  0.49018617  0.87858085  1
  In  In52  1  0.67131673  0.82237148  0.35265105  1
  In  In53  1  0.66704247  0.83654047  0.88875492  1
  In  In54  1  0.18640541  0.00312863  0.12495357  1
  In  In55  1  0.15647673  0.00936896  0.64044464  1
  In  In56  1  0.15757473  0.34729870  0.14436976  1
  In  In57  1  0.16789529  0.33409378  0.62024589  1
  In  In58  1  0.15424461  0.67518107  0.13559634  1
  In  In59  1  0.17103849  0.66475724  0.62290301  1
  In  In60  1  0.49850613  0.00193479  0.12153988  1
  In  In61  1  0.48348300  0.00163038  0.62849853  1
  In  In62  1  0.50494612  0.32574373  0.13169838  1
  In  In63  1  0.50866533  0.31912980  0.61767492  1
  In  In64  1  0.49268763  0.67544014  0.12794343  1
  In  In65  1  0.48086194  0.65347176  0.61702629  1
  In  In66  1  0.81831703  -0.00994524  0.11900808  1
  In  In67  1  0.84846457  0.01438558  0.62868133  1
  In  In68  1  0.84136887  0.33048084  0.13461809  1
  In  In69  1  0.83679047  0.33973424  0.62315889  1
  In  In70  1  0.81646870  0.69566907  0.16084673  1
  In  In71  1  0.84816324  0.65274172  0.62460413  1
  In  In72  1  0.67132618  0.33362519  0.74187909  1
  In  In73  1  0.83405841  0.17335944  0.49625155  1
  In  In74  1  0.83441129  0.50873977  0.01297416  1
  In  In75  1  -0.00437215  -0.00295321  0.25038981  1
  In  In76  1  0.16333232  0.50120629  0.00819972  1
  In  In77  1  0.66606699  0.00280569  0.76401888  1
  In  In78  1  0.83318661  0.82802617  0.48866985  1
  In  In79  1  0.16844389  0.16583615  0.00249200  1
  In  In80  1  0.65793855  0.66584306  0.74341671  1
  In  In81  1  0.16889687  0.82986514  0.50198141  1
  In  In82  1  0.00479881  0.66248037  0.74970965  1
  In  In83  1  0.49586965  0.50257499  0.01423303  1
  In  In84  1  0.49879116  0.49595799  0.49404945  1
  In  In85  1  0.49279274  0.83081064  0.49228316  1
  Cu  Cu86  1  0.65684027  0.00365671  0.49200857  1
  Cu  Cu87  1  0.00082045  0.00559377  -0.00191879  1
  Cu  Cu88  1  0.48504832  0.82649148  0.75413838  1
  Cu  Cu89  1  0.66251239  0.32518111  0.00448939  1
  Cu  Cu90  1  0.66661178  0.00017244  0.00387513  1
  Cu  Cu91  1  -0.00659695  0.33877376  0.00334147  1
  Cu  Cu92  1  0.32825033  0.67050952  0.49096077  1
  Cu  Cu93  1  0.33674458  0.67037343  -0.00029997  1
  Cu  Cu94  1  0.33134110  0.01322901  0.50394495  1
  Cu  Cu95  1  0.33599178  -0.00353295  -0.00094210  1
  Cu  Cu96  1  0.00439138  0.00340665  0.50715727  1
  Cu  Cu97  1  0.17889624  0.83823102  0.24572481  1
  Cu  Cu98  1  0.82214217  0.16120489  0.24667869  1
  Cu  Cu99  1  0.32987879  0.32356297  0.00479979  1
  Cu  Cu100  1  0.49107542  0.16482327  0.24895797  1
  Cu  Cu101  1  0.49952250  0.84145556  0.24244814  1
  Cu  Cu102  1  0.16496426  0.17115605  0.25611458  1
  Cu  Cu103  1  -0.00138902  0.65203576  0.49220093  1
  Cu  Cu104  1  0.33192938  0.33366070  0.49620098  1
  Cu  Cu105  1  0.50409736  0.50274510  0.25056013  1
  Cu  Cu106  1  0.50398411  0.16552081  0.74832043  1
  Cu  Cu107  1  0.67921845  0.65918017  0.48717746  1
  Cu  Cu108  1  0.83583267  0.83974064  0.75983133  1
  Cu  Cu109  1  0.48858397  0.50391645  0.74863703  1
  Cu  Cu110  1  0.16114306  0.49275932  0.74354162  1
  Cu  Cu111  1  -0.00190300  0.67666521  0.00928390  1
  Cu  Cu112  1  0.18128281  0.17640147  0.74593078  1
  Cu  Cu113  1  0.67548640  0.67385922  0.01184378  1
  Cu  Cu114  1  0.67379517  0.33213328  0.48753262  1
  Se  Se115  1  0.07726648  0.07983488  0.06619014  1
  Se  Se116  1  0.08796048  0.08405430  0.56008700  1
  Se  Se117  1  0.06663627  0.41884472  0.06833202  1
  Se  Se118  1  0.10770875  0.43244935  0.55025448  1
  Se  Se119  1  0.09382185  0.75515490  0.05393348  1
  Se  Se120  1  0.06717410  0.73971569  0.55598328  1
  Se  Se121  1  0.41196920  0.08572330  0.05341842  1
  Se  Se122  1  0.42460716  0.08992385  0.55280048  1
  Se  Se123  1  0.40064906  0.41064587  0.06677837  1
  Se  Se124  1  0.41201818  0.41231796  0.56069337  1
  Se  Se125  1  0.42457519  0.75325422  0.04886900  1
  Se  Se126  1  0.39851196  0.75171003  0.55755322  1
  Se  Se127  1  0.75099530  0.08808582  0.05229588  1
  Se  Se128  1  0.74624250  0.07338173  0.55491677  1
  Se  Se129  1  0.74161929  0.41035549  0.06271603  1
  Se  Se130  1  0.75607504  0.41050493  0.54482507  1
  Se  Se131  1  0.75838199  0.75252017  0.06824181  1
  Se  Se132  1  0.74681699  0.74023937  0.55694482  1
  Se  Se133  1  0.24445121  0.25799381  0.07121855  1
  Se  Se134  1  0.25243976  0.24888423  0.55270064  1
  Se  Se135  1  0.25759483  0.59119868  0.06287287  1
  Se  Se136  1  0.24828269  0.58733320  0.54781644  1
  Se  Se137  1  0.25070926  0.91480741  0.05106907  1
  Se  Se138  1  0.25265070  0.92673527  0.56188923  1
  Se  Se139  1  0.57448225  0.24448510  0.05478605  1
  Se  Se140  1  0.59035283  0.24925149  0.54157071  1
  Se  Se141  1  0.59804333  0.58685736  0.06809207  1
  Se  Se142  1  0.59227876  0.59048339  0.55297872  1
  Se  Se143  1  0.58342081  0.91570404  0.05618019  1
  Se  Se144  1  0.58429222  0.92005725  0.55585960  1
  Se  Se145  1  0.90873079  0.25283652  0.05291845  1
  Se  Se146  1  0.92793582  0.25164247  0.56054770  1
  Se  Se147  1  0.92393975  0.59566825  0.07265537  1
  Se  Se148  1  0.90668037  0.57440352  0.54284943  1
  Se  Se149  1  0.91766501  0.92241573  0.05303810  1
  Se  Se150  1  0.92078838  0.91593684  0.55801322  1
  Se  Se151  1  0.09225745  0.24079842  0.45506905  1
  Se  Se152  1  0.07629464  0.25776026  0.94508117  1
  Se  Se153  1  0.09465773  0.58144740  0.44083007  1
  Se  Se154  1  0.07172060  0.59235413  0.94650562  1
  Se  Se155  1  0.07712249  0.92269108  0.44231058  1
  Se  Se156  1  0.08710704  0.92139460  0.94873611  1
  Se  Se157  1  0.41775391  0.24702396  0.45028737  1
  Se  Se158  1  0.41262075  0.24198794  0.95018542  1
  Se  Se159  1  0.41154811  0.58784620  0.43601348  1
  Se  Se160  1  0.40642253  0.57831203  0.94054639  1
  Se  Se161  1  0.40376480  0.92855084  0.43948176  1
  Se  Se162  1  0.42072192  0.91113772  0.94723842  1
  Se  Se163  1  0.75518877  0.25598374  0.42603778  1
  Se  Se164  1  0.75181513  0.25280572  0.94780114  1
  Se  Se165  1  0.75864565  0.57332157  0.43553871  1
  Se  Se166  1  0.74261137  0.59130366  0.94290419  1
  Se  Se167  1  0.73722673  0.92076805  0.43445792  1
  Se  Se168  1  0.75509495  0.91869872  0.95171959  1
  Se  Se169  1  0.24176250  0.08780705  0.44974103  1
  Se  Se170  1  0.25153549  0.07534117  0.93880449  1
  Se  Se171  1  0.25394547  0.42306612  0.44485181  1
  Se  Se172  1  0.24628154  0.40375079  0.94567842  1
  Se  Se173  1  0.24321545  0.74450072  0.43110290  1
  Se  Se174  1  0.24771033  0.74978548  0.94787276  1
  Se  Se175  1  0.57719678  0.09070242  0.44216329  1
  Se  Se176  1  0.58253885  0.08321307  0.94919366  1
  Se  Se177  1  0.58712890  0.41021795  0.43117294  1
  Se  Se178  1  0.57957450  0.40828002  0.94778281  1
  Se  Se179  1  0.59512917  0.74516434  0.43642125  1
  Se  Se180  1  0.58701935  0.74789924  0.95487491  1
  Se  Se181  1  0.92513535  0.07559949  0.44029962  1
  Se  Se182  1  0.91995037  0.09234079  0.94668561  1
  Se  Se183  1  0.91593434  0.40029117  0.43618237  1
  Se  Se184  1  0.91813934  0.42293120  0.94278286  1
  Se  Se185  1  0.91906085  0.73289571  0.43179261  1
  Se  Se186  1  0.90803740  0.75502884  0.95748612  1
  Se  Se187  1  0.24882366  0.24968621  0.31302183  1
  Se  Se188  1  0.26284417  0.25728174  0.80333670  1
  Se  Se189  1  0.27952167  0.61215119  0.31102631  1
  Se  Se190  1  0.24112184  0.57566056  0.80187324  1
  Se  Se191  1  0.25601794  0.92673024  0.29833257  1
  Se  Se192  1  0.26563230  0.92379338  0.80633075  1
  Se  Se193  1  0.57798582  0.24804979  0.29934248  1
  Se  Se194  1  0.58518784  0.24523962  0.80887103  1
  Se  Se195  1  0.59039986  0.59053357  0.29733275  1
  Se  Se196  1  0.57449223  0.57500404  0.81142731  1
  Se  Se197  1  0.58487236  0.91900713  0.29942061  1
  Se  Se198  1  0.57340648  0.90239636  0.81238321  1
  Se  Se199  1  0.91408860  0.23829034  0.29792570  1
  Se  Se200  1  0.92961605  0.27006120  0.80702980  1
  Se  Se201  1  0.95281608  0.59726381  0.30719810  1
  Se  Se202  1  0.90248491  0.57816751  0.80628963  1
  Se  Se203  1  0.90793338  0.90321403  0.30809262  1
  Se  Se204  1  0.91775148  0.92060707  0.81391570  1
  Se  Se205  1  0.08229777  0.08758013  0.31379208  1
  Se  Se206  1  0.09818626  0.09720658  0.80577365  1
  Se  Se207  1  0.09155344  0.41477400  0.31063966  1
  Se  Se208  1  0.07835362  0.41313351  0.80045684  1
  Se  Se209  1  0.09409382  0.75611741  0.29860513  1
  Se  Se210  1  0.08004291  0.75346702  0.81789503  1
  Se  Se211  1  0.40962045  0.08317741  0.30603269  1
  Se  Se212  1  0.42276943  0.08225347  0.80339904  1
  Se  Se213  1  0.42143693  0.41715317  0.30166809  1
  Se  Se214  1  0.41600556  0.41235027  0.80366632  1
  Se  Se215  1  0.42301846  0.75874895  0.30225625  1
  Se  Se216  1  0.40966821  0.73925738  0.80947762  1
  Se  Se217  1  0.74016137  0.07631955  0.29848418  1
  Se  Se218  1  0.76392581  0.09877914  0.80765124  1
  Se  Se219  1  0.72726905  0.39529221  0.29687429  1
  Se  Se220  1  0.75586837  0.42807711  0.80378971  1
  Se  Se221  1  0.76339554  0.74758314  0.28804683  1
  Se  Se222  1  0.74868840  0.75468691  0.80936600  1
  Se  Se223  1  0.24758992  0.08747707  0.20279477  1
  Se  Se224  1  0.25998802  0.08733267  0.69405463  1
  Se  Se225  1  0.25262365  0.41197785  0.21289914  1
  Se  Se226  1  0.25234151  0.41339963  0.69332560  1
  Se  Se227  1  0.25755844  0.75059909  0.19189874  1
  Se  Se228  1  0.23516329  0.74114523  0.70290838  1
  Se  Se229  1  0.57694640  0.08345443  0.19483594  1
  Se  Se230  1  0.58736087  0.08791969  0.68777330  1
  Se  Se231  1  0.58396308  0.41739185  0.19615963  1
  Se  Se232  1  0.57266967  0.42708953  0.68794163  1
  Se  Se233  1  0.58318065  0.75089942  0.19524970  1
  Se  Se234  1  0.56351733  0.75636269  0.68529510  1
  Se  Se235  1  0.90893591  0.08585345  0.18613117  1
  Se  Se236  1  0.93147842  0.07395359  0.70508680  1
  Se  Se237  1  0.91508380  0.41108211  0.20894845  1
  Se  Se238  1  0.91230383  0.42947808  0.68940402  1
  Se  Se239  1  0.94835330  0.74023386  0.19534070  1
  Se  Se240  1  0.90960188  0.75943335  0.69280584  1
  Se  Se241  1  0.07749974  0.24992458  0.20317265  1
  Se  Se242  1  0.09035949  0.25271869  0.69368547  1
  Se  Se243  1  0.11574248  0.56005599  0.19795947  1
  Se  Se244  1  0.07984954  0.57054408  0.68206452  1
  Se  Se245  1  0.09196712  0.91633428  0.18774929  1
  Se  Se246  1  0.09296544  0.91034704  0.70711782  1
  Se  Se247  1  0.41003490  0.25435303  0.19856357  1
  Se  Se248  1  0.42580284  0.25188239  0.69355723  1
  Se  Se249  1  0.41920787  0.58599197  0.19729019  1
  Se  Se250  1  0.40501537  0.58795767  0.69690519  1
  Se  Se251  1  0.41243214  0.92122333  0.19017075  1
  Se  Se252  1  0.41072777  0.91696309  0.70033394  1
  Se  Se253  1  0.74371541  0.24764578  0.19151646  1
  Se  Se254  1  0.76693117  0.23822506  0.69180048  1
  Se  Se255  1  0.77770507  0.56920341  0.20943852  1
  Se  Se256  1  0.75234938  0.57357769  0.69011239  1
  Se  Se257  1  0.75203068  0.91878214  0.20002141  1
  Se  Se258  1  0.75537974  0.91661590  0.69561731  1
