# generated using pymatgen
data_In86Cu29Se144
_symmetry_space_group_name_H-M   'P 1'
_cell_length_a   17.62956921
_cell_length_b   17.63797637
_cell_length_c   23.49654364
_cell_angle_alpha   89.95601738
_cell_angle_beta   89.97772557
_cell_angle_gamma   90.02183090
_symmetry_Int_Tables_number   1
_chemical_formula_structural   In86Cu29Se144
_chemical_formula_sum   'In86 Cu29 Se144'
_cell_volume   7306.24524865
_cell_formula_units_Z   1
loop_
 _symmetry_equiv_pos_site_id
 _symmetry_equiv_pos_as_xyz
  1  'x, y, z'
loop_
 _atom_site_type_symbol
 _atom_site_label
 _atom_site_symmetry_multiplicity
 _atom_site_fract_x
 _atom_site_fract_y
 _atom_site_fract_z
 _atom_site_occupancy
  In  In0  1  0.03961294  0.18274297  0.11932302  1
  In  In1  1  0.00433076  0.17173118  0.61782587  1
  In  In2  1  -0.01140749  0.49476380  0.12327714  1
  In  In3  1  -0.00841638  0.49514318  0.62674912  1
  In  In4  1  0.01022269  0.83730025  0.11887629  1
  In  In5  1  0.00323361  0.84700523  0.62067651  1
  In  In6  1  0.33773533  0.18675146  0.12676163  1
  In  In7  1  0.32111749  0.16578060  0.62416527  1
  In  In8  1  0.33742574  0.50428922  0.12533492  1
  In  In9  1  0.34602546  0.50335813  0.62207509  1
  In  In10  1  0.32688720  0.83358595  0.11622055  1
  In  In11  1  0.34828832  0.81864372  0.64123184  1
  In  In12  1  0.65999827  0.18037105  0.12821068  1
  In  In13  1  0.66679759  0.15678285  0.62962829  1
  In  In14  1  0.66499113  0.50181516  0.12330126  1
  In  In15  1  0.65706843  0.52235087  0.64290950  1
  In  In16  1  0.65090057  0.83645187  0.12047129  1
  In  In17  1  0.66076411  0.83131650  0.62435700  1
  In  In18  1  0.17544911  0.00968694  0.37285309  1
  In  In19  1  0.20968121  -0.04521447  0.92483367  1
  In  In20  1  0.16537022  0.32092080  0.35652287  1
  In  In21  1  0.16986788  0.32684633  0.88724455  1
  In  In22  1  0.16954216  0.65920696  0.37193550  1
  In  In23  1  0.17869075  0.65187542  0.88328088  1
  In  In24  1  0.48864354  -0.00974577  0.37775985  1
  In  In25  1  0.49748552  -0.00415965  0.87325083  1
  In  In26  1  0.51354298  0.33626893  0.35894369  1
  In  In27  1  0.50780050  0.32251680  0.88458554  1
  In  In28  1  0.49714960  0.66042416  0.37400504  1
  In  In29  1  0.50225831  0.66321257  0.87750658  1
  In  In30  1  0.83661524  -0.00299929  0.38500304  1
  In  In31  1  0.83015397  0.00931827  0.86840325  1
  In  In32  1  0.82438696  0.33148258  0.37204323  1
  In  In33  1  0.82698232  0.34355720  0.87880977  1
  In  In34  1  0.82733012  0.68089773  0.38232539  1
  In  In35  1  0.82100891  0.65922562  0.87040747  1
  In  In36  1  -0.00278443  0.17112708  0.37594582  1
  In  In37  1  0.00670243  0.16218796  0.87906079  1
  In  In38  1  0.01193987  0.49819700  0.37225824  1
  In  In39  1  0.00220368  0.49529682  0.88572590  1
  In  In40  1  -0.00862635  0.82381167  0.37822079  1
  In  In41  1  0.01639729  0.84215374  0.87852811  1
  In  In42  1  0.32739651  0.16525083  0.36692124  1
  In  In43  1  0.34362144  0.14819697  0.89583302  1
  In  In44  1  0.34722121  0.50773541  0.36462194  1
  In  In45  1  0.33228991  0.50219603  0.88229065  1
  In  In46  1  0.34618500  0.82877652  0.37831636  1
  In  In47  1  0.34651857  0.82729525  0.87487428  1
  In  In48  1  0.66978558  0.17978701  0.37453877  1
  In  In49  1  0.65860027  0.15667820  0.86560551  1
  In  In50  1  0.65145358  0.49383773  0.36988385  1
  In  In51  1  0.66646807  0.49488936  0.87713286  1
  In  In52  1  0.67297735  0.82508798  0.38064657  1
  In  In53  1  0.65346068  0.82102085  0.86687241  1
  In  In54  1  0.21595815  0.04578897  0.07359135  1
  In  In55  1  0.16664254  0.00961528  0.62751457  1
  In  In56  1  0.16467009  0.34134693  0.13035271  1
  In  In57  1  0.17809389  0.32659671  0.62001075  1
  In  In58  1  0.17691501  0.67593379  0.11929914  1
  In  In59  1  0.17326919  0.67909379  0.63091779  1
  In  In60  1  0.48864806  0.00081413  0.10563203  1
  In  In61  1  0.50637278  -0.01300826  0.63413038  1
  In  In62  1  0.49469277  0.33483452  0.12649174  1
  In  In63  1  0.50070702  0.35262030  0.62172679  1
  In  In64  1  0.50163560  0.66775249  0.12499268  1
  In  In65  1  0.49645512  0.66911691  0.62464379  1
  In  In66  1  0.83431595  0.00832904  0.12563300  1
  In  In67  1  0.82392716  -0.00665396  0.61789674  1
  In  In68  1  0.81980354  0.34154816  0.13442926  1
  In  In69  1  0.82897228  0.32481033  0.62160312  1
  In  In70  1  0.83502391  0.65393872  0.12652138  1
  In  In71  1  0.81536131  0.66277926  0.62224431  1
  In  In72  1  0.50008036  0.16252005  0.49564121  1
  In  In73  1  0.66309645  0.00270262  0.24437546  1
  In  In74  1  -0.00612967  0.66695682  0.74762675  1
  In  In75  1  0.00676984  0.00140483  0.24120024  1
  In  In76  1  -0.00183392  0.66150955  0.25396107  1
  In  In77  1  0.00158354  0.00347607  0.75072634  1
  In  In78  1  0.83000129  0.82428125  -0.01114629  1
  In  In79  1  0.16637641  0.83833223  0.49892922  1
  In  In80  1  0.83520616  0.17001185  0.00033354  1
  In  In81  1  0.82889260  0.49952734  0.50619322  1
  In  In82  1  0.17377076  0.50140446  0.48928709  1
  In  In83  1  -0.00652148  0.33193018  0.74705783  1
  In  In84  1  0.33749133  0.33162794  0.75216446  1
  In  In85  1  0.33272060  0.00585135  0.23626610  1
  Cu  Cu86  1  0.17197801  0.50189922  0.24755542  1
  Cu  Cu87  1  0.50187146  0.83205380  0.75171528  1
  Cu  Cu88  1  0.65624157  0.66557573  0.50295009  1
  Cu  Cu89  1  0.82479947  0.83600545  0.74502222  1
  Cu  Cu90  1  0.17381807  0.83715125  0.24336552  1
  Cu  Cu91  1  0.00753619  0.33222855  0.49464062  1
  Cu  Cu92  1  0.33254127  -0.00346995  0.50072819  1
  Cu  Cu93  1  0.83095626  0.82740759  0.25315357  1
  Cu  Cu94  1  0.66052203  0.00206188  -0.00737713  1
  Cu  Cu95  1  0.83633664  0.16957918  0.25193620  1
  Cu  Cu96  1  0.50286018  0.50492072  0.75270853  1
  Cu  Cu97  1  0.17341405  0.16054794  0.75667927  1
  Cu  Cu98  1  0.50250650  0.50292977  0.24329120  1
  Cu  Cu99  1  0.66427078  0.66209047  -0.00313349  1
  Cu  Cu100  1  0.16889548  0.50051216  0.75747429  1
  Cu  Cu101  1  0.33239397  0.33085562  0.49438633  1
  Cu  Cu102  1  0.66735779  -0.00230156  0.50569449  1
  Cu  Cu103  1  0.82237413  0.50020517  0.25127666  1
  Cu  Cu104  1  0.33044242  0.34334355  0.00602498  1
  Cu  Cu105  1  0.50142101  0.82446826  0.24904149  1
  Cu  Cu106  1  -0.00175033  0.33618029  0.00629022  1
  Cu  Cu107  1  0.34219960  0.66543423  0.00218749  1
  Cu  Cu108  1  0.49345788  0.16722866  0.75525056  1
  Cu  Cu109  1  0.66267199  0.33596994  0.49534551  1
  Cu  Cu110  1  0.17851824  0.83187672  0.76202637  1
  Cu  Cu111  1  0.82862238  0.16939581  0.74678606  1
  Cu  Cu112  1  0.66199680  0.33634122  0.00558073  1
  Cu  Cu113  1  0.00226231  0.66312402  0.00303710  1
  Cu  Cu114  1  0.00076525  0.01121752  0.50011255  1
  Se  Se115  1  0.06829416  0.06436000  0.06283527  1
  Se  Se116  1  0.08972452  0.08743766  0.55314971  1
  Se  Se117  1  0.08182634  0.42114958  0.05765126  1
  Se  Se118  1  0.08238415  0.41351045  0.55756989  1
  Se  Se119  1  0.08528159  0.74952510  0.05104705  1
  Se  Se120  1  0.07807032  0.74467151  0.55926521  1
  Se  Se121  1  0.38065200  0.07613998  0.05779518  1
  Se  Se122  1  0.41376549  0.07656840  0.56189912  1
  Se  Se123  1  0.42030640  0.42218123  0.05583746  1
  Se  Se124  1  0.41196979  0.41640578  0.54766957  1
  Se  Se125  1  0.42078607  0.75262440  0.05550524  1
  Se  Se126  1  0.41156641  0.75216989  0.55818092  1
  Se  Se127  1  0.73712802  0.07964105  0.05702949  1
  Se  Se128  1  0.74864946  0.08783600  0.55304966  1
  Se  Se129  1  0.75054640  0.41748287  0.05537113  1
  Se  Se130  1  0.73387200  0.41436063  0.56329835  1
  Se  Se131  1  0.74435509  0.74322100  0.05851580  1
  Se  Se132  1  0.74269119  0.74954357  0.55261169  1
  Se  Se133  1  0.24601591  0.26017352  0.05834654  1
  Se  Se134  1  0.25089865  0.24571850  0.54657806  1
  Se  Se135  1  0.25410335  0.58492269  0.05436495  1
  Se  Se136  1  0.25126892  0.58913113  0.56000612  1
  Se  Se137  1  0.24233799  0.90607387  0.04306539  1
  Se  Se138  1  0.25492910  0.91910870  0.56499939  1
  Se  Se139  1  0.57717477  0.25076845  0.05469910  1
  Se  Se140  1  0.58443771  0.25451336  0.55868074  1
  Se  Se141  1  0.58139367  0.58331178  0.05453403  1
  Se  Se142  1  0.58059826  0.57936305  0.55929632  1
  Se  Se143  1  0.57945771  0.91630023  0.04547301  1
  Se  Se144  1  0.57923706  0.91597599  0.55448832  1
  Se  Se145  1  0.91809385  0.25609026  0.06726945  1
  Se  Se146  1  0.92154132  0.25660243  0.55223740  1
  Se  Se147  1  0.91378771  0.58196831  0.05158125  1
  Se  Se148  1  0.92325732  0.59271820  0.55963826  1
  Se  Se149  1  0.90815706  0.91521523  0.05718670  1
  Se  Se150  1  0.91984060  0.92365049  0.55128066  1
  Se  Se151  1  0.08988819  0.25335306  0.43830132  1
  Se  Se152  1  0.07603078  0.24999771  0.95092305  1
  Se  Se153  1  0.07158362  0.59638632  0.44468006  1
  Se  Se154  1  0.08673465  0.57878642  0.95040945  1
  Se  Se155  1  0.07602511  0.92885023  0.43619944  1
  Se  Se156  1  0.07246771  0.92182181  0.95745804  1
  Se  Se157  1  0.41571858  0.25356855  0.43393858  1
  Se  Se158  1  0.41040512  0.25619822  0.95183148  1
  Se  Se159  1  0.41150010  0.58356585  0.44394618  1
  Se  Se160  1  0.42215050  0.57994800  0.94804832  1
  Se  Se161  1  0.41793327  0.91079034  0.45340628  1
  Se  Se162  1  0.41264678  0.92156055  0.94440582  1
  Se  Se163  1  0.75097813  0.25246509  0.44888628  1
  Se  Se164  1  0.73752308  0.25205831  0.94227075  1
  Se  Se165  1  0.73812347  0.58428378  0.44211312  1
  Se  Se166  1  0.75058766  0.57968272  0.94656730  1
  Se  Se167  1  0.74903218  0.91458440  0.44840794  1
  Se  Se168  1  0.74128378  0.92221258  0.93391462  1
  Se  Se169  1  0.25785303  0.08374812  0.44498808  1
  Se  Se170  1  0.22859051  0.09704569  0.95391136  1
  Se  Se171  1  0.25669174  0.40834971  0.42881865  1
  Se  Se172  1  0.24590229  0.42116275  0.94941628  1
  Se  Se173  1  0.25299040  0.74303513  0.44209809  1
  Se  Se174  1  0.25937777  0.74426342  0.94368040  1
  Se  Se175  1  0.59293083  0.07240556  0.43659277  1
  Se  Se176  1  0.57724112  0.08709440  0.94146338  1
  Se  Se177  1  0.57476606  0.41275921  0.44246698  1
  Se  Se178  1  0.58077258  0.41814612  0.94882456  1
  Se  Se179  1  0.57927950  0.74717394  0.44295211  1
  Se  Se180  1  0.58241676  0.75019938  0.94725986  1
  Se  Se181  1  0.91503912  0.09082229  0.44638418  1
  Se  Se182  1  0.92032675  0.07138315  0.94459396  1
  Se  Se183  1  0.92279929  0.41540417  0.44124159  1
  Se  Se184  1  0.91355877  0.41422115  0.95035480  1
  Se  Se185  1  0.91321724  0.75246257  0.45214249  1
  Se  Se186  1  0.92780177  0.73709957  0.93308947  1
  Se  Se187  1  0.26201248  0.25016060  0.29298368  1
  Se  Se188  1  0.25248779  0.24259136  0.81574079  1
  Se  Se189  1  0.25251297  0.58697931  0.30048350  1
  Se  Se190  1  0.25699622  0.58097715  0.80576348  1
  Se  Se191  1  0.25313324  0.91317824  0.30747479  1
  Se  Se192  1  0.24929570  0.91847587  0.82083968  1
  Se  Se193  1  0.58305159  0.23502822  0.29843124  1
  Se  Se194  1  0.57961427  0.25136317  0.80370581  1
  Se  Se195  1  0.58251444  0.58601726  0.30104793  1
  Se  Se196  1  0.58767307  0.58364979  0.80847724  1
  Se  Se197  1  0.57926664  0.90948933  0.30793381  1
  Se  Se198  1  0.58422036  0.91924627  0.80260154  1
  Se  Se199  1  0.91603201  0.25385486  0.30701184  1
  Se  Se200  1  0.91025823  0.23997978  0.81141451  1
  Se  Se201  1  0.90391379  0.57619237  0.31490590  1
  Se  Se202  1  0.91629738  0.57067537  0.81015685  1
  Se  Se203  1  0.91328028  0.91292521  0.30573498  1
  Se  Se204  1  0.91124253  0.90627580  0.80776372  1
  Se  Se205  1  0.09067179  0.09241024  0.30487899  1
  Se  Se206  1  0.09465216  0.07878729  0.81498571  1
  Se  Se207  1  0.08501430  0.41973613  0.29861175  1
  Se  Se208  1  0.08953879  0.41405893  0.81080256  1
  Se  Se209  1  0.09148155  0.76141774  0.30583275  1
  Se  Se210  1  0.09019717  0.74759626  0.81121700  1
  Se  Se211  1  0.42587620  0.08265921  0.30425692  1
  Se  Se212  1  0.41108917  0.08597072  0.80961526  1
  Se  Se213  1  0.42094517  0.41727696  0.29720929  1
  Se  Se214  1  0.42553980  0.42022321  0.81294177  1
  Se  Se215  1  0.41569720  0.74690946  0.30379694  1
  Se  Se216  1  0.42246556  0.74356873  0.80380916  1
  Se  Se217  1  0.75975679  0.08210938  0.30864574  1
  Se  Se218  1  0.74681681  0.08070704  0.79593720  1
  Se  Se219  1  0.74171287  0.41418976  0.30491479  1
  Se  Se220  1  0.74138184  0.40798517  0.80642652  1
  Se  Se221  1  0.74645262  0.74570827  0.30395634  1
  Se  Se222  1  0.74995921  0.74962455  0.80172556  1
  Se  Se223  1  0.23721097  0.09263489  0.18246834  1
  Se  Se224  1  0.25444492  0.08026504  0.69959947  1
  Se  Se225  1  0.25663000  0.42017519  0.19506464  1
  Se  Se226  1  0.24522484  0.42185095  0.69183281  1
  Se  Se227  1  0.25701328  0.75154050  0.19354847  1
  Se  Se228  1  0.25493562  0.74442737  0.70774582  1
  Se  Se229  1  0.56890435  0.08201304  0.18219815  1
  Se  Se230  1  0.57627420  0.08513182  0.69835965  1
  Se  Se231  1  0.58499659  0.41678855  0.19217278  1
  Se  Se232  1  0.58204230  0.41798146  0.69881240  1
  Se  Se233  1  0.58920076  0.74809363  0.19485329  1
  Se  Se234  1  0.58170588  0.74828798  0.69472841  1
  Se  Se235  1  0.91724309  0.09951365  0.18754591  1
  Se  Se236  1  0.91322623  0.09103960  0.68696952  1
  Se  Se237  1  0.91091966  0.42101718  0.19956848  1
  Se  Se238  1  0.89844534  0.42328173  0.69470975  1
  Se  Se239  1  0.91597976  0.75619624  0.18997472  1
  Se  Se240  1  0.91117229  0.76197114  0.68561107  1
  Se  Se241  1  0.07546473  0.26794278  0.20131844  1
  Se  Se242  1  0.09608018  0.24251696  0.69527449  1
  Se  Se243  1  0.08813205  0.58197240  0.18791457  1
  Se  Se244  1  0.09014074  0.57378043  0.69153962  1
  Se  Se245  1  0.10078647  0.91849974  0.18247354  1
  Se  Se246  1  0.09756500  0.90668756  0.69769890  1
  Se  Se247  1  0.42225290  0.25069251  0.20062152  1
  Se  Se248  1  0.42415165  0.24570319  0.68549420  1
  Se  Se249  1  0.41725882  0.58898678  0.19527627  1
  Se  Se250  1  0.41746867  0.58291536  0.69674771  1
  Se  Se251  1  0.42740450  0.90880653  0.18704489  1
  Se  Se252  1  0.41393998  0.91942765  0.70472754  1
  Se  Se253  1  0.74623627  0.24848980  0.20126022  1
  Se  Se254  1  0.74513556  0.25057442  0.69345131  1
  Se  Se255  1  0.74519457  0.58551914  0.19620354  1
  Se  Se256  1  0.75934658  0.58682492  0.70413600  1
  Se  Se257  1  0.75711166  0.90810744  0.18889382  1
  Se  Se258  1  0.74354324  0.91969281  0.69174479  1
