# generated using pymatgen
data_In86Cu29Se144
_symmetry_space_group_name_H-M   'P 1'
_cell_length_a   17.58120483
_cell_length_b   17.58342233
_cell_length_c   23.44849358
_cell_angle_alpha   89.99994138
_cell_angle_beta   90.01959363
_cell_angle_gamma   90.00708815
_symmetry_Int_Tables_number   1
_chemical_formula_structural   In86Cu29Se144
_chemical_formula_sum   'In86 Cu29 Se144'
_cell_volume   7248.81405459
_cell_formula_units_Z   1
loop_
 _symmetry_equiv_pos_site_id
 _symmetry_equiv_pos_as_xyz
  1  'x, y, z'
loop_
 _atom_site_type_symbol
 _atom_site_label
 _atom_site_symmetry_multiplicity
 _atom_site_fract_x
 _atom_site_fract_y
 _atom_site_fract_z
 _atom_site_occupancy
  In  In0  1  0.01203241  0.15137106  0.12081636  1
  In  In1  1  0.01204851  0.18250639  0.61917888  1
  In  In2  1  0.01079490  0.50466937  0.12650033  1
  In  In3  1  0.00255833  0.49968131  0.62583344  1
  In  In4  1  -0.00860753  0.83674124  0.12302171  1
  In  In5  1  -0.01050152  0.82371236  0.62528477  1
  In  In6  1  0.32829448  0.15435306  0.10747741  1
  In  In7  1  0.32327947  0.17589527  0.63592597  1
  In  In8  1  0.34631750  0.50435332  0.12466073  1
  In  In9  1  0.32636976  0.50453525  0.62391237  1
  In  In10  1  0.33012467  0.83309458  0.13873049  1
  In  In11  1  0.35153231  0.81843764  0.63198959  1
  In  In12  1  0.66499168  0.18330489  0.12523045  1
  In  In13  1  0.66689839  0.16465688  0.62952179  1
  In  In14  1  0.65322723  0.51013954  0.13316942  1
  In  In15  1  0.67198278  0.49473673  0.62988146  1
  In  In16  1  0.66587229  0.81761393  0.12376061  1
  In  In17  1  0.65636819  0.83584144  0.62939179  1
  In  In18  1  0.18273221  -0.00669018  0.37546535  1
  In  In19  1  0.18477233  0.00154827  0.87749993  1
  In  In20  1  0.17078833  0.33750519  0.39188267  1
  In  In21  1  0.16149480  0.32480223  0.86717759  1
  In  In22  1  0.16097581  0.66832820  0.36697607  1
  In  In23  1  0.17145539  0.66917398  0.86621291  1
  In  In24  1  0.48111230  -0.00019973  0.37044949  1
  In  In25  1  0.50258356  0.00415709  0.87487667  1
  In  In26  1  0.50028965  0.32576442  0.37614901  1
  In  In27  1  0.50066652  0.33521086  0.87114256  1
  In  In28  1  0.51231637  0.67684884  0.37764027  1
  In  In29  1  0.48871091  0.65249068  0.87181457  1
  In  In30  1  0.84068049  0.00204398  0.37932836  1
  In  In31  1  0.82140410  0.00174748  0.87427178  1
  In  In32  1  0.82375217  0.34812598  0.38660454  1
  In  In33  1  0.83325864  0.32812635  0.86219580  1
  In  In34  1  0.82445198  0.65386412  0.37225253  1
  In  In35  1  0.83704041  0.67069799  0.86886639  1
  In  In36  1  -0.00157892  0.17065653  0.38352927  1
  In  In37  1  -0.00473504  0.17384257  0.87107159  1
  In  In38  1  -0.00751445  0.50711845  0.38240821  1
  In  In39  1  0.00324103  0.49894677  0.86582234  1
  In  In40  1  0.01521468  0.82151821  0.37284426  1
  In  In41  1  0.00323630  0.81696360  0.87364742  1
  In  In42  1  0.33393340  0.15949490  0.37680846  1
  In  In43  1  0.33416389  0.16506266  0.87496122  1
  In  In44  1  0.31616560  0.50533590  0.38706633  1
  In  In45  1  0.34903677  0.51069904  0.86988360  1
  In  In46  1  0.33546057  0.83960366  0.36835126  1
  In  In47  1  0.33365238  0.83213009  0.86994929  1
  In  In48  1  0.66143845  0.18264059  0.37574103  1
  In  In49  1  0.66365612  0.15925494  0.86632336  1
  In  In50  1  0.67589740  0.51380428  0.37673411  1
  In  In51  1  0.65730568  0.48983665  0.86503905  1
  In  In52  1  0.66422255  0.80669110  0.38084406  1
  In  In53  1  0.67339590  0.83797130  0.87133445  1
  In  In54  1  0.16656663  0.00975286  0.11974053  1
  In  In55  1  0.17155320  0.01376399  0.62488370  1
  In  In56  1  0.18108201  0.32783553  0.12166583  1
  In  In57  1  0.17166622  0.33246643  0.62446197  1
  In  In58  1  0.16937460  0.66879207  0.14119567  1
  In  In59  1  0.18679708  0.64783484  0.63073836  1
  In  In60  1  0.48175617  -0.00277164  0.11935981  1
  In  In61  1  0.50323914  -0.00708993  0.63403138  1
  In  In62  1  0.50013104  0.34138717  0.11760356  1
  In  In63  1  0.49676820  0.33746826  0.63564406  1
  In  In64  1  0.50233369  0.66708341  0.13106871  1
  In  In65  1  0.49182940  0.67553191  0.62610895  1
  In  In66  1  0.85084894  -0.00701279  0.11785219  1
  In  In67  1  0.81314792  0.00177264  0.62612653  1
  In  In68  1  0.82119011  0.32454964  0.12407491  1
  In  In69  1  0.83482793  0.33735021  0.62465589  1
  In  In70  1  0.82428535  0.67182147  0.12882932  1
  In  In71  1  0.83859025  0.65743594  0.62923406  1
  In  In72  1  0.16808854  0.83440638  0.49829126  1
  In  In73  1  0.82969278  0.83580208  0.49993203  1
  In  In74  1  0.49852462  0.50339496  0.50868463  1
  In  In75  1  0.00684900  -0.00459839  0.24655963  1
  In  In76  1  0.83099978  0.16162097  -0.00692723  1
  In  In77  1  0.83076195  0.49867213  -0.00762935  1
  In  In78  1  0.49164781  0.16737966  0.49955361  1
  In  In79  1  0.16845408  0.83605490  0.00036978  1
  In  In80  1  -0.00736828  0.34049177  0.25029929  1
  In  In81  1  0.33696342  0.33756686  0.25124590  1
  In  In82  1  0.49929374  0.83227431  -0.00188486  1
  In  In83  1  -0.00141361  -0.00216279  0.74828262  1
  In  In84  1  0.66262582  -0.00330280  0.24341489  1
  In  In85  1  0.17635217  0.49860506  0.00193548  1
  Cu  Cu86  1  0.66694604  0.00159825  -0.00562373  1
  Cu  Cu87  1  0.65781946  0.00115375  0.50555879  1
  Cu  Cu88  1  -0.00296938  0.01383899  0.50249244  1
  Cu  Cu89  1  0.16893827  0.49447507  0.74759904  1
  Cu  Cu90  1  0.50413641  0.83067116  0.25155768  1
  Cu  Cu91  1  0.49998282  0.50231233  0.74534853  1
  Cu  Cu92  1  0.82926691  0.50167628  0.25676661  1
  Cu  Cu93  1  0.83527584  0.16948915  0.74440579  1
  Cu  Cu94  1  0.17067793  0.16483731  0.24761469  1
  Cu  Cu95  1  0.33277209  0.00028082  0.50079967  1
  Cu  Cu96  1  -0.00124884  0.66799223  -0.00343548  1
  Cu  Cu97  1  0.50140089  0.83182079  0.75596065  1
  Cu  Cu98  1  0.66313036  0.66344246  0.00351922  1
  Cu  Cu99  1  0.00102293  0.33409000  0.50617284  1
  Cu  Cu100  1  0.83551962  0.50137008  0.74761769  1
  Cu  Cu101  1  0.83690567  0.82281646  0.24925760  1
  Cu  Cu102  1  0.82480666  0.17212303  0.25190944  1
  Cu  Cu103  1  0.82752192  0.82737980  0.74620026  1
  Cu  Cu104  1  0.65633209  0.33878034  -0.00326124  1
  Cu  Cu105  1  0.33512919  0.32899698  -0.00604188  1
  Cu  Cu106  1  0.50110658  0.16519927  0.75269099  1
  Cu  Cu107  1  0.16309499  0.50625315  0.25696350  1
  Cu  Cu108  1  0.16731133  0.82996641  0.74983531  1
  Cu  Cu109  1  0.17358859  0.16835801  0.74768880  1
  Cu  Cu110  1  0.00468529  0.32141175  -0.00613630  1
  Cu  Cu111  1  0.00347615  0.66172113  0.50040467  1
  Cu  Cu112  1  0.50365358  0.50196333  0.25265540  1
  Cu  Cu113  1  0.49284577  0.17007519  0.24986792  1
  Cu  Cu114  1  0.66922300  0.33671077  0.50324022  1
  Se  Se115  1  0.08047550  0.07456209  0.04514755  1
  Se  Se116  1  0.08811176  0.08899488  0.55376799  1
  Se  Se117  1  0.07752544  0.40500606  0.05651203  1
  Se  Se118  1  0.08623617  0.41734376  0.55745988  1
  Se  Se119  1  0.08255847  0.73932570  0.06025770  1
  Se  Se120  1  0.08150875  0.74332346  0.56043683  1
  Se  Se121  1  0.43440046  0.09396863  0.04646218  1
  Se  Se122  1  0.41066127  0.07801985  0.56515774  1
  Se  Se123  1  0.41070315  0.41749524  0.04952121  1
  Se  Se124  1  0.40934701  0.40475529  0.55997999  1
  Se  Se125  1  0.41115911  0.74939211  0.06357827  1
  Se  Se126  1  0.41946078  0.75352439  0.54896387  1
  Se  Se127  1  0.74415931  0.07780093  0.06272858  1
  Se  Se128  1  0.74352718  0.08700055  0.55232166  1
  Se  Se129  1  0.73964106  0.41563022  0.05756011  1
  Se  Se130  1  0.75271074  0.42115693  0.55441266  1
  Se  Se131  1  0.75168082  0.74805328  0.05016989  1
  Se  Se132  1  0.74831443  0.74817787  0.56471913  1
  Se  Se133  1  0.24711854  0.24775460  0.04510537  1
  Se  Se134  1  0.24408475  0.23804132  0.55729300  1
  Se  Se135  1  0.25485069  0.59482772  0.06292071  1
  Se  Se136  1  0.25498305  0.58454662  0.54723278  1
  Se  Se137  1  0.26250752  0.92077042  0.06022287  1
  Se  Se138  1  0.25690061  0.91829700  0.56356705  1
  Se  Se139  1  0.57987376  0.25086545  0.05111536  1
  Se  Se140  1  0.58342137  0.25713138  0.55913868  1
  Se  Se141  1  0.57709033  0.58396200  0.05613143  1
  Se  Se142  1  0.59160315  0.59090879  0.56502817  1
  Se  Se143  1  0.59198246  0.92184239  0.06032075  1
  Se  Se144  1  0.57688241  0.91597735  0.55634965  1
  Se  Se145  1  0.92178452  0.25076612  0.05882808  1
  Se  Se146  1  0.91286421  0.24993557  0.55445586  1
  Se  Se147  1  0.92093962  0.58471071  0.05681215  1
  Se  Se148  1  0.91885522  0.58214057  0.55518117  1
  Se  Se149  1  0.92344679  0.91332363  0.04535066  1
  Se  Se150  1  0.92062318  0.92842348  0.56059434  1
  Se  Se151  1  0.08318662  0.24959114  0.45161644  1
  Se  Se152  1  0.08832841  0.24062106  0.94166465  1
  Se  Se153  1  0.08883457  0.58604083  0.44269947  1
  Se  Se154  1  0.08125545  0.58587301  0.94085635  1
  Se  Se155  1  0.07257519  0.92855685  0.44189795  1
  Se  Se156  1  0.08035335  0.91856309  0.93393569  1
  Se  Se157  1  0.40002269  0.26211373  0.44493934  1
  Se  Se158  1  0.42194508  0.24965348  0.94083209  1
  Se  Se159  1  0.41701358  0.59022794  0.44145273  1
  Se  Se160  1  0.41404244  0.58419053  0.95114385  1
  Se  Se161  1  0.41335296  0.91707437  0.44557156  1
  Se  Se162  1  0.40787947  0.92346900  0.94231217  1
  Se  Se163  1  0.74843966  0.24953316  0.44886252  1
  Se  Se164  1  0.74242929  0.25978292  0.93918483  1
  Se  Se165  1  0.75425318  0.58510562  0.45255294  1
  Se  Se166  1  0.73910934  0.58846109  0.93599131  1
  Se  Se167  1  0.73621897  0.92422349  0.43886359  1
  Se  Se168  1  0.75139321  0.91506886  0.94735307  1
  Se  Se169  1  0.24873764  0.08335204  0.44804236  1
  Se  Se170  1  0.25355703  0.08738498  0.94848889  1
  Se  Se171  1  0.24613548  0.42291314  0.46001671  1
  Se  Se172  1  0.25533531  0.41089591  0.93383170  1
  Se  Se173  1  0.25475791  0.74692874  0.43672135  1
  Se  Se174  1  0.25661534  0.74153714  0.94250583  1
  Se  Se175  1  0.58299481  0.07841106  0.43749290  1
  Se  Se176  1  0.58607359  0.08753450  0.94395155  1
  Se  Se177  1  0.58626487  0.41340843  0.44224551  1
  Se  Se178  1  0.57635600  0.42398353  0.94320456  1
  Se  Se179  1  0.57937437  0.75214180  0.45914041  1
  Se  Se180  1  0.58764763  0.74272699  0.93758707  1
  Se  Se181  1  0.90848150  0.09150758  0.44988538  1
  Se  Se182  1  0.92540034  0.07261819  0.93808792  1
  Se  Se183  1  0.91866847  0.41908243  0.45179379  1
  Se  Se184  1  0.92433380  0.40442496  0.93792515  1
  Se  Se185  1  0.92325289  0.74581517  0.44153004  1
  Se  Se186  1  0.91289416  0.74887348  0.94531653  1
  Se  Se187  1  0.24149721  0.25023704  0.31062564  1
  Se  Se188  1  0.25648541  0.25055752  0.80279709  1
  Se  Se189  1  0.25485462  0.58379462  0.30577199  1
  Se  Se190  1  0.25125254  0.57904020  0.80272375  1
  Se  Se191  1  0.25162837  0.91935599  0.29865502  1
  Se  Se192  1  0.24916133  0.91470758  0.80222647  1
  Se  Se193  1  0.57889703  0.25228253  0.30017179  1
  Se  Se194  1  0.58615967  0.25188577  0.80260420  1
  Se  Se195  1  0.58567513  0.58606529  0.30731687  1
  Se  Se196  1  0.58191571  0.58509488  0.80126048  1
  Se  Se197  1  0.58270511  0.91161530  0.31356723  1
  Se  Se198  1  0.58399747  0.91894130  0.80691252  1
  Se  Se199  1  0.90701021  0.24960128  0.31229532  1
  Se  Se200  1  0.92246300  0.25123224  0.79481523  1
  Se  Se201  1  0.91936374  0.58361841  0.30442795  1
  Se  Se202  1  0.91879302  0.58432896  0.80233106  1
  Se  Se203  1  0.91218484  0.90740758  0.30888667  1
  Se  Se204  1  0.90897928  0.90706282  0.80837698  1
  Se  Se205  1  0.08748169  0.09087462  0.31021154  1
  Se  Se206  1  0.09073224  0.08670947  0.80713849  1
  Se  Se207  1  0.08858539  0.41807227  0.31377443  1
  Se  Se208  1  0.08250438  0.41244702  0.79957328  1
  Se  Se209  1  0.09176139  0.75758695  0.29505409  1
  Se  Se210  1  0.08163241  0.74451676  0.79784279  1
  Se  Se211  1  0.40779114  0.08530090  0.29855779  1
  Se  Se212  1  0.41687991  0.08140501  0.80494785  1
  Se  Se213  1  0.42090754  0.42759021  0.31563078  1
  Se  Se214  1  0.41803844  0.41781414  0.80065661  1
  Se  Se215  1  0.42212299  0.74956027  0.30754610  1
  Se  Se216  1  0.41504081  0.74569668  0.80428495  1
  Se  Se217  1  0.75023849  0.08475284  0.30962336  1
  Se  Se218  1  0.75411003  0.08359289  0.79805778  1
  Se  Se219  1  0.74563579  0.41743821  0.30819755  1
  Se  Se220  1  0.75106436  0.41609595  0.79919845  1
  Se  Se221  1  0.74997505  0.74559871  0.30382035  1
  Se  Se222  1  0.74488189  0.74581925  0.80223493  1
  Se  Se223  1  0.25224283  0.08756147  0.18958268  1
  Se  Se224  1  0.25540656  0.07635811  0.70262701  1
  Se  Se225  1  0.24127252  0.42793258  0.19295082  1
  Se  Se226  1  0.25528773  0.41408727  0.69463568  1
  Se  Se227  1  0.25939175  0.74304346  0.20641047  1
  Se  Se228  1  0.25226514  0.74819344  0.69600686  1
  Se  Se229  1  0.57333989  0.09138760  0.18762838  1
  Se  Se230  1  0.58498010  0.08226569  0.69829092  1
  Se  Se231  1  0.57802350  0.41331224  0.19604453  1
  Se  Se232  1  0.58752518  0.41532386  0.69991938  1
  Se  Se233  1  0.58907327  0.74674912  0.20047937  1
  Se  Se234  1  0.58015653  0.74819001  0.69871453  1
  Se  Se235  1  0.90898587  0.09261125  0.19419230  1
  Se  Se236  1  0.91475909  0.08791437  0.68375207  1
  Se  Se237  1  0.90231606  0.42764907  0.18604636  1
  Se  Se238  1  0.91910389  0.41686991  0.69515654  1
  Se  Se239  1  0.92133806  0.74534960  0.19280967  1
  Se  Se240  1  0.91729928  0.74453504  0.69983903  1
  Se  Se241  1  0.08697877  0.24738187  0.19176911  1
  Se  Se242  1  0.08768083  0.25236766  0.69760174  1
  Se  Se243  1  0.07695023  0.58556968  0.20284659  1
  Se  Se244  1  0.08677287  0.58195079  0.69568099  1
  Se  Se245  1  0.09600938  0.90757986  0.18656862  1
  Se  Se246  1  0.08905238  0.90898807  0.68626657  1
  Se  Se247  1  0.41452196  0.24674182  0.18470104  1
  Se  Se248  1  0.41679800  0.24991725  0.70152835  1
  Se  Se249  1  0.41808380  0.58405492  0.20014721  1
  Se  Se250  1  0.41457923  0.58361041  0.69205860  1
  Se  Se251  1  0.42232429  0.91728202  0.20015189  1
  Se  Se252  1  0.41584026  0.91422208  0.70200444  1
  Se  Se253  1  0.74192650  0.25794996  0.20231925  1
  Se  Se254  1  0.74999328  0.25330977  0.69319793  1
  Se  Se255  1  0.74850308  0.58355404  0.19730412  1
  Se  Se256  1  0.74813387  0.58473597  0.69872413  1
  Se  Se257  1  0.76235952  0.90930527  0.18871753  1
  Se  Se258  1  0.74406798  0.91592037  0.69841867  1
