# generated using pymatgen
data_In86Cu29Se144
_symmetry_space_group_name_H-M   'P 1'
_cell_length_a   17.57838716
_cell_length_b   17.57948326
_cell_length_c   23.43560239
_cell_angle_alpha   90.00279098
_cell_angle_beta   90.00914982
_cell_angle_gamma   89.99543052
_symmetry_Int_Tables_number   1
_chemical_formula_structural   In86Cu29Se144
_chemical_formula_sum   'In86 Cu29 Se144'
_cell_volume   7242.04542212
_cell_formula_units_Z   1
loop_
 _symmetry_equiv_pos_site_id
 _symmetry_equiv_pos_as_xyz
  1  'x, y, z'
loop_
 _atom_site_type_symbol
 _atom_site_label
 _atom_site_symmetry_multiplicity
 _atom_site_fract_x
 _atom_site_fract_y
 _atom_site_fract_z
 _atom_site_occupancy
  In  In0  1  -0.00969489  0.16533349  0.12468439  1
  In  In1  1  -0.00134035  0.18276110  0.62201256  1
  In  In2  1  0.02194431  0.49783839  0.12236987  1
  In  In3  1  0.00537659  0.48931736  0.62727725  1
  In  In4  1  -0.00400284  0.82096565  0.12253656  1
  In  In5  1  0.00428213  0.83395494  0.62094899  1
  In  In6  1  0.35276101  0.16626295  0.12225411  1
  In  In7  1  0.35155265  0.16575964  0.62374293  1
  In  In8  1  0.33562818  0.50176227  0.12664946  1
  In  In9  1  0.33320489  0.49849568  0.62379101  1
  In  In10  1  0.32211912  0.83558681  0.12588121  1
  In  In11  1  0.31748276  0.81458537  0.59998074  1
  In  In12  1  0.66765848  0.18022481  0.12724932  1
  In  In13  1  0.66252814  0.16291257  0.62771285  1
  In  In14  1  0.64722025  0.50260333  0.12248433  1
  In  In15  1  0.65305244  0.51189138  0.63506647  1
  In  In16  1  0.66613197  0.81928650  0.12265653  1
  In  In17  1  0.66331748  0.83308007  0.62434721  1
  In  In18  1  0.16379766  -0.00901755  0.37810728  1
  In  In19  1  0.15924938  -0.00844376  0.87474832  1
  In  In20  1  0.18580320  0.33427991  0.37412052  1
  In  In21  1  0.20534034  0.38166323  0.83282925  1
  In  In22  1  0.17141505  0.66558980  0.37890109  1
  In  In23  1  0.17795969  0.65896499  0.87879514  1
  In  In24  1  0.49681726  -0.00839760  0.38851896  1
  In  In25  1  0.52001081  0.00151692  0.87468987  1
  In  In26  1  0.50054451  0.33760985  0.38143699  1
  In  In27  1  0.50017767  0.33424498  0.87579496  1
  In  In28  1  0.48445468  0.66352063  0.39043887  1
  In  In29  1  0.48598184  0.65633933  0.86542504  1
  In  In30  1  0.83599863  -0.00162461  0.38681163  1
  In  In31  1  0.81340812  -0.00467416  0.87628700  1
  In  In32  1  0.81054524  0.34155332  0.37851157  1
  In  In33  1  0.83055180  0.33146574  0.86366993  1
  In  In34  1  0.84840493  0.66124076  0.37395226  1
  In  In35  1  0.83395757  0.68115559  0.87356958  1
  In  In36  1  -0.00115716  0.15691616  0.38112915  1
  In  In37  1  -0.00750205  0.17315578  0.87295109  1
  In  In38  1  -0.00471450  0.52249343  0.37138228  1
  In  In39  1  0.01997361  0.50520689  0.86958613  1
  In  In40  1  0.01368486  0.81703550  0.38528780  1
  In  In41  1  0.00255778  0.82449447  0.88197754  1
  In  In42  1  0.33887302  0.18474143  0.37403679  1
  In  In43  1  0.33257050  0.18519268  0.87406229  1
  In  In44  1  0.33625705  0.50225378  0.38425962  1
  In  In45  1  0.33992326  0.50643389  0.87696854  1
  In  In46  1  0.35262019  0.80565432  0.40682986  1
  In  In47  1  0.33385772  0.81675952  0.86927962  1
  In  In48  1  0.65141133  0.17953125  0.38687078  1
  In  In49  1  0.65833432  0.15993102  0.86869560  1
  In  In50  1  0.66868339  0.48114435  0.37377972  1
  In  In51  1  0.65260900  0.48851523  0.86424800  1
  In  In52  1  0.65887495  0.83872604  0.38505928  1
  In  In53  1  0.66852802  0.84299603  0.86472935  1
  In  In54  1  0.18019892  -0.00903299  0.12215655  1
  In  In55  1  0.17676220  -0.02288626  0.62418051  1
  In  In56  1  0.17298291  0.35299590  0.12127554  1
  In  In57  1  0.16273733  0.34884323  0.63265632  1
  In  In58  1  0.17140186  0.66374191  0.12653586  1
  In  In59  1  0.18794833  0.66525051  0.61885164  1
  In  In60  1  0.49107739  0.00353132  0.12184878  1
  In  In61  1  0.49975611  0.00662643  0.61675428  1
  In  In62  1  0.49800332  0.33657819  0.12580294  1
  In  In63  1  0.50077381  0.33302094  0.62940959  1
  In  In64  1  0.50498414  0.65382833  0.12695435  1
  In  In65  1  0.49511890  0.66732329  0.61949192  1
  In  In66  1  0.83964162  -0.00583416  0.12656595  1
  In  In67  1  0.81921832  -0.01235845  0.61844803  1
  In  In68  1  0.83023041  0.32213241  0.12600964  1
  In  In69  1  0.83403902  0.32496677  0.62820918  1
  In  In70  1  0.83034296  0.67804133  0.12563237  1
  In  In71  1  0.81797775  0.66621819  0.62520437  1
  In  In72  1  0.34288417  -0.00301112  0.74467104  1
  In  In73  1  0.83173761  0.50541818  -0.00184592  1
  In  In74  1  -0.00385907  0.00105288  0.74330907  1
  In  In75  1  0.00042187  0.33974687  0.24787649  1
  In  In76  1  0.50174207  0.83379445  -0.00390008  1
  In  In77  1  0.00737135  0.66388040  0.74748392  1
  In  In78  1  0.66422205  0.65979776  0.25147891  1
  In  In79  1  0.83054700  0.50062709  0.49907031  1
  In  In80  1  0.16203118  0.17063802  -0.00429192  1
  In  In81  1  0.82828872  0.15985053  -0.00069494  1
  In  In82  1  0.00148921  -0.00585433  0.25309119  1
  In  In83  1  0.33442374  -0.00577241  0.25699671  1
  In  In84  1  0.16809782  0.16495249  0.50509155  1
  In  In85  1  0.66108517  -0.00139789  0.26414024  1
  Cu  Cu86  1  0.82845336  0.83706704  0.74955435  1
  Cu  Cu87  1  0.50497480  0.17728125  0.25255059  1
  Cu  Cu88  1  0.16739523  0.17077663  0.74250404  1
  Cu  Cu89  1  0.82433687  0.17833381  0.25949264  1
  Cu  Cu90  1  0.50446688  0.16896122  0.74925190  1
  Cu  Cu91  1  0.66299842  0.66772560  -0.00420328  1
  Cu  Cu92  1  0.17380560  0.17589247  0.24833307  1
  Cu  Cu93  1  0.65719270  0.33283798  -0.00046216  1
  Cu  Cu94  1  0.66929295  0.00297487  0.50366762  1
  Cu  Cu95  1  0.49744244  0.82753627  0.74212957  1
  Cu  Cu96  1  0.33532961  -0.00162464  -0.00090729  1
  Cu  Cu97  1  0.17444229  0.50584512  0.25211860  1
  Cu  Cu98  1  0.83149974  0.49880483  0.74534342  1
  Cu  Cu99  1  0.82715925  0.16662066  0.74748376  1
  Cu  Cu100  1  0.16780620  0.81803392  0.25373399  1
  Cu  Cu101  1  0.49667050  0.49952841  0.74654817  1
  Cu  Cu102  1  0.49330989  0.49609387  0.25327402  1
  Cu  Cu103  1  -0.00056714  -0.01346474  0.00175273  1
  Cu  Cu104  1  0.66145004  0.33338917  0.50742872  1
  Cu  Cu105  1  0.00691903  0.66869442  -0.00017775  1
  Cu  Cu106  1  0.00250123  0.33950858  0.50287500  1
  Cu  Cu107  1  0.33930835  0.33519559  0.50347528  1
  Cu  Cu108  1  0.66424807  0.66837817  0.50441952  1
  Cu  Cu109  1  0.83257135  0.82971804  0.25253423  1
  Cu  Cu110  1  0.00315446  0.66759424  0.50103166  1
  Cu  Cu111  1  -0.00772574  0.00089686  0.50522838  1
  Cu  Cu112  1  0.33250324  0.66490255  0.00040861  1
  Cu  Cu113  1  0.00801836  0.34013267  -0.01107900  1
  Cu  Cu114  1  0.33508430  0.34054254  -0.00438277  1
  Se  Se115  1  0.07607366  0.07311761  0.06044729  1
  Se  Se116  1  0.07815136  0.07347067  0.56680963  1
  Se  Se117  1  0.09146031  0.42013570  0.04403557  1
  Se  Se118  1  0.08949783  0.42120298  0.55168601  1
  Se  Se119  1  0.09013271  0.74970690  0.05651844  1
  Se  Se120  1  0.08743555  0.74466454  0.55867011  1
  Se  Se121  1  0.42107257  0.08438106  0.04570169  1
  Se  Se122  1  0.41246259  0.08280393  0.54718690  1
  Se  Se123  1  0.41688745  0.41914650  0.05555968  1
  Se  Se124  1  0.42319653  0.41659400  0.55798076  1
  Se  Se125  1  0.41426116  0.74587155  0.06069970  1
  Se  Se126  1  0.42912074  0.75569041  0.54487179  1
  Se  Se127  1  0.74192426  0.07459995  0.06488821  1
  Se  Se128  1  0.75121686  0.08892226  0.55566577  1
  Se  Se129  1  0.74403030  0.41005798  0.05767805  1
  Se  Se130  1  0.74258154  0.41750459  0.56521419  1
  Se  Se131  1  0.74891991  0.74739706  0.04880075  1
  Se  Se132  1  0.75005844  0.75322191  0.55282381  1
  Se  Se133  1  0.25739089  0.25499789  0.05753452  1
  Se  Se134  1  0.25445973  0.25805745  0.56469643  1
  Se  Se135  1  0.25089651  0.58046195  0.05555804  1
  Se  Se136  1  0.26944379  0.58705789  0.54568792  1
  Se  Se137  1  0.25093779  0.91158064  0.04652241  1
  Se  Se138  1  0.26103331  0.92951784  0.54323790  1
  Se  Se139  1  0.57892205  0.24922169  0.05631303  1
  Se  Se140  1  0.57925673  0.24654382  0.55883102  1
  Se  Se141  1  0.57835322  0.58373140  0.04625241  1
  Se  Se142  1  0.58238276  0.58013795  0.55336316  1
  Se  Se143  1  0.58922987  0.92067356  0.06053798  1
  Se  Se144  1  0.58469393  0.91744761  0.55356441  1
  Se  Se145  1  0.92690995  0.25969125  0.04885592  1
  Se  Se146  1  0.91433671  0.25551445  0.54914934  1
  Se  Se147  1  0.92511279  0.58899270  0.06066897  1
  Se  Se148  1  0.92188399  0.58777740  0.56244556  1
  Se  Se149  1  0.91338712  0.90892874  0.05672873  1
  Se  Se150  1  0.91333492  0.91030968  0.55497328  1
  Se  Se151  1  0.08168823  0.25755628  0.44044312  1
  Se  Se152  1  0.08678655  0.26098458  0.92895325  1
  Se  Se153  1  0.08305994  0.58189487  0.44703719  1
  Se  Se154  1  0.08819174  0.58260691  0.94811269  1
  Se  Se155  1  0.07656843  0.92078453  0.44951482  1
  Se  Se156  1  0.08743578  0.90931435  0.94852779  1
  Se  Se157  1  0.42146122  0.25002482  0.45118693  1
  Se  Se158  1  0.41859359  0.25174595  0.94801027  1
  Se  Se159  1  0.39581859  0.59107185  0.46279259  1
  Se  Se160  1  0.42113047  0.58486783  0.94946106  1
  Se  Se161  1  0.39684203  0.93102243  0.45455499  1
  Se  Se162  1  0.41137320  0.92147776  0.93283521  1
  Se  Se163  1  0.74725976  0.25319521  0.45282992  1
  Se  Se164  1  0.74455850  0.25706901  0.94090012  1
  Se  Se165  1  0.74105853  0.59030779  0.43815957  1
  Se  Se166  1  0.74130062  0.58728327  0.93337058  1
  Se  Se167  1  0.74997111  0.91516401  0.45097955  1
  Se  Se168  1  0.74566592  0.90692535  0.94589621  1
  Se  Se169  1  0.25296190  0.08719497  0.43457628  1
  Se  Se170  1  0.25508112  0.07845364  0.93720108  1
  Se  Se171  1  0.25095979  0.41474033  0.45141640  1
  Se  Se172  1  0.24974460  0.41433176  0.93639813  1
  Se  Se173  1  0.22377032  0.76740690  0.44902662  1
  Se  Se174  1  0.25216855  0.75088931  0.94722549  1
  Se  Se175  1  0.58116502  0.08156000  0.44985620  1
  Se  Se176  1  0.59453910  0.08026287  0.94758685  1
  Se  Se177  1  0.58388047  0.42022823  0.45173318  1
  Se  Se178  1  0.57989634  0.42107886  0.94618608  1
  Se  Se179  1  0.57949541  0.74852312  0.44906385  1
  Se  Se180  1  0.58342080  0.74347258  0.93116765  1
  Se  Se181  1  0.91267059  0.08897641  0.45405637  1
  Se  Se182  1  0.92408415  0.07046724  0.94049322  1
  Se  Se183  1  0.92316752  0.41395178  0.43675341  1
  Se  Se184  1  0.91812784  0.41611179  0.93434844  1
  Se  Se185  1  0.91389958  0.74713140  0.44964934  1
  Se  Se186  1  0.91523877  0.74829622  0.95113132  1
  Se  Se187  1  0.25973547  0.25765608  0.29750400  1
  Se  Se188  1  0.25504568  0.25019342  0.79487334  1
  Se  Se189  1  0.25630079  0.58381007  0.31110701  1
  Se  Se190  1  0.24177599  0.56889148  0.80631043  1
  Se  Se191  1  0.24508631  0.90195885  0.31247983  1
  Se  Se192  1  0.24783757  0.91209303  0.80597284  1
  Se  Se193  1  0.58609135  0.25965388  0.30812997  1
  Se  Se194  1  0.58463063  0.25410012  0.80452377  1
  Se  Se195  1  0.57343828  0.57561874  0.31602547  1
  Se  Se196  1  0.58142118  0.58490759  0.79891085  1
  Se  Se197  1  0.56427799  0.90337587  0.30980082  1
  Se  Se198  1  0.57710788  0.91543036  0.79569481  1
  Se  Se199  1  0.91600680  0.25056508  0.31525660  1
  Se  Se200  1  0.91562672  0.24753742  0.79755183  1
  Se  Se201  1  0.90616905  0.57764826  0.29557047  1
  Se  Se202  1  0.91051694  0.57854239  0.80865314  1
  Se  Se203  1  0.91336985  0.90643573  0.31520528  1
  Se  Se204  1  0.91362689  0.91126496  0.81074191  1
  Se  Se205  1  0.09475028  0.09308300  0.30583870  1
  Se  Se206  1  0.08960413  0.09089035  0.80468316  1
  Se  Se207  1  0.09209938  0.42372658  0.31145765  1
  Se  Se208  1  0.06873950  0.40675585  0.79836365  1
  Se  Se209  1  0.07975513  0.73910842  0.30605000  1
  Se  Se210  1  0.09305580  0.75316387  0.81021511  1
  Se  Se211  1  0.42812708  0.08967528  0.31125570  1
  Se  Se212  1  0.42259851  0.08966317  0.81175408  1
  Se  Se213  1  0.41336336  0.41615937  0.31282214  1
  Se  Se214  1  0.41880846  0.41845714  0.80703056  1
  Se  Se215  1  0.41265858  0.74798971  0.31737393  1
  Se  Se216  1  0.41220248  0.74416724  0.79388677  1
  Se  Se217  1  0.75295012  0.09181873  0.31937913  1
  Se  Se218  1  0.74793991  0.08101708  0.80148367  1
  Se  Se219  1  0.76236474  0.42824420  0.29860612  1
  Se  Se220  1  0.74671535  0.41514367  0.79812304  1
  Se  Se221  1  0.74861603  0.75521480  0.31379016  1
  Se  Se222  1  0.74719761  0.74930812  0.80050139  1
  Se  Se223  1  0.25026277  0.08929553  0.19029591  1
  Se  Se224  1  0.24515598  0.08593095  0.68604763  1
  Se  Se225  1  0.25381355  0.41818883  0.19835596  1
  Se  Se226  1  0.25929842  0.41535014  0.69882700  1
  Se  Se227  1  0.25633695  0.74458066  0.19719735  1
  Se  Se228  1  0.25462420  0.75817577  0.68889744  1
  Se  Se229  1  0.57873353  0.08779901  0.19462507  1
  Se  Se230  1  0.57835592  0.07789391  0.69545062  1
  Se  Se231  1  0.58046327  0.41835285  0.19768264  1
  Se  Se232  1  0.58469224  0.41356777  0.69998692  1
  Se  Se233  1  0.57351481  0.75557797  0.19604387  1
  Se  Se234  1  0.58331695  0.74423141  0.69069757  1
  Se  Se235  1  0.90344957  0.09261549  0.20177703  1
  Se  Se236  1  0.90654692  0.08979330  0.68374540  1
  Se  Se237  1  0.91365004  0.42331150  0.18167170  1
  Se  Se238  1  0.91490150  0.41508374  0.69393190  1
  Se  Se239  1  0.91672958  0.74843904  0.19910430  1
  Se  Se240  1  0.91034608  0.75538812  0.69174631  1
  Se  Se241  1  0.08933797  0.24607649  0.18506754  1
  Se  Se242  1  0.08078377  0.25541594  0.69473489  1
  Se  Se243  1  0.08682865  0.58317671  0.19784543  1
  Se  Se244  1  0.09806641  0.57686873  0.68816752  1
  Se  Se245  1  0.09436286  0.90709195  0.19333859  1
  Se  Se246  1  0.09211923  0.90251552  0.69925372  1
  Se  Se247  1  0.41660357  0.25265280  0.19709741  1
  Se  Se248  1  0.41635342  0.25049427  0.69975931  1
  Se  Se249  1  0.41713355  0.58419125  0.19839783  1
  Se  Se250  1  0.41666215  0.58419431  0.69166981  1
  Se  Se251  1  0.42381721  0.90871852  0.19216313  1
  Se  Se252  1  0.41864911  0.90512031  0.67861677  1
  Se  Se253  1  0.74435673  0.25779421  0.20218498  1
  Se  Se254  1  0.74292464  0.25094672  0.69593450  1
  Se  Se255  1  0.75147043  0.57610899  0.18497667  1
  Se  Se256  1  0.74648313  0.58783307  0.70120832  1
  Se  Se257  1  0.75032676  0.91129581  0.19624518  1
  Se  Se258  1  0.74301726  0.91813879  0.69695175  1
