# generated using pymatgen
data_In86Cu29Se144
_symmetry_space_group_name_H-M   'P 1'
_cell_length_a   17.57127933
_cell_length_b   17.57107173
_cell_length_c   23.42454668
_cell_angle_alpha   89.99500810
_cell_angle_beta   89.99389210
_cell_angle_gamma   89.98180534
_symmetry_Int_Tables_number   1
_chemical_formula_structural   In86Cu29Se144
_chemical_formula_sum   'In86 Cu29 Se144'
_cell_volume   7232.23956309
_cell_formula_units_Z   1
loop_
 _symmetry_equiv_pos_site_id
 _symmetry_equiv_pos_as_xyz
  1  'x, y, z'
loop_
 _atom_site_type_symbol
 _atom_site_label
 _atom_site_symmetry_multiplicity
 _atom_site_fract_x
 _atom_site_fract_y
 _atom_site_fract_z
 _atom_site_occupancy
  In  In0  1  -0.00762960  0.15700305  0.10891923  1
  In  In1  1  -0.01538229  0.17169731  0.62865995  1
  In  In2  1  0.01630654  0.50308404  0.11738965  1
  In  In3  1  0.01387961  0.50061206  0.62465728  1
  In  In4  1  -0.00082794  0.83973146  0.12456663  1
  In  In5  1  0.00075899  0.83046273  0.63372655  1
  In  In6  1  0.32223014  0.15602120  0.11138252  1
  In  In7  1  0.33095415  0.16615868  0.64519101  1
  In  In8  1  0.33649847  0.50775572  0.11495586  1
  In  In9  1  0.30451879  0.51790675  0.65771363  1
  In  In10  1  0.33601070  0.82616837  0.12388755  1
  In  In11  1  0.33734683  0.82568706  0.63359858  1
  In  In12  1  0.66773388  0.16573274  0.11098435  1
  In  In13  1  0.68337336  0.15367655  0.64836641  1
  In  In14  1  0.66319658  0.51757358  0.11678156  1
  In  In15  1  0.66350844  0.50419752  0.64071036  1
  In  In16  1  0.66595063  0.82912364  0.10992115  1
  In  In17  1  0.66340102  0.84196740  0.62984727  1
  In  In18  1  0.16344975  -0.00173919  0.36541804  1
  In  In19  1  0.17209582  0.01918102  0.85577614  1
  In  In20  1  0.17335189  0.34080669  0.38400518  1
  In  In21  1  0.17696798  0.32852245  0.87289515  1
  In  In22  1  0.16433997  0.66081017  0.37069818  1
  In  In23  1  0.16154707  0.65131329  0.86678038  1
  In  In24  1  0.48481359  -0.00263739  0.37443930  1
  In  In25  1  0.50338611  -0.00151956  0.87717437  1
  In  In26  1  0.50523505  0.33197148  0.37810015  1
  In  In27  1  0.49863283  0.33388766  0.87643342  1
  In  In28  1  0.50416671  0.68570773  0.38059635  1
  In  In29  1  0.49500045  0.66839608  0.87160553  1
  In  In30  1  0.84636422  -0.00681815  0.37793681  1
  In  In31  1  0.83014722  0.00339059  0.86962594  1
  In  In32  1  0.82330984  0.32664993  0.38227884  1
  In  In33  1  0.81791949  0.32679397  0.86775853  1
  In  In34  1  0.83922875  0.66263305  0.37725829  1
  In  In35  1  0.84330419  0.68035492  0.86986513  1
  In  In36  1  0.00143534  0.15134558  0.37888085  1
  In  In37  1  0.00652413  0.15963961  0.87247197  1
  In  In38  1  0.00504887  0.51799927  0.37979317  1
  In  In39  1  0.00724799  0.51675905  0.87644262  1
  In  In40  1  0.00345482  0.83547007  0.36859658  1
  In  In41  1  -0.01203260  0.82377549  0.87852502  1
  In  In42  1  0.34067882  0.16031425  0.37353198  1
  In  In43  1  0.33226409  0.17381736  0.86983543  1
  In  In44  1  0.31628741  0.50010329  0.37962107  1
  In  In45  1  0.32811844  0.50262106  0.87189715  1
  In  In46  1  0.33731073  0.83728264  0.37260900  1
  In  In47  1  0.34501271  0.84362371  0.87014890  1
  In  In48  1  0.67173493  0.17650438  0.38173045  1
  In  In49  1  0.67157543  0.16118002  0.87290871  1
  In  In50  1  0.67130351  0.50392294  0.38165175  1
  In  In51  1  0.65131326  0.49176189  0.86564002  1
  In  In52  1  0.65403193  0.82333382  0.38392438  1
  In  In53  1  0.66694592  0.83564230  0.87329174  1
  In  In54  1  0.15900423  0.00419279  0.12332765  1
  In  In55  1  0.16409599  0.00479507  0.64582553  1
  In  In56  1  0.17286795  0.33796189  0.10872404  1
  In  In57  1  0.15805728  0.36586980  0.63656865  1
  In  In58  1  0.17277485  0.66695899  0.12507230  1
  In  In59  1  0.16443807  0.66390903  0.63353399  1
  In  In60  1  0.48732813  -0.01258695  0.10906810  1
  In  In61  1  0.50212096  -0.00175927  0.63228952  1
  In  In62  1  0.49786369  0.33332760  0.11210211  1
  In  In63  1  0.50210931  0.33217809  0.63723019  1
  In  In64  1  0.49474306  0.66200422  0.11061968  1
  In  In65  1  0.49929439  0.67390422  0.62710102  1
  In  In66  1  0.84267440  0.00468762  0.11354050  1
  In  In67  1  0.83196118  0.01213366  0.64193967  1
  In  In68  1  0.84748584  0.32547650  0.11589211  1
  In  In69  1  0.84238137  0.30934109  0.63368858  1
  In  In70  1  0.83749235  0.68024094  0.11786773  1
  In  In71  1  0.83429660  0.66455457  0.63378045  1
  In  In72  1  0.00345343  0.32971490  0.24641520  1
  In  In73  1  0.00236109  0.33251504  0.75485869  1
  In  In74  1  0.17050546  0.83131418  0.50826805  1
  In  In75  1  0.16616516  0.83383648  -0.00689238  1
  In  In76  1  0.82545478  0.49022451  -0.00780018  1
  In  In77  1  0.83638409  0.49668565  0.50500964  1
  In  In78  1  0.66209644  0.32965537  0.25060096  1
  In  In79  1  0.49992309  0.16720937  0.50030749  1
  In  In80  1  0.66903482  0.67154924  0.25647845  1
  In  In81  1  0.66968264  0.00069571  0.24539341  1
  In  In82  1  0.32903766  0.33015685  0.25436258  1
  In  In83  1  0.49451855  0.50365355  0.51232766  1
  In  In84  1  0.83172790  0.83303635  0.50202227  1
  In  In85  1  0.16254099  0.17193249  0.50550502  1
  Cu  Cu86  1  0.49205301  0.50821487  0.24129912  1
  Cu  Cu87  1  0.00274478  0.32755813  -0.00936280  1
  Cu  Cu88  1  0.66020714  0.32890253  -0.00888370  1
  Cu  Cu89  1  0.67165910  0.00011438  -0.00734164  1
  Cu  Cu90  1  0.33054471  0.66625307  -0.00452092  1
  Cu  Cu91  1  0.49624068  0.83209347  0.24427962  1
  Cu  Cu92  1  0.67019345  0.00400541  0.51582979  1
  Cu  Cu93  1  0.49507199  0.50214468  0.75428290  1
  Cu  Cu94  1  0.66311224  0.66546206  -0.01156878  1
  Cu  Cu95  1  0.32987740  0.66322002  0.51219376  1
  Cu  Cu96  1  0.83476521  0.50345354  0.75583084  1
  Cu  Cu97  1  0.32621389  0.34151472  0.51552759  1
  Cu  Cu98  1  0.33177854  0.00651610  -0.01066477  1
  Cu  Cu99  1  0.84103294  0.15925432  0.24370365  1
  Cu  Cu100  1  0.17304324  0.83321159  0.24679782  1
  Cu  Cu101  1  0.16322927  0.82861651  0.75939358  1
  Cu  Cu102  1  0.16785181  0.50708649  0.24813586  1
  Cu  Cu103  1  0.33577681  0.33457545  -0.00798149  1
  Cu  Cu104  1  0.33375543  -0.00337892  0.50249371  1
  Cu  Cu105  1  0.48705096  0.15369474  0.23879670  1
  Cu  Cu106  1  0.16011968  0.16128076  0.24121434  1
  Cu  Cu107  1  0.84272569  0.83749312  0.24511731  1
  Cu  Cu108  1  0.00098018  -0.00423475  -0.00774234  1
  Cu  Cu109  1  0.50057947  0.83399232  0.75107845  1
  Cu  Cu110  1  0.67442993  0.32628554  0.51286826  1
  Cu  Cu111  1  -0.00380799  0.00068914  0.50341580  1
  Cu  Cu112  1  0.84471325  0.50818403  0.25211942  1
  Cu  Cu113  1  0.50404088  0.16562312  0.76159234  1
  Cu  Cu114  1  0.83066038  0.83375765  0.75192943  1
  Se  Se115  1  0.08612528  0.08005801  0.04526627  1
  Se  Se116  1  0.08001525  0.07425280  0.56454916  1
  Se  Se117  1  0.08189254  0.41547920  0.04361703  1
  Se  Se118  1  0.07578640  0.40747364  0.55267974  1
  Se  Se119  1  0.07926589  0.74642009  0.05681290  1
  Se  Se120  1  0.07459121  0.74178407  0.55969746  1
  Se  Se121  1  0.41851729  0.08673459  0.04469475  1
  Se  Se122  1  0.40722115  0.08385600  0.56257529  1
  Se  Se123  1  0.41583838  0.42036051  0.04795798  1
  Se  Se124  1  0.40736115  0.41890664  0.57566329  1
  Se  Se125  1  0.41418162  0.75282847  0.04706296  1
  Se  Se126  1  0.41475162  0.75232966  0.55575260  1
  Se  Se127  1  0.75525454  0.08406070  0.04684107  1
  Se  Se128  1  0.75476930  0.08728290  0.56456836  1
  Se  Se129  1  0.73690940  0.40404340  0.06074211  1
  Se  Se130  1  0.74786967  0.41293961  0.57155070  1
  Se  Se131  1  0.74904107  0.74458938  0.04382545  1
  Se  Se132  1  0.74502459  0.74554606  0.56408282  1
  Se  Se133  1  0.25012884  0.24849479  0.04357140  1
  Se  Se134  1  0.25193612  0.25225472  0.57128341  1
  Se  Se135  1  0.24537300  0.58511599  0.04951225  1
  Se  Se136  1  0.24951421  0.58001654  0.56565501  1
  Se  Se137  1  0.25626256  0.92408483  0.05466012  1
  Se  Se138  1  0.25273599  0.92728213  0.56827115  1
  Se  Se139  1  0.57778996  0.24541041  0.04660965  1
  Se  Se140  1  0.58827227  0.24544924  0.56817109  1
  Se  Se141  1  0.57920209  0.58136772  0.04092089  1
  Se  Se142  1  0.59555997  0.58967130  0.56187833  1
  Se  Se143  1  0.58541316  0.91643759  0.04527949  1
  Se  Se144  1  0.57992460  0.91981033  0.55744022  1
  Se  Se145  1  0.91502311  0.24465319  0.03975514  1
  Se  Se146  1  0.92260084  0.25497995  0.55157198  1
  Se  Se147  1  0.91415177  0.57892529  0.05473900  1
  Se  Se148  1  0.92456078  0.59142005  0.55998211  1
  Se  Se149  1  0.91958395  0.91282092  0.04809669  1
  Se  Se150  1  0.91695746  0.92302972  0.56580190  1
  Se  Se151  1  0.07308604  0.25656073  0.44007408  1
  Se  Se152  1  0.08855226  0.24564810  0.93873963  1
  Se  Se153  1  0.09693826  0.58226404  0.44909196  1
  Se  Se154  1  0.09044658  0.58571197  0.95023904  1
  Se  Se155  1  0.08046468  0.92396325  0.44495709  1
  Se  Se156  1  0.08558294  0.92625257  0.92881590  1
  Se  Se157  1  0.40239151  0.26404850  0.44733484  1
  Se  Se158  1  0.41770704  0.24652269  0.94366397  1
  Se  Se159  1  0.40895244  0.58918843  0.44318284  1
  Se  Se160  1  0.41466548  0.58321012  0.94150884  1
  Se  Se161  1  0.41668266  0.91345944  0.44943864  1
  Se  Se162  1  0.41908343  0.91685129  0.94819005  1
  Se  Se163  1  0.75514100  0.24213189  0.45822001  1
  Se  Se164  1  0.75052859  0.24701368  0.94540496  1
  Se  Se165  1  0.74418952  0.59683694  0.45021087  1
  Se  Se166  1  0.74482487  0.58370044  0.92949749  1
  Se  Se167  1  0.73882089  0.92684089  0.44344063  1
  Se  Se168  1  0.75479524  0.91480289  0.94150481  1
  Se  Se169  1  0.25265385  0.07741676  0.44316964  1
  Se  Se170  1  0.24607630  0.08726829  0.93725254  1
  Se  Se171  1  0.24592992  0.42265337  0.45806177  1
  Se  Se172  1  0.24836814  0.41854378  0.94388548  1
  Se  Se173  1  0.25764333  0.74463398  0.44387942  1
  Se  Se174  1  0.25559733  0.74615953  0.93180824  1
  Se  Se175  1  0.59005020  0.07370271  0.44089116  1
  Se  Se176  1  0.58519333  0.08480006  0.94450385  1
  Se  Se177  1  0.59323244  0.40842177  0.45230628  1
  Se  Se178  1  0.57895086  0.42059203  0.94622321  1
  Se  Se179  1  0.58273436  0.74786547  0.45988137  1
  Se  Se180  1  0.57891049  0.75293595  0.93997891  1
  Se  Se181  1  0.91109835  0.08335137  0.45109311  1
  Se  Se182  1  0.91777418  0.08166158  0.94045823  1
  Se  Se183  1  0.92133281  0.41308408  0.43641592  1
  Se  Se184  1  0.92165235  0.40725340  0.93085399  1
  Se  Se185  1  0.92840428  0.74805883  0.44388584  1
  Se  Se186  1  0.91663223  0.74240951  0.95311777  1
  Se  Se187  1  0.23440300  0.23704896  0.31079665  1
  Se  Se188  1  0.24753152  0.24822712  0.79682486  1
  Se  Se189  1  0.25601481  0.58497991  0.30196092  1
  Se  Se190  1  0.25491748  0.58545487  0.79746563  1
  Se  Se191  1  0.25347104  0.91743076  0.30321130  1
  Se  Se192  1  0.25146025  0.91598025  0.80256903  1
  Se  Se193  1  0.56753685  0.23101167  0.30443507  1
  Se  Se194  1  0.58737928  0.25326923  0.81019464  1
  Se  Se195  1  0.57459168  0.57557499  0.31081708  1
  Se  Se196  1  0.58190061  0.58985216  0.80116634  1
  Se  Se197  1  0.57879338  0.90933824  0.30642119  1
  Se  Se198  1  0.58336174  0.91825634  0.80412153  1
  Se  Se199  1  0.90993246  0.24368059  0.30920850  1
  Se  Se200  1  0.90756516  0.23937113  0.80601968  1
  Se  Se201  1  0.92506484  0.59250227  0.30406007  1
  Se  Se202  1  0.92074329  0.58751137  0.80412244  1
  Se  Se203  1  0.92277210  0.92191967  0.30065173  1
  Se  Se204  1  0.91553994  0.91221678  0.80780306  1
  Se  Se205  1  0.07802377  0.08300102  0.29992068  1
  Se  Se206  1  0.06617362  0.07821417  0.79083990  1
  Se  Se207  1  0.09102422  0.42166749  0.30809691  1
  Se  Se208  1  0.09153150  0.42574532  0.81066695  1
  Se  Se209  1  0.08986227  0.75300815  0.30399076  1
  Se  Se210  1  0.07667517  0.74607493  0.80912759  1
  Se  Se211  1  0.40793682  0.07430636  0.29863544  1
  Se  Se212  1  0.41721706  0.08022940  0.80924360  1
  Se  Se213  1  0.42440512  0.42320377  0.30992516  1
  Se  Se214  1  0.41508269  0.41614375  0.80734830  1
  Se  Se215  1  0.41954566  0.75040526  0.30477340  1
  Se  Se216  1  0.41309758  0.75015567  0.80044539  1
  Se  Se217  1  0.75656682  0.09018469  0.30986843  1
  Se  Se218  1  0.74459538  0.07903088  0.79894387  1
  Se  Se219  1  0.75896985  0.42530494  0.30682431  1
  Se  Se220  1  0.74632288  0.41788718  0.80006424  1
  Se  Se221  1  0.76139466  0.76714384  0.31302658  1
  Se  Se222  1  0.74640252  0.74884151  0.80359839  1
  Se  Se223  1  0.25063916  0.08189142  0.19107508  1
  Se  Se224  1  0.25835639  0.07437455  0.71047333  1
  Se  Se225  1  0.24562022  0.42069055  0.18921077  1
  Se  Se226  1  0.26584729  0.39321802  0.70814376  1
  Se  Se227  1  0.25460593  0.74746831  0.19542730  1
  Se  Se228  1  0.24585614  0.75080136  0.69989495  1
  Se  Se229  1  0.57743220  0.08334517  0.18092287  1
  Se  Se230  1  0.58089604  0.07956238  0.70413417  1
  Se  Se231  1  0.57840459  0.42635774  0.18782012  1
  Se  Se232  1  0.58257623  0.41672998  0.70565592  1
  Se  Se233  1  0.58088753  0.75225319  0.18680222  1
  Se  Se234  1  0.58489618  0.75235809  0.69674848  1
  Se  Se235  1  0.92379061  0.07886569  0.18906622  1
  Se  Se236  1  0.93867309  0.07366336  0.70392753  1
  Se  Se237  1  0.91306939  0.42394621  0.18773334  1
  Se  Se238  1  0.91191217  0.42290892  0.69253811  1
  Se  Se239  1  0.92088066  0.74860815  0.19307167  1
  Se  Se240  1  0.91639549  0.74880531  0.70127502  1
  Se  Se241  1  0.08927844  0.24609824  0.17893455  1
  Se  Se242  1  0.08991348  0.24783838  0.68842871  1
  Se  Se243  1  0.08303109  0.58650424  0.19326270  1
  Se  Se244  1  0.08578946  0.57594319  0.70057504  1
  Se  Se245  1  0.08730452  0.91498068  0.19389027  1
  Se  Se246  1  0.08053748  0.91132756  0.70405312  1
  Se  Se247  1  0.41522278  0.24745003  0.18439229  1
  Se  Se248  1  0.42241526  0.24845797  0.70619572  1
  Se  Se249  1  0.41267650  0.59168547  0.18779695  1
  Se  Se250  1  0.42037042  0.58965258  0.69821212  1
  Se  Se251  1  0.41590728  0.91710559  0.19046135  1
  Se  Se252  1  0.41505180  0.91714810  0.69855111  1
  Se  Se253  1  0.75796999  0.24330552  0.18819812  1
  Se  Se254  1  0.74371122  0.26196873  0.70634555  1
  Se  Se255  1  0.75683794  0.58242018  0.19202144  1
  Se  Se256  1  0.74963821  0.58869764  0.70474795  1
  Se  Se257  1  0.75550236  0.90822182  0.18381255  1
  Se  Se258  1  0.74793545  0.91953202  0.70041930  1
