# generated using pymatgen
data_In86Cu29Se144
_symmetry_space_group_name_H-M   'P 1'
_cell_length_a   17.57458657
_cell_length_b   17.57445559
_cell_length_c   23.44395454
_cell_angle_alpha   89.98141409
_cell_angle_beta   89.98603637
_cell_angle_gamma   89.96743910
_symmetry_Int_Tables_number   1
_chemical_formula_structural   In86Cu29Se144
_chemical_formula_sum   'In86 Cu29 Se144'
_cell_volume   7240.98691599
_cell_formula_units_Z   1
loop_
 _symmetry_equiv_pos_site_id
 _symmetry_equiv_pos_as_xyz
  1  'x, y, z'
loop_
 _atom_site_type_symbol
 _atom_site_label
 _atom_site_symmetry_multiplicity
 _atom_site_fract_x
 _atom_site_fract_y
 _atom_site_fract_z
 _atom_site_occupancy
  In  In0  1  0.01059232  0.16519552  0.14788129  1
  In  In1  1  -0.01148434  0.15700553  0.61191121  1
  In  In2  1  0.00723970  0.49853390  0.13063012  1
  In  In3  1  -0.00515831  0.50921453  0.62155374  1
  In  In4  1  0.01070358  0.82608165  0.13489181  1
  In  In5  1  -0.00194828  0.84787387  0.62464324  1
  In  In6  1  0.33964372  0.15391916  0.12411959  1
  In  In7  1  0.32061888  0.16420692  0.61791670  1
  In  In8  1  0.34436405  0.51217452  0.12018792  1
  In  In9  1  0.36134468  0.49743252  0.63232662  1
  In  In10  1  0.32467056  0.82744484  0.11608063  1
  In  In11  1  0.34225712  0.82407369  0.63655840  1
  In  In12  1  0.66245152  0.17160571  0.12986307  1
  In  In13  1  0.67603986  0.15823296  0.63068923  1
  In  In14  1  0.65500970  0.49683876  0.12195330  1
  In  In15  1  0.66180938  0.49690510  0.62628391  1
  In  In16  1  0.67167873  0.84297628  0.11822376  1
  In  In17  1  0.67003153  0.83061861  0.62533807  1
  In  In18  1  0.15768823  0.02509060  0.38044148  1
  In  In19  1  0.15877698  -0.00903217  0.86991664  1
  In  In20  1  0.15497477  0.32922371  0.36935868  1
  In  In21  1  0.18293416  0.33988029  0.88008248  1
  In  In22  1  0.17034907  0.66999861  0.36600580  1
  In  In23  1  0.17481595  0.65483890  0.89054894  1
  In  In24  1  0.50169846  -0.00875693  0.37451652  1
  In  In25  1  0.49717847  0.00054447  0.87188002  1
  In  In26  1  0.51706742  0.32947670  0.37503696  1
  In  In27  1  0.50300097  0.32658536  0.87800236  1
  In  In28  1  0.48635420  0.66426199  0.37222397  1
  In  In29  1  0.50537401  0.67118787  0.87766272  1
  In  In30  1  0.83081827  -0.00118916  0.37873396  1
  In  In31  1  0.83362993  -0.00592887  0.86173555  1
  In  In32  1  0.83089441  0.33356924  0.37665491  1
  In  In33  1  0.82209122  0.34227770  0.87103841  1
  In  In34  1  0.83439979  0.65782053  0.38150680  1
  In  In35  1  0.82960270  0.67713492  0.87366344  1
  In  In36  1  -0.00256533  0.16406220  0.37279597  1
  In  In37  1  0.00926600  0.15586445  0.87626257  1
  In  In38  1  -0.00615387  0.49334180  0.36673163  1
  In  In39  1  0.00594151  0.51169986  0.87966203  1
  In  In40  1  -0.00891759  0.82319300  0.36856088  1
  In  In41  1  -0.00416289  0.84083548  0.87929013  1
  In  In42  1  0.31983813  0.16242128  0.38776161  1
  In  In43  1  0.34614099  0.17219224  0.87367564  1
  In  In44  1  0.32835965  0.51057975  0.37745028  1
  In  In45  1  0.33466699  0.50697791  0.88083268  1
  In  In46  1  0.34101139  0.82771044  0.37354061  1
  In  In47  1  0.33300625  0.83387109  0.87683034  1
  In  In48  1  0.67174733  0.17049495  0.37272899  1
  In  In49  1  0.65909676  0.15547236  0.86263546  1
  In  In50  1  0.67348464  0.49021208  0.38114531  1
  In  In51  1  0.65315568  0.49587175  0.86391230  1
  In  In52  1  0.66938843  0.85019938  0.37229742  1
  In  In53  1  0.64921868  0.81596508  0.86036370  1
  In  In54  1  0.16854187  -0.00821647  0.12725648  1
  In  In55  1  0.16276196  -0.00019665  0.62732641  1
  In  In56  1  0.15373222  0.33382721  0.13210170  1
  In  In57  1  0.18418461  0.32284139  0.61768776  1
  In  In58  1  0.16847367  0.67414644  0.12262623  1
  In  In59  1  0.16924271  0.67360841  0.63010956  1
  In  In60  1  0.50525422  0.00319430  0.11711993  1
  In  In61  1  0.50519237  -0.00596207  0.63333638  1
  In  In62  1  0.50807803  0.33915060  0.12116855  1
  In  In63  1  0.49743682  0.35347870  0.62082156  1
  In  In64  1  0.49680324  0.65548407  0.11045541  1
  In  In65  1  0.51858797  0.64752874  0.64747536  1
  In  In66  1  0.82838255  0.00507861  0.13404060  1
  In  In67  1  0.83089076  0.00442843  0.61829806  1
  In  In68  1  0.84020139  0.33102844  0.13745376  1
  In  In69  1  0.82170627  0.32221033  0.61479222  1
  In  In70  1  0.83753838  0.67766840  0.12595559  1
  In  In71  1  0.82085670  0.65347576  0.61194384  1
  In  In72  1  0.50574975  0.83062841  0.50507474  1
  In  In73  1  0.33666457  0.33007688  0.74958543  1
  In  In74  1  0.83105469  0.50320019  0.00165043  1
  In  In75  1  -0.00559978  0.32518668  0.74544240  1
  In  In76  1  0.17481707  0.16955392  0.00556001  1
  In  In77  1  0.16524598  0.49451756  0.49882241  1
  In  In78  1  0.83151358  0.16887284  0.00903223  1
  In  In79  1  0.50220460  0.16746468  0.50038399  1
  In  In80  1  0.83109661  0.83222445  -0.00249455  1
  In  In81  1  0.66645898  0.66839157  0.24050292  1
  In  In82  1  -0.00261413  0.67481546  0.75658343  1
  In  In83  1  0.32821775  -0.00178086  0.25476307  1
  In  In84  1  0.16487664  0.83521246  0.50566113  1
  In  In85  1  0.33562885  0.33611304  0.25778272  1
  Cu  Cu86  1  0.66567781  0.33866388  0.50059036  1
  Cu  Cu87  1  0.65872340  0.66604357  0.50400612  1
  Cu  Cu88  1  0.83694248  0.49966226  0.25643157  1
  Cu  Cu89  1  0.17476004  0.51100177  0.24761102  1
  Cu  Cu90  1  0.83260393  0.16518822  0.25850789  1
  Cu  Cu91  1  0.33552964  0.67300706  -0.00200181  1
  Cu  Cu92  1  0.33957168  0.34409097  0.00279518  1
  Cu  Cu93  1  -0.00228819  0.33272455  0.49107375  1
  Cu  Cu94  1  0.66104500  0.32916658  -0.00110213  1
  Cu  Cu95  1  0.50076306  0.16643637  0.74868628  1
  Cu  Cu96  1  0.00394001  0.33921328  0.00749952  1
  Cu  Cu97  1  0.17036904  0.49920285  0.75922458  1
  Cu  Cu98  1  0.83551952  0.83653389  0.74239914  1
  Cu  Cu99  1  0.65612114  -0.00324787  -0.01007925  1
  Cu  Cu100  1  0.50368244  0.16368498  0.25033819  1
  Cu  Cu101  1  0.16060547  0.15459574  0.74509194  1
  Cu  Cu102  1  0.83645724  0.16382967  0.74086093  1
  Cu  Cu103  1  0.83260534  0.83844621  0.25059959  1
  Cu  Cu104  1  0.33798398  -0.00041790  -0.00290815  1
  Cu  Cu105  1  0.16270840  0.83677408  0.24780107  1
  Cu  Cu106  1  0.17296140  0.83389220  0.75346214  1
  Cu  Cu107  1  -0.00208265  -0.00315775  0.00336935  1
  Cu  Cu108  1  0.33869785  0.65978906  0.50526661  1
  Cu  Cu109  1  0.49695721  0.83371440  0.24816348  1
  Cu  Cu110  1  0.81978630  0.49942875  0.74450076  1
  Cu  Cu111  1  -0.00920088  0.66498852  0.49340226  1
  Cu  Cu112  1  -0.00355933  0.00068762  0.49821152  1
  Cu  Cu113  1  0.50436228  0.50327808  0.24320258  1
  Cu  Cu114  1  0.49837257  0.83822132  0.75695629  1
  Se  Se115  1  0.07476321  0.08354808  0.06125407  1
  Se  Se116  1  0.08578595  0.07794995  0.55198444  1
  Se  Se117  1  0.09008619  0.42123149  0.05692857  1
  Se  Se118  1  0.07423090  0.40504721  0.56107052  1
  Se  Se119  1  0.08806417  0.76292721  0.05636956  1
  Se  Se120  1  0.07026486  0.73893924  0.55879803  1
  Se  Se121  1  0.42032316  0.08559561  0.04824645  1
  Se  Se122  1  0.41779349  0.07374039  0.56102720  1
  Se  Se123  1  0.42669986  0.42491203  0.05441174  1
  Se  Se124  1  0.39259057  0.40323800  0.55323328  1
  Se  Se125  1  0.42046127  0.75556717  0.05089364  1
  Se  Se126  1  0.42147335  0.73635406  0.56513049  1
  Se  Se127  1  0.73662284  0.07103723  0.05582276  1
  Se  Se128  1  0.76008745  0.10065904  0.55224747  1
  Se  Se129  1  0.74983383  0.40079348  0.05949818  1
  Se  Se130  1  0.74904580  0.42275999  0.55419311  1
  Se  Se131  1  0.73976735  0.73727360  0.05318785  1
  Se  Se132  1  0.74620660  0.75154187  0.55024993  1
  Se  Se133  1  0.26208937  0.26295611  0.06600309  1
  Se  Se134  1  0.24710892  0.24059041  0.54165515  1
  Se  Se135  1  0.25387456  0.59004234  0.05505009  1
  Se  Se136  1  0.25198233  0.58324753  0.56388217  1
  Se  Se137  1  0.24917230  0.92290139  0.05104557  1
  Se  Se138  1  0.26137392  0.91394371  0.56572364  1
  Se  Se139  1  0.58130803  0.24441340  0.05442971  1
  Se  Se140  1  0.58863413  0.25765153  0.56337027  1
  Se  Se141  1  0.59326241  0.58213804  0.04760694  1
  Se  Se142  1  0.57644921  0.58291925  0.55813325  1
  Se  Se143  1  0.58003974  0.91265430  0.04845255  1
  Se  Se144  1  0.59511662  0.92820972  0.55609278  1
  Se  Se145  1  0.93211037  0.25164840  0.06586310  1
  Se  Se146  1  0.91453349  0.25106069  0.54734827  1
  Se  Se147  1  0.92378413  0.58947074  0.06062370  1
  Se  Se148  1  0.91238291  0.57592404  0.54564985  1
  Se  Se149  1  0.91547502  0.92076249  0.06394937  1
  Se  Se150  1  0.91391787  0.91592938  0.55060931  1
  Se  Se151  1  0.08269259  0.24690782  0.44312940  1
  Se  Se152  1  0.08009467  0.25788006  0.94300550  1
  Se  Se153  1  0.08070636  0.58948410  0.43772814  1
  Se  Se154  1  0.08301998  0.57898088  0.95578151  1
  Se  Se155  1  0.07645882  0.91730854  0.43887138  1
  Se  Se156  1  0.08268943  0.91845175  0.94849019  1
  Se  Se157  1  0.41346370  0.25795149  0.43950062  1
  Se  Se158  1  0.41479925  0.25320938  0.94978819  1
  Se  Se159  1  0.42011270  0.57903724  0.44856422  1
  Se  Se160  1  0.42042339  0.58796167  0.94747620  1
  Se  Se161  1  0.40923907  0.91875807  0.44656508  1
  Se  Se162  1  0.42047098  0.91643755  0.94374317  1
  Se  Se163  1  0.74606237  0.25302347  0.44638610  1
  Se  Se164  1  0.74397575  0.24973685  0.93977471  1
  Se  Se165  1  0.74397640  0.58354753  0.44910471  1
  Se  Se166  1  0.74450975  0.58375485  0.93419242  1
  Se  Se167  1  0.75062401  0.91401844  0.44819192  1
  Se  Se168  1  0.74452233  0.92055533  0.93382570  1
  Se  Se169  1  0.25953695  0.06320445  0.45339166  1
  Se  Se170  1  0.25426793  0.08091889  0.93782358  1
  Se  Se171  1  0.25319473  0.40644566  0.43655716  1
  Se  Se172  1  0.25174945  0.42488559  0.95229591  1
  Se  Se173  1  0.25716805  0.74048631  0.44659974  1
  Se  Se174  1  0.24809739  0.75684090  0.94904642  1
  Se  Se175  1  0.58979475  0.07590144  0.44037061  1
  Se  Se176  1  0.57848477  0.08892308  0.94073959  1
  Se  Se177  1  0.57845166  0.42019146  0.44953364  1
  Se  Se178  1  0.58508254  0.41588995  0.94327227  1
  Se  Se179  1  0.58762695  0.74394413  0.43461116  1
  Se  Se180  1  0.58576905  0.75692433  0.94684425  1
  Se  Se181  1  0.91451566  0.08612532  0.44485264  1
  Se  Se182  1  0.91570871  0.07580666  0.94372488  1
  Se  Se183  1  0.91515219  0.42143850  0.44321034  1
  Se  Se184  1  0.92231647  0.40793865  0.94166669  1
  Se  Se185  1  0.90944177  0.75451276  0.44557858  1
  Se  Se186  1  0.92790245  0.73775207  0.94583387  1
  Se  Se187  1  0.24528953  0.23734658  0.30697289  1
  Se  Se188  1  0.23784957  0.23896370  0.80584292  1
  Se  Se189  1  0.26082783  0.59127371  0.30010473  1
  Se  Se190  1  0.25016806  0.58589330  0.81014933  1
  Se  Se191  1  0.23798380  0.91060163  0.31698323  1
  Se  Se192  1  0.25520775  0.92051530  0.80502194  1
  Se  Se193  1  0.58865759  0.24966573  0.30003888  1
  Se  Se194  1  0.58182197  0.25275754  0.80151377  1
  Se  Se195  1  0.58391673  0.58071571  0.30842225  1
  Se  Se196  1  0.58851165  0.59859083  0.80290473  1
  Se  Se197  1  0.58064480  0.91795639  0.29884777  1
  Se  Se198  1  0.58727589  0.92520908  0.80213594  1
  Se  Se199  1  0.91549780  0.25368871  0.30706822  1
  Se  Se200  1  0.90851580  0.23798261  0.81299186  1
  Se  Se201  1  0.91717444  0.59040644  0.30438593  1
  Se  Se202  1  0.90517834  0.57252274  0.80687797  1
  Se  Se203  1  0.91509786  0.91935957  0.30646026  1
  Se  Se204  1  0.92348115  0.91183981  0.79835354  1
  Se  Se205  1  0.07778904  0.08229094  0.30116564  1
  Se  Se206  1  0.07614248  0.07491237  0.80016788  1
  Se  Se207  1  0.09211359  0.42629540  0.30079704  1
  Se  Se208  1  0.08499684  0.41470127  0.81012779  1
  Se  Se209  1  0.08189337  0.74855753  0.30042751  1
  Se  Se210  1  0.09360635  0.75486540  0.81695026  1
  Se  Se211  1  0.41961074  0.09241669  0.31316865  1
  Se  Se212  1  0.41452873  0.08530120  0.80131219  1
  Se  Se213  1  0.42920507  0.42837582  0.31172232  1
  Se  Se214  1  0.42060535  0.42119074  0.81101316  1
  Se  Se215  1  0.41357454  0.74823065  0.29815563  1
  Se  Se216  1  0.41715204  0.75172725  0.80882077  1
  Se  Se217  1  0.74708952  0.07851828  0.30616260  1
  Se  Se218  1  0.75273258  0.08175835  0.79690521  1
  Se  Se219  1  0.74895460  0.41595583  0.30432551  1
  Se  Se220  1  0.74042786  0.41190967  0.79704793  1
  Se  Se221  1  0.75235872  0.75231820  0.30821656  1
  Se  Se222  1  0.75479484  0.75201837  0.79767297  1
  Se  Se223  1  0.24106302  0.09252984  0.19457478  1
  Se  Se224  1  0.25312581  0.07975201  0.69388466  1
  Se  Se225  1  0.25351631  0.42497611  0.18993258  1
  Se  Se226  1  0.24318131  0.42214352  0.69174819  1
  Se  Se227  1  0.25024213  0.75640764  0.19526270  1
  Se  Se228  1  0.25225864  0.74482895  0.70293686  1
  Se  Se229  1  0.58183241  0.07925657  0.19351778  1
  Se  Se230  1  0.58693406  0.08193261  0.69835606  1
  Se  Se231  1  0.58732129  0.41304644  0.19775682  1
  Se  Se232  1  0.56860254  0.42911106  0.69651758  1
  Se  Se233  1  0.57489454  0.75781840  0.18285325  1
  Se  Se234  1  0.58344201  0.76013798  0.69891559  1
  Se  Se235  1  0.91460581  0.08150123  0.20316848  1
  Se  Se236  1  0.92072699  0.07915751  0.69086601  1
  Se  Se237  1  0.92285003  0.41883415  0.20065805  1
  Se  Se238  1  0.90790413  0.42134025  0.68789299  1
  Se  Se239  1  0.91603127  0.75140456  0.20047023  1
  Se  Se240  1  0.91084426  0.74858951  0.68346542  1
  Se  Se241  1  0.08447195  0.25948339  0.20984717  1
  Se  Se242  1  0.08861578  0.24151803  0.68436582  1
  Se  Se243  1  0.08764641  0.59018150  0.19396045  1
  Se  Se244  1  0.08674832  0.57645516  0.69784164  1
  Se  Se245  1  0.07939181  0.92532496  0.20017282  1
  Se  Se246  1  0.08672969  0.91208712  0.69816116  1
  Se  Se247  1  0.42189362  0.24529936  0.19222105  1
  Se  Se248  1  0.42199153  0.24269116  0.68425951  1
  Se  Se249  1  0.42267481  0.59084864  0.19394978  1
  Se  Se250  1  0.40071786  0.59919678  0.70281529  1
  Se  Se251  1  0.41615784  0.91565281  0.18775959  1
  Se  Se252  1  0.41499533  0.91934175  0.70140475  1
  Se  Se253  1  0.75208260  0.24576808  0.19846119  1
  Se  Se254  1  0.75067316  0.25364429  0.69697588  1
  Se  Se255  1  0.75993063  0.57206926  0.18717876  1
  Se  Se256  1  0.74329256  0.58915268  0.69244041  1
  Se  Se257  1  0.74422942  0.91619193  0.19729345  1
  Se  Se258  1  0.75205085  0.91999998  0.68994887  1
