# generated using pymatgen
data_In86Cu29Se144
_symmetry_space_group_name_H-M   'P 1'
_cell_length_a   17.57397328
_cell_length_b   17.57438534
_cell_length_c   23.43960168
_cell_angle_alpha   89.99888960
_cell_angle_beta   90.01474572
_cell_angle_gamma   89.99890916
_symmetry_Int_Tables_number   1
_chemical_formula_structural   In86Cu29Se144
_chemical_formula_sum   'In86 Cu29 Se144'
_cell_volume   7239.36242247
_cell_formula_units_Z   1
loop_
 _symmetry_equiv_pos_site_id
 _symmetry_equiv_pos_as_xyz
  1  'x, y, z'
loop_
 _atom_site_type_symbol
 _atom_site_label
 _atom_site_symmetry_multiplicity
 _atom_site_fract_x
 _atom_site_fract_y
 _atom_site_fract_z
 _atom_site_occupancy
  In  In0  1  -0.01311587  0.17561376  0.13570215  1
  In  In1  1  0.00184197  0.16098135  0.62605514  1
  In  In2  1  -0.00882496  0.50610457  0.13284340  1
  In  In3  1  -0.00269639  0.49744243  0.62746449  1
  In  In4  1  0.00497770  0.82786180  0.13324463  1
  In  In5  1  -0.00573431  0.82637917  0.62538702  1
  In  In6  1  0.33535751  0.16321504  0.12596297  1
  In  In7  1  0.33857943  0.17072197  0.61850217  1
  In  In8  1  0.35077492  0.49782085  0.13066665  1
  In  In9  1  0.33289547  0.51556053  0.62651248  1
  In  In10  1  0.32974999  0.82161367  0.12428086  1
  In  In11  1  0.32033381  0.82603362  0.61886148  1
  In  In12  1  0.68937167  0.17743102  0.10976775  1
  In  In13  1  0.65944008  0.16733265  0.62279216  1
  In  In14  1  0.67108743  0.49780819  0.12763420  1
  In  In15  1  0.68437744  0.50070280  0.62605118  1
  In  In16  1  0.65789716  0.82314648  0.12202423  1
  In  In17  1  0.68640686  0.81433282  0.64309439  1
  In  In18  1  0.15449027  0.01105095  0.38726560  1
  In  In19  1  0.14957840  0.00062202  0.87293004  1
  In  In20  1  0.15880436  0.34672320  0.38799506  1
  In  In21  1  0.16018577  0.33962774  0.87367160  1
  In  In22  1  0.16175771  0.66754485  0.38168491  1
  In  In23  1  0.16260446  0.66683876  0.86875901  1
  In  In24  1  0.50876218  0.01744959  0.37589799  1
  In  In25  1  0.52421294  0.00339290  0.87373341  1
  In  In26  1  0.49455348  0.33252994  0.36813582  1
  In  In27  1  0.50949549  0.33633162  0.88248029  1
  In  In28  1  0.49850739  0.65899043  0.36139733  1
  In  In29  1  0.50382024  0.65875792  0.86351371  1
  In  In30  1  0.83055982  -0.01834257  0.37977320  1
  In  In31  1  0.83309721  0.00380617  0.86787833  1
  In  In32  1  0.84128853  0.34265491  0.37066428  1
  In  In33  1  0.83598884  0.33010706  0.88024336  1
  In  In34  1  0.83570489  0.66237090  0.37717443  1
  In  In35  1  0.81366171  0.64258363  0.83733043  1
  In  In36  1  0.00330350  0.17613146  0.37351838  1
  In  In37  1  -0.01298137  0.15284623  0.86241950  1
  In  In38  1  -0.00270838  0.50178496  0.37842700  1
  In  In39  1  -0.02078760  0.47984582  0.85212873  1
  In  In40  1  -0.00296496  0.82969160  0.37950422  1
  In  In41  1  -0.03225692  0.81530742  0.84687499  1
  In  In42  1  0.33680922  0.16458164  0.37992986  1
  In  In43  1  0.34153928  0.17931140  0.87598197  1
  In  In44  1  0.32677169  0.49671779  0.37612489  1
  In  In45  1  0.34203915  0.51477130  0.86948426  1
  In  In46  1  0.33019681  0.82142612  0.37838189  1
  In  In47  1  0.34104664  0.82171295  0.87251867  1
  In  In48  1  0.65453653  0.16874464  0.38077745  1
  In  In49  1  0.67797343  0.15970930  0.89170049  1
  In  In50  1  0.67460443  0.50870069  0.36790697  1
  In  In51  1  0.66829445  0.51075355  0.88032735  1
  In  In52  1  0.68028777  0.82985451  0.37913941  1
  In  In53  1  0.67677482  0.82795780  0.85838796  1
  In  In54  1  0.15855607  -0.01282918  0.12789484  1
  In  In55  1  0.15237198  -0.01213868  0.61126454  1
  In  In56  1  0.15933322  0.32339595  0.13044348  1
  In  In57  1  0.15923353  0.32421312  0.61501043  1
  In  In58  1  0.16899720  0.66349140  0.13871625  1
  In  In59  1  0.16247231  0.66708411  0.62269235  1
  In  In60  1  0.50804373  0.00628466  0.11647737  1
  In  In61  1  0.50632628  0.00984640  0.62676730  1
  In  In62  1  0.52616831  0.36105574  0.11302642  1
  In  In63  1  0.51718500  0.32409418  0.61987619  1
  In  In64  1  0.53014361  0.62391157  0.16377589  1
  In  In65  1  0.50150419  0.65355870  0.64032202  1
  In  In66  1  0.83277162  0.01119011  0.12465884  1
  In  In67  1  0.84915283  -0.01981942  0.64769643  1
  In  In68  1  0.83199483  0.33426088  0.12679073  1
  In  In69  1  0.83451513  0.36810476  0.62149137  1
  In  In70  1  0.83603303  0.66282635  0.12484810  1
  In  In71  1  0.83458379  0.66207608  0.62951005  1
  In  In72  1  0.82961673  0.82783258  -0.00714545  1
  In  In73  1  0.33138361  0.33583917  0.25367911  1
  In  In74  1  0.50025660  0.49388412  0.50020591  1
  In  In75  1  0.32808533  -0.00534826  0.74278482  1
  In  In76  1  0.50326465  0.82983378  -0.00491539  1
  In  In77  1  0.16168446  0.16717973  0.00248428  1
  In  In78  1  0.16932212  0.50020578  -0.00234498  1
  In  In79  1  0.67316969  -0.00598753  0.24923610  1
  In  In80  1  0.50191636  0.83759693  0.49703215  1
  In  In81  1  0.32991342  0.33879250  0.75691732  1
  In  In82  1  0.32680079  -0.00523063  0.24345498  1
  In  In83  1  0.16164749  0.83686684  -0.00121645  1
  In  In84  1  0.66637606  0.33813577  0.74642668  1
  In  In85  1  0.82820891  0.16604048  0.50387688  1
  Cu  Cu86  1  0.49676737  0.82737312  0.75222544  1
  Cu  Cu87  1  -0.00534410  -0.00319090  0.50512123  1
  Cu  Cu88  1  -0.00767197  0.33490732  0.00052330  1
  Cu  Cu89  1  0.49876415  0.82935695  0.25146071  1
  Cu  Cu90  1  0.16048391  0.50088554  0.26004558  1
  Cu  Cu91  1  -0.00579517  0.66396964  0.50251622  1
  Cu  Cu92  1  0.32909143  0.67118935  0.50315286  1
  Cu  Cu93  1  0.67398515  0.66713489  0.50098994  1
  Cu  Cu94  1  0.34764891  0.66209084  0.00165531  1
  Cu  Cu95  1  0.83610979  0.49751864  0.25123878  1
  Cu  Cu96  1  -0.00223121  0.65840590  -0.00193775  1
  Cu  Cu97  1  -0.00298301  0.33849302  0.49846164  1
  Cu  Cu98  1  0.83815125  0.82281394  0.25363009  1
  Cu  Cu99  1  0.16125323  0.50068349  0.74569833  1
  Cu  Cu100  1  0.35001205  0.33725886  0.00039627  1
  Cu  Cu101  1  0.34219235  0.01167660  -0.00202885  1
  Cu  Cu102  1  -0.00941965  0.00007667  -0.00390442  1
  Cu  Cu103  1  0.15266206  0.16852053  0.25988204  1
  Cu  Cu104  1  0.33441545  0.00427694  0.50389391  1
  Cu  Cu105  1  0.33437963  0.33013613  0.49709202  1
  Cu  Cu106  1  0.50574502  0.17548842  0.24463953  1
  Cu  Cu107  1  0.50287301  0.16735360  0.75296392  1
  Cu  Cu108  1  0.15682294  0.16323426  0.73907752  1
  Cu  Cu109  1  0.16578559  0.83140186  0.74090282  1
  Cu  Cu110  1  0.67259121  0.33973854  0.00158738  1
  Cu  Cu111  1  0.15773623  0.83531341  0.25775553  1
  Cu  Cu112  1  0.67104013  -0.00357095  0.50810855  1
  Cu  Cu113  1  0.82637738  0.17810732  0.75174832  1
  Cu  Cu114  1  0.83139785  0.16485379  0.25091104  1
  Se  Se115  1  0.07221646  0.07469771  0.06091980  1
  Se  Se116  1  0.08053774  0.08796247  0.54910726  1
  Se  Se117  1  0.07868274  0.41011292  0.05977938  1
  Se  Se118  1  0.08129200  0.42027539  0.55387643  1
  Se  Se119  1  0.08024776  0.73657645  0.05865595  1
  Se  Se120  1  0.07885201  0.74971339  0.55382269  1
  Se  Se121  1  0.42187247  0.09273695  0.05346396  1
  Se  Se122  1  0.42288578  0.08412832  0.55419707  1
  Se  Se123  1  0.42503501  0.43038337  0.05009489  1
  Se  Se124  1  0.40942936  0.40732920  0.56416237  1
  Se  Se125  1  0.42363324  0.74217099  0.06251101  1
  Se  Se126  1  0.42172733  0.74052134  0.56090069  1
  Se  Se127  1  0.74971252  0.07268466  0.04832967  1
  Se  Se128  1  0.75421900  0.07099309  0.56929887  1
  Se  Se129  1  0.75629681  0.42067051  0.05580603  1
  Se  Se130  1  0.72882360  0.40420389  0.55076005  1
  Se  Se131  1  0.74066120  0.73789870  0.05397171  1
  Se  Se132  1  0.75356114  0.74873278  0.55811297  1
  Se  Se133  1  0.25963321  0.26178840  0.05644405  1
  Se  Se134  1  0.25023862  0.24578543  0.54991581  1
  Se  Se135  1  0.25613091  0.59039988  0.06116548  1
  Se  Se136  1  0.24739335  0.58355278  0.55295165  1
  Se  Se137  1  0.26133571  0.92764802  0.05538726  1
  Se  Se138  1  0.25047836  0.91449208  0.54839384  1
  Se  Se139  1  0.58680752  0.25323455  0.05255872  1
  Se  Se140  1  0.58603858  0.24324598  0.54587602  1
  Se  Se141  1  0.58053419  0.58453957  0.06612540  1
  Se  Se142  1  0.58649586  0.59014632  0.55889523  1
  Se  Se143  1  0.59704072  0.92388713  0.05084549  1
  Se  Se144  1  0.59055001  0.91291232  0.56613275  1
  Se  Se145  1  0.91500641  0.24827984  0.05641437  1
  Se  Se146  1  0.91767671  0.25971184  0.56194330  1
  Se  Se147  1  0.91620467  0.57777960  0.05405322  1
  Se  Se148  1  0.91274758  0.57958197  0.55717020  1
  Se  Se149  1  0.92171341  0.91339416  0.06020290  1
  Se  Se150  1  0.91068944  0.91662462  0.55930676  1
  Se  Se151  1  0.08083549  0.25018439  0.44973073  1
  Se  Se152  1  0.07243795  0.25266644  0.93927695  1
  Se  Se153  1  0.08003970  0.58212417  0.44911512  1
  Se  Se154  1  0.07636823  0.58049224  0.93473299  1
  Se  Se155  1  0.07879762  0.91474845  0.44949882  1
  Se  Se156  1  0.06367224  0.91246699  0.93662318  1
  Se  Se157  1  0.42099679  0.25179667  0.44348697  1
  Se  Se158  1  0.42741906  0.24830360  0.94837719  1
  Se  Se159  1  0.41247373  0.59231339  0.44261338  1
  Se  Se160  1  0.42722458  0.58385337  0.94283704  1
  Se  Se161  1  0.41092618  0.92959656  0.43620287  1
  Se  Se162  1  0.41219985  0.92502034  0.93575952  1
  Se  Se163  1  0.74830534  0.25641800  0.43846042  1
  Se  Se164  1  0.75722840  0.25217814  0.95341886  1
  Se  Se165  1  0.75123837  0.57943375  0.44693038  1
  Se  Se166  1  0.76406014  0.59903942  0.93383343  1
  Se  Se167  1  0.75033861  0.91004530  0.45564961  1
  Se  Se168  1  0.74108404  0.92173506  0.93583259  1
  Se  Se169  1  0.25105171  0.08740104  0.44889167  1
  Se  Se170  1  0.25259092  0.08075357  0.93673446  1
  Se  Se171  1  0.25226645  0.42224020  0.45301333  1
  Se  Se172  1  0.26422984  0.40976173  0.93787904  1
  Se  Se173  1  0.24415617  0.75348287  0.45153954  1
  Se  Se174  1  0.25785036  0.74079011  0.94619037  1
  Se  Se175  1  0.58777859  0.08010051  0.45537748  1
  Se  Se176  1  0.56899206  0.09713524  0.94933022  1
  Se  Se177  1  0.58786888  0.41415199  0.43373712  1
  Se  Se178  1  0.58971596  0.42338748  0.94808531  1
  Se  Se179  1  0.58567681  0.73793845  0.43920754  1
  Se  Se180  1  0.59311051  0.74514308  0.93214880  1
  Se  Se181  1  0.91843967  0.07726356  0.44081273  1
  Se  Se182  1  0.91069035  0.08614542  0.94298714  1
  Se  Se183  1  0.91150627  0.42116690  0.44830206  1
  Se  Se184  1  0.91837355  0.42318954  0.94361095  1
  Se  Se185  1  0.91213679  0.74856124  0.44830629  1
  Se  Se186  1  0.92156483  0.73901652  0.93654515  1
  Se  Se187  1  0.24152743  0.24572943  0.31489258  1
  Se  Se188  1  0.23604444  0.23638941  0.80600332  1
  Se  Se189  1  0.24572839  0.58414301  0.31118470  1
  Se  Se190  1  0.24457124  0.57963621  0.80290366  1
  Se  Se191  1  0.24321730  0.91667657  0.31455011  1
  Se  Se192  1  0.24135364  0.90758045  0.81019072  1
  Se  Se193  1  0.58642426  0.25166887  0.30415823  1
  Se  Se194  1  0.58561891  0.24462812  0.81210202  1
  Se  Se195  1  0.58627594  0.58170978  0.29679700  1
  Se  Se196  1  0.60508968  0.59270389  0.80066158  1
  Se  Se197  1  0.57694663  0.91075827  0.31291313  1
  Se  Se198  1  0.58299446  0.91332879  0.79916583  1
  Se  Se199  1  0.91455321  0.24902095  0.30373671  1
  Se  Se200  1  0.91543494  0.25622488  0.80388965  1
  Se  Se201  1  0.91767275  0.58201706  0.30568497  1
  Se  Se202  1  0.94566806  0.60289131  0.79924415  1
  Se  Se203  1  0.91527281  0.91190252  0.30654175  1
  Se  Se204  1  0.93015823  0.94090268  0.79939167  1
  Se  Se205  1  0.07408500  0.07705587  0.30818014  1
  Se  Se206  1  0.07958423  0.07789057  0.79552804  1
  Se  Se207  1  0.07921559  0.41325663  0.30982505  1
  Se  Se208  1  0.08421280  0.40747850  0.79515585  1
  Se  Se209  1  0.07891692  0.74659981  0.30936815  1
  Se  Se210  1  0.08523798  0.75124565  0.79883677  1
  Se  Se211  1  0.42155197  0.09048083  0.29939526  1
  Se  Se212  1  0.41678248  0.08416792  0.80699982  1
  Se  Se213  1  0.42405413  0.43418020  0.30256848  1
  Se  Se214  1  0.43211329  0.42291938  0.80814068  1
  Se  Se215  1  0.41088038  0.75041001  0.30322933  1
  Se  Se216  1  0.41125806  0.74059522  0.79888770  1
  Se  Se217  1  0.75442773  0.08605118  0.31555449  1
  Se  Se218  1  0.74525767  0.09448703  0.80670235  1
  Se  Se219  1  0.74941374  0.41442842  0.30162584  1
  Se  Se220  1  0.75447448  0.41986861  0.81154304  1
  Se  Se221  1  0.75028558  0.74470771  0.30666071  1
  Se  Se222  1  0.78790341  0.77762605  0.79565411  1
  Se  Se223  1  0.23210797  0.09478725  0.19286826  1
  Se  Se224  1  0.24186892  0.08589922  0.68129719  1
  Se  Se225  1  0.23877886  0.42575190  0.19183721  1
  Se  Se226  1  0.24363177  0.41777928  0.68730583  1
  Se  Se227  1  0.24566078  0.75929028  0.20178852  1
  Se  Se228  1  0.25135213  0.74469425  0.69401342  1
  Se  Se229  1  0.58564418  0.08783824  0.19043727  1
  Se  Se230  1  0.58728441  0.08644122  0.69982996  1
  Se  Se231  1  0.58543573  0.42091418  0.20058057  1
  Se  Se232  1  0.57392145  0.42755737  0.68794898  1
  Se  Se233  1  0.59041872  0.75062768  0.20282447  1
  Se  Se234  1  0.58421460  0.74313745  0.70297481  1
  Se  Se235  1  0.91542450  0.07807013  0.20122575  1
  Se  Se236  1  0.91206389  0.09446485  0.69925599  1
  Se  Se237  1  0.91797014  0.41136960  0.19788927  1
  Se  Se238  1  0.91175215  0.42686611  0.70214176  1
  Se  Se239  1  0.91969511  0.74172368  0.19610045  1
  Se  Se240  1  0.89961634  0.76401413  0.69667290  1
  Se  Se241  1  0.07474262  0.25473813  0.20377973  1
  Se  Se242  1  0.07770851  0.25548239  0.69208098  1
  Se  Se243  1  0.07960416  0.58273741  0.20181935  1
  Se  Se244  1  0.08060282  0.58613372  0.69315611  1
  Se  Se245  1  0.07673612  0.91918858  0.20322501  1
  Se  Se246  1  0.08150509  0.91553374  0.69037583  1
  Se  Se247  1  0.42155250  0.25432273  0.18695184  1
  Se  Se248  1  0.42334741  0.24895175  0.69477830  1
  Se  Se249  1  0.39217887  0.60429672  0.19804614  1
  Se  Se250  1  0.41006029  0.57901774  0.70548020  1
  Se  Se251  1  0.42809264  0.91133755  0.18652694  1
  Se  Se252  1  0.42172629  0.90495393  0.68527520  1
  Se  Se253  1  0.74912229  0.24636457  0.19532803  1
  Se  Se254  1  0.75715460  0.25364535  0.68201173  1
  Se  Se255  1  0.75562580  0.58184308  0.19619984  1
  Se  Se256  1  0.74723744  0.58659205  0.70109044  1
  Se  Se257  1  0.76032678  0.90198140  0.18825256  1
  Se  Se258  1  0.72209964  0.94004388  0.69367306  1
