# generated using pymatgen
data_In86Cu29Se144
_symmetry_space_group_name_H-M   'P 1'
_cell_length_a   17.58672401
_cell_length_b   17.58560119
_cell_length_c   23.45389636
_cell_angle_alpha   89.97482883
_cell_angle_beta   90.00444646
_cell_angle_gamma   90.00036564
_symmetry_Int_Tables_number   1
_chemical_formula_structural   In86Cu29Se144
_chemical_formula_sum   'In86 Cu29 Se144'
_cell_volume   7253.65885903
_cell_formula_units_Z   1
loop_
 _symmetry_equiv_pos_site_id
 _symmetry_equiv_pos_as_xyz
  1  'x, y, z'
loop_
 _atom_site_type_symbol
 _atom_site_label
 _atom_site_symmetry_multiplicity
 _atom_site_fract_x
 _atom_site_fract_y
 _atom_site_fract_z
 _atom_site_occupancy
  In  In0  1  -0.00437336  0.17022605  0.12660231  1
  In  In1  1  0.00425001  0.16498638  0.63206691  1
  In  In2  1  0.00043545  0.50511614  0.12546898  1
  In  In3  1  0.00263067  0.49969581  0.63153484  1
  In  In4  1  0.00606681  0.82738077  0.12881710  1
  In  In5  1  0.00142871  0.83303159  0.63408104  1
  In  In6  1  0.32950016  0.16803743  0.13308700  1
  In  In7  1  0.34383873  0.15483419  0.63243947  1
  In  In8  1  0.33604167  0.50084365  0.13420372  1
  In  In9  1  0.32404774  0.49930491  0.61821137  1
  In  In10  1  0.33513372  0.83641874  0.12545092  1
  In  In11  1  0.34845514  0.84293799  0.62475685  1
  In  In12  1  0.66426862  0.15790985  0.11989365  1
  In  In13  1  0.64657820  0.16620540  0.62449044  1
  In  In14  1  0.67483726  0.49107439  0.12090265  1
  In  In15  1  0.65883072  0.51835079  0.62483235  1
  In  In16  1  0.66810849  0.85086323  0.12318801  1
  In  In17  1  0.65663371  0.83563502  0.63969856  1
  In  In18  1  0.17159449  0.00057519  0.36694084  1
  In  In19  1  0.15511972  -0.00881246  0.87421614  1
  In  In20  1  0.17553933  0.34183463  0.36730321  1
  In  In21  1  0.17201423  0.33746962  0.87120460  1
  In  In22  1  0.15383450  0.65171310  0.37312024  1
  In  In23  1  0.16988202  0.68527878  0.87509228  1
  In  In24  1  0.49520681  -0.00576210  0.37707320  1
  In  In25  1  0.48466466  -0.01762384  0.85905631  1
  In  In26  1  0.48461933  0.34394901  0.38280547  1
  In  In27  1  0.49598421  0.34102897  0.86906649  1
  In  In28  1  0.49077254  0.68761845  0.39165722  1
  In  In29  1  0.51031213  0.66767847  0.86919691  1
  In  In30  1  0.83467390  0.00094378  0.36431755  1
  In  In31  1  0.84375651  0.00792199  0.87298579  1
  In  In32  1  0.83607535  0.32606917  0.37047578  1
  In  In33  1  0.84245781  0.31404517  0.88870448  1
  In  In34  1  0.84191275  0.65774824  0.37297714  1
  In  In35  1  0.82927690  0.65866678  0.87213594  1
  In  In36  1  0.00435876  0.16891522  0.36445947  1
  In  In37  1  -0.01101992  0.15395337  0.87326269  1
  In  In38  1  0.01403430  0.50912764  0.36764788  1
  In  In39  1  -0.00776605  0.48888847  0.86818222  1
  In  In40  1  -0.00056898  0.83097687  0.36732873  1
  In  In41  1  0.01283620  0.84595385  0.87223506  1
  In  In42  1  0.33612980  0.16669994  0.37173636  1
  In  In43  1  0.33674000  0.16839151  0.87036100  1
  In  In44  1  0.32807032  0.50147329  0.37502406  1
  In  In45  1  0.34170332  0.49620032  0.86965130  1
  In  In46  1  0.34250689  0.83816708  0.36918014  1
  In  In47  1  0.32252095  0.83949673  0.88178388  1
  In  In48  1  0.65924445  0.15034877  0.37414119  1
  In  In49  1  0.68452380  0.16073092  0.87910768  1
  In  In50  1  0.66419854  0.49715322  0.38158783  1
  In  In51  1  0.66790402  0.50966243  0.87386411  1
  In  In52  1  0.64971513  0.83600099  0.37914263  1
  In  In53  1  0.65490343  0.82555070  0.86614547  1
  In  In54  1  0.17073533  -0.00643152  0.12888346  1
  In  In55  1  0.16960325  -0.00227729  0.63124661  1
  In  In56  1  0.17096570  0.32726783  0.13068672  1
  In  In57  1  0.16287501  0.33872753  0.63005957  1
  In  In58  1  0.16381895  0.67681695  0.13030225  1
  In  In59  1  0.16309873  0.65747637  0.62302406  1
  In  In60  1  0.50982533  -0.00178603  0.13059099  1
  In  In61  1  0.49635250  -0.00243872  0.63089819  1
  In  In62  1  0.49583108  0.32712159  0.12898341  1
  In  In63  1  0.48357815  0.32462727  0.61637382  1
  In  In64  1  0.48437678  0.67008170  0.12995965  1
  In  In65  1  0.51714894  0.68364477  0.60515881  1
  In  In66  1  0.82769484  0.00740685  0.12668816  1
  In  In67  1  0.83406728  -0.00638926  0.63468026  1
  In  In68  1  0.84140381  0.34847404  0.10975426  1
  In  In69  1  0.84103717  0.34083727  0.62855604  1
  In  In70  1  0.84964954  0.66665718  0.12241255  1
  In  In71  1  0.83173670  0.66676042  0.63714569  1
  In  In72  1  0.16937765  0.16429533  0.00824399  1
  In  In73  1  0.66989818  0.33079151  0.75104794  1
  In  In74  1  0.82759687  0.82767306  0.49883135  1
  In  In75  1  0.82768126  0.16493486  0.49469857  1
  In  In76  1  0.33627346  0.66920681  0.74095062  1
  In  In77  1  0.17455771  0.16938397  0.48993779  1
  In  In78  1  0.66822631  0.67099517  0.25871859  1
  In  In79  1  0.66716988  0.32944350  0.24630642  1
  In  In80  1  0.16804458  0.50342623  -0.00710009  1
  In  In81  1  0.83456782  0.83610439  -0.00197337  1
  In  In82  1  0.50630787  0.16673178  -0.00206909  1
  In  In83  1  0.17431414  0.82833221  0.50823268  1
  In  In84  1  0.50586105  0.50463134  -0.00177066  1
  In  In85  1  0.82750773  0.50015710  0.50365668  1
  Cu  Cu86  1  0.83690181  0.16886964  0.24600755  1
  Cu  Cu87  1  0.49854244  0.83753781  0.25206255  1
  Cu  Cu88  1  0.84332249  0.49988560  0.24447701  1
  Cu  Cu89  1  0.83591678  0.83731779  0.24426891  1
  Cu  Cu90  1  0.17377944  0.82852513  0.25037034  1
  Cu  Cu91  1  0.83938735  0.16595478  0.75297205  1
  Cu  Cu92  1  0.16568184  0.49832014  0.24833064  1
  Cu  Cu93  1  0.00306755  0.32846008  -0.00259030  1
  Cu  Cu94  1  0.16651013  0.50089217  0.74758386  1
  Cu  Cu95  1  0.00150601  0.34245075  0.50320290  1
  Cu  Cu96  1  0.16539249  0.83926401  0.75159416  1
  Cu  Cu97  1  0.49967365  0.16158852  0.74740060  1
  Cu  Cu98  1  0.66168325  -0.00417016  -0.00275526  1
  Cu  Cu99  1  0.49197926  0.50321692  0.25800272  1
  Cu  Cu100  1  0.66591695  0.67076415  -0.00513393  1
  Cu  Cu101  1  0.32799926  0.66457352  0.49768274  1
  Cu  Cu102  1  0.83747575  0.49626769  0.75194481  1
  Cu  Cu103  1  0.65677840  -0.00141238  0.50458850  1
  Cu  Cu104  1  0.16277268  0.15963309  0.24839692  1
  Cu  Cu105  1  -0.00150593  0.66619554  0.00217420  1
  Cu  Cu106  1  0.32589133  0.33410986  0.49829766  1
  Cu  Cu107  1  0.49784388  0.16596997  0.25163591  1
  Cu  Cu108  1  0.49554184  0.49657375  0.74212801  1
  Cu  Cu109  1  0.00653172  -0.00372804  0.49900576  1
  Cu  Cu110  1  0.33577327  -0.00263268  0.00075743  1
  Cu  Cu111  1  0.65174455  0.33290751  0.50262291  1
  Cu  Cu112  1  0.33266024  0.67561524  0.00359918  1
  Cu  Cu113  1  0.83149325  0.83015600  0.75792697  1
  Cu  Cu114  1  0.16703955  0.17089322  0.75267306  1
  Se  Se115  1  0.07642979  0.07390752  0.06154515  1
  Se  Se116  1  0.08345246  0.08150212  0.55579997  1
  Se  Se117  1  0.08466101  0.40922877  0.05654857  1
  Se  Se118  1  0.08389425  0.42155789  0.55849863  1
  Se  Se119  1  0.08316063  0.74825442  0.05398651  1
  Se  Se120  1  0.07069675  0.74424520  0.55825140  1
  Se  Se121  1  0.41251962  0.08158236  0.06034089  1
  Se  Se122  1  0.42673278  0.08735054  0.55882265  1
  Se  Se123  1  0.41503328  0.41670874  0.05921014  1
  Se  Se124  1  0.41083832  0.41827975  0.55033508  1
  Se  Se125  1  0.42091079  0.75563112  0.05435928  1
  Se  Se126  1  0.40828243  0.75138355  0.55031393  1
  Se  Se127  1  0.74639548  0.07836990  0.04954539  1
  Se  Se128  1  0.74510652  0.07628949  0.56152934  1
  Se  Se129  1  0.74826855  0.42085690  0.04400936  1
  Se  Se130  1  0.73698880  0.40657836  0.56301431  1
  Se  Se131  1  0.74486724  0.74536600  0.06131097  1
  Se  Se132  1  0.74354056  0.74675657  0.56726323  1
  Se  Se133  1  0.26494518  0.26047782  0.05655611  1
  Se  Se134  1  0.25307030  0.25176265  0.56256937  1
  Se  Se135  1  0.25588575  0.58778436  0.05988473  1
  Se  Se136  1  0.24216048  0.58268929  0.54888904  1
  Se  Se137  1  0.25070593  0.91649996  0.05501220  1
  Se  Se138  1  0.26096856  0.93070447  0.55669282  1
  Se  Se139  1  0.59188762  0.26314443  0.05777718  1
  Se  Se140  1  0.57125542  0.24262034  0.54986599  1
  Se  Se141  1  0.58973700  0.59529768  0.06414041  1
  Se  Se142  1  0.57473452  0.57358905  0.54621345  1
  Se  Se143  1  0.57676800  0.91656739  0.05169403  1
  Se  Se144  1  0.58316588  0.91357105  0.56263022  1
  Se  Se145  1  0.91820685  0.24780191  0.05165997  1
  Se  Se146  1  0.92220085  0.25297307  0.55608079  1
  Se  Se147  1  0.91682303  0.57745524  0.05018237  1
  Se  Se148  1  0.91717674  0.58880269  0.56301607  1
  Se  Se149  1  0.92021254  0.91961762  0.06336605  1
  Se  Se150  1  0.92193824  0.92049409  0.55727082  1
  Se  Se151  1  0.07525465  0.26020442  0.43925228  1
  Se  Se152  1  0.08539202  0.25022266  0.93897975  1
  Se  Se153  1  0.07747217  0.57935545  0.45005360  1
  Se  Se154  1  0.07594062  0.59160236  0.93486173  1
  Se  Se155  1  0.08500767  0.91592227  0.44035299  1
  Se  Se156  1  0.08369404  0.91662854  0.95188966  1
  Se  Se157  1  0.40943387  0.24885455  0.44652881  1
  Se  Se158  1  0.41335198  0.25894912  0.94257581  1
  Se  Se159  1  0.41325173  0.58269609  0.44457988  1
  Se  Se160  1  0.40898117  0.59469621  0.94054477  1
  Se  Se161  1  0.42918179  0.89806565  0.44547944  1
  Se  Se162  1  0.41893981  0.91631087  0.94530328  1
  Se  Se163  1  0.73488224  0.25952273  0.43958266  1
  Se  Se164  1  0.74412953  0.24845085  0.95342528  1
  Se  Se165  1  0.74239984  0.59677951  0.44434725  1
  Se  Se166  1  0.75001245  0.58374695  0.94805501  1
  Se  Se167  1  0.74565435  0.93017584  0.44215373  1
  Se  Se168  1  0.74246386  0.91837137  0.93476142  1
  Se  Se169  1  0.26246277  0.06836850  0.44182258  1
  Se  Se170  1  0.25647272  0.07931386  0.94145395  1
  Se  Se171  1  0.24385237  0.41927401  0.44583911  1
  Se  Se172  1  0.26519761  0.41071657  0.94385186  1
  Se  Se173  1  0.25049337  0.74480302  0.43476070  1
  Se  Se174  1  0.24408650  0.75619432  0.95355416  1
  Se  Se175  1  0.57636751  0.08082715  0.44790071  1
  Se  Se176  1  0.58210055  0.07224834  0.93314912  1
  Se  Se177  1  0.57599868  0.42110282  0.44860785  1
  Se  Se178  1  0.59127562  0.40975516  0.93907997  1
  Se  Se179  1  0.59482132  0.74726647  0.45437805  1
  Se  Se180  1  0.57950443  0.75103920  0.94480501  1
  Se  Se181  1  0.92627916  0.07712635  0.43961056  1
  Se  Se182  1  0.91280807  0.08468485  0.95083467  1
  Se  Se183  1  0.91704305  0.41363395  0.43989837  1
  Se  Se184  1  0.91970557  0.41560295  0.94692734  1
  Se  Se185  1  0.92626438  0.74256486  0.44336385  1
  Se  Se186  1  0.92262667  0.74586276  0.93733793  1
  Se  Se187  1  0.24562942  0.24270856  0.30427354  1
  Se  Se188  1  0.25356082  0.25323468  0.80360849  1
  Se  Se189  1  0.24670298  0.58259303  0.30366048  1
  Se  Se190  1  0.24600255  0.58247917  0.80852228  1
  Se  Se191  1  0.25541021  0.91628532  0.30125404  1
  Se  Se192  1  0.24946429  0.92005930  0.80610860  1
  Se  Se193  1  0.57582126  0.24983005  0.31256928  1
  Se  Se194  1  0.57983320  0.23925607  0.81121661  1
  Se  Se195  1  0.57543881  0.58151773  0.31548294  1
  Se  Se196  1  0.57900412  0.57503692  0.79982209  1
  Se  Se197  1  0.58429397  0.92054664  0.30383601  1
  Se  Se198  1  0.59058496  0.92196328  0.79868121  1
  Se  Se199  1  0.91940793  0.25358476  0.29849215  1
  Se  Se200  1  0.91926423  0.25189654  0.80629337  1
  Se  Se201  1  0.92259829  0.58507387  0.29917305  1
  Se  Se202  1  0.91929235  0.58426037  0.80302179  1
  Se  Se203  1  0.92109322  0.91856839  0.29978920  1
  Se  Se204  1  0.91796666  0.91665972  0.80527156  1
  Se  Se205  1  0.07932532  0.07526550  0.30059699  1
  Se  Se206  1  0.08475855  0.08533444  0.80606917  1
  Se  Se207  1  0.08082719  0.41289125  0.29990558  1
  Se  Se208  1  0.08631091  0.41561985  0.80266224  1
  Se  Se209  1  0.08641469  0.74754888  0.30353346  1
  Se  Se210  1  0.08270260  0.75229939  0.80184586  1
  Se  Se211  1  0.41763790  0.07989379  0.30539510  1
  Se  Se212  1  0.41048162  0.08242704  0.79948268  1
  Se  Se213  1  0.40805778  0.41423658  0.30460620  1
  Se  Se214  1  0.41304689  0.41364823  0.79519029  1
  Se  Se215  1  0.42234225  0.74608210  0.30387598  1
  Se  Se216  1  0.41373990  0.75433788  0.81158414  1
  Se  Se217  1  0.75125038  0.08962055  0.30101484  1
  Se  Se218  1  0.75372291  0.08151290  0.80220883  1
  Se  Se219  1  0.75658102  0.42657520  0.30549898  1
  Se  Se220  1  0.75948340  0.41547631  0.81437805  1
  Se  Se221  1  0.76073310  0.76394461  0.31470830  1
  Se  Se222  1  0.74635753  0.74234152  0.80456001  1
  Se  Se223  1  0.25114812  0.07873261  0.19787658  1
  Se  Se224  1  0.24764195  0.08492544  0.69850070  1
  Se  Se225  1  0.25110503  0.41414095  0.19747340  1
  Se  Se226  1  0.25271306  0.41966000  0.69557331  1
  Se  Se227  1  0.25885296  0.74800325  0.19607123  1
  Se  Se228  1  0.24101269  0.76152293  0.68527900  1
  Se  Se229  1  0.58639054  0.08859805  0.19811064  1
  Se  Se230  1  0.58730191  0.07827532  0.69966440  1
  Se  Se231  1  0.57476492  0.42939757  0.19463012  1
  Se  Se232  1  0.57947763  0.41343290  0.68554941  1
  Se  Se233  1  0.58274340  0.75773334  0.19190281  1
  Se  Se234  1  0.57694286  0.73683605  0.69633811  1
  Se  Se235  1  0.91856004  0.08128447  0.19534875  1
  Se  Se236  1  0.91992293  0.08080511  0.69719737  1
  Se  Se237  1  0.92023582  0.41285208  0.19014264  1
  Se  Se238  1  0.92292604  0.41298930  0.70120839  1
  Se  Se239  1  0.91863867  0.74763538  0.19788786  1
  Se  Se240  1  0.91719640  0.75110513  0.70151946  1
  Se  Se241  1  0.08283505  0.24762851  0.19581493  1
  Se  Se242  1  0.08242736  0.25283995  0.69813808  1
  Se  Se243  1  0.08479297  0.58422596  0.19397508  1
  Se  Se244  1  0.08228743  0.58806920  0.69973116  1
  Se  Se245  1  0.08746821  0.91097986  0.19781068  1
  Se  Se246  1  0.07972205  0.92315287  0.69910791  1
  Se  Se247  1  0.41437453  0.25145666  0.20048501  1
  Se  Se248  1  0.41743816  0.25078159  0.69831461  1
  Se  Se249  1  0.41176251  0.58846389  0.20365661  1
  Se  Se250  1  0.42413292  0.58116999  0.67966624  1
  Se  Se251  1  0.41817905  0.92005367  0.19516374  1
  Se  Se252  1  0.41748785  0.91596869  0.70299486  1
  Se  Se253  1  0.75830754  0.24748112  0.18286880  1
  Se  Se254  1  0.75755670  0.23943729  0.68733791  1
  Se  Se255  1  0.75480477  0.58153923  0.19185516  1
  Se  Se256  1  0.74917265  0.57663340  0.70058928  1
  Se  Se257  1  0.74825790  0.92231960  0.19797735  1
  Se  Se258  1  0.75025162  0.91437824  0.70271427  1
