# generated using pymatgen
data_In86Cu29Se144
_symmetry_space_group_name_H-M   'P 1'
_cell_length_a   17.58288505
_cell_length_b   17.58027756
_cell_length_c   23.43308204
_cell_angle_alpha   90.00900962
_cell_angle_beta   89.98594405
_cell_angle_gamma   89.98378379
_symmetry_Int_Tables_number   1
_chemical_formula_structural   In86Cu29Se144
_chemical_formula_sum   'In86 Cu29 Se144'
_cell_volume   7243.44624750
_cell_formula_units_Z   1
loop_
 _symmetry_equiv_pos_site_id
 _symmetry_equiv_pos_as_xyz
  1  'x, y, z'
loop_
 _atom_site_type_symbol
 _atom_site_label
 _atom_site_symmetry_multiplicity
 _atom_site_fract_x
 _atom_site_fract_y
 _atom_site_fract_z
 _atom_site_occupancy
  In  In0  1  0.00000834  0.16562349  0.11939127  1
  In  In1  1  -0.00338013  0.17705455  0.62656293  1
  In  In2  1  0.00667237  0.49402194  0.13149289  1
  In  In3  1  0.00956260  0.48984198  0.62855450  1
  In  In4  1  0.00489319  0.82932312  0.13246037  1
  In  In5  1  -0.01201998  0.83196054  0.62376441  1
  In  In6  1  0.34500139  0.18723606  0.11059042  1
  In  In7  1  0.34888684  0.16839747  0.62814773  1
  In  In8  1  0.31864963  0.47470919  0.10551613  1
  In  In9  1  0.32350114  0.50342850  0.62671409  1
  In  In10  1  0.32865849  0.84591404  0.12597115  1
  In  In11  1  0.34274295  0.82642911  0.62156659  1
  In  In12  1  0.66506642  0.16327966  0.13161051  1
  In  In13  1  0.67006754  0.17194562  0.61417614  1
  In  In14  1  0.65725266  0.50541859  0.13292375  1
  In  In15  1  0.65772264  0.48902431  0.62496977  1
  In  In16  1  0.65630496  0.83632396  0.14734628  1
  In  In17  1  0.66608821  0.82927933  0.61240239  1
  In  In18  1  0.16603270  0.01677273  0.36671495  1
  In  In19  1  0.15277474  0.00330615  0.89390209  1
  In  In20  1  0.17070835  0.33941507  0.36822948  1
  In  In21  1  0.16395115  0.34200530  0.87875256  1
  In  In22  1  0.14153670  0.66184885  0.37864825  1
  In  In23  1  0.16390757  0.66451396  0.88281080  1
  In  In24  1  0.52385477  -0.00237321  0.38279362  1
  In  In25  1  0.50875415  0.01297284  0.87342102  1
  In  In26  1  0.49120702  0.32109211  0.36105802  1
  In  In27  1  0.50159138  0.32983165  0.87944908  1
  In  In28  1  0.51616842  0.67655601  0.36499908  1
  In  In29  1  0.48585475  0.66540680  0.87270490  1
  In  In30  1  0.83088490  -0.00111718  0.37654680  1
  In  In31  1  0.83895824  0.01747584  0.87851719  1
  In  In32  1  0.82239713  0.32275116  0.36568209  1
  In  In33  1  0.82639593  0.31915201  0.86904543  1
  In  In34  1  0.84596755  0.68078849  0.37242082  1
  In  In35  1  0.83463035  0.65181978  0.87130259  1
  In  In36  1  -0.01149543  0.15626021  0.36091674  1
  In  In37  1  -0.01339454  0.17136544  0.88582518  1
  In  In38  1  0.00800497  0.50684903  0.36965288  1
  In  In39  1  0.00937318  0.50737660  0.87127536  1
  In  In40  1  -0.01298315  0.82552310  0.36908381  1
  In  In41  1  0.01398506  0.83226684  0.87462749  1
  In  In42  1  0.33452437  0.18139486  0.36976608  1
  In  In43  1  0.31329013  0.19786642  0.90127363  1
  In  In44  1  0.33209012  0.48368554  0.37490862  1
  In  In45  1  0.34939744  0.47835037  0.89748396  1
  In  In46  1  0.34269166  0.84620150  0.37584587  1
  In  In47  1  0.32682716  0.82419934  0.87452364  1
  In  In48  1  0.66693325  0.16931692  0.37644250  1
  In  In49  1  0.65250128  0.17652321  0.89011723  1
  In  In50  1  0.65968812  0.49234868  0.36262119  1
  In  In51  1  0.67737086  0.48138024  0.87834296  1
  In  In52  1  0.67290045  0.84176442  0.37299410  1
  In  In53  1  0.66258529  0.84804655  0.87303702  1
  In  In54  1  0.15750552  0.00025274  0.11315267  1
  In  In55  1  0.16359504  0.00079022  0.62589708  1
  In  In56  1  0.16439870  0.33021063  0.11767809  1
  In  In57  1  0.15946136  0.34158935  0.63577417  1
  In  In58  1  0.16037687  0.65466676  0.12011246  1
  In  In59  1  0.17056015  0.64980606  0.62194180  1
  In  In60  1  0.50404184  0.01485798  0.13450152  1
  In  In61  1  0.51284380  0.00523564  0.61158589  1
  In  In62  1  0.49427150  0.32730325  0.12569884  1
  In  In63  1  0.50719106  0.32724244  0.63757713  1
  In  In64  1  0.50862066  0.65840447  0.13179185  1
  In  In65  1  0.49584242  0.67100072  0.61966980  1
  In  In66  1  0.82645669  0.00690076  0.13272134  1
  In  In67  1  0.81973013  -0.00180205  0.60056564  1
  In  In68  1  0.84424601  0.32164714  0.13192982  1
  In  In69  1  0.83644664  0.32827913  0.62505466  1
  In  In70  1  0.82630021  0.67353722  0.13666518  1
  In  In71  1  0.83972777  0.67365322  0.62319561  1
  In  In72  1  -0.00636245  0.00691266  0.75261159  1
  In  In73  1  0.33668237  0.01408977  0.24381543  1
  In  In74  1  0.66511799  0.00129701  0.74123605  1
  In  In75  1  0.66946296  0.66056170  0.73864727  1
  In  In76  1  0.32818479  0.65987537  0.75454784  1
  In  In77  1  0.84107420  0.50537799  0.49313592  1
  In  In78  1  0.49349332  0.83652863  0.00050117  1
  In  In79  1  0.16502397  0.17406715  0.49814784  1
  In  In80  1  0.83606159  0.83257076  0.01242447  1
  In  In81  1  0.83708294  0.49253766  0.00557533  1
  In  In82  1  0.33513179  0.00372565  0.75020659  1
  In  In83  1  0.49486925  0.50406839  0.49972863  1
  In  In84  1  0.33179940  0.66142024  0.25369302  1
  In  In85  1  0.17078765  0.83493513  0.49872179  1
  Cu  Cu86  1  0.16887007  0.17787834  0.75968525  1
  Cu  Cu87  1  0.82660692  0.16643676  0.74655051  1
  Cu  Cu88  1  0.50525458  0.49513326  0.75827960  1
  Cu  Cu89  1  0.16491358  0.82903941  0.75758386  1
  Cu  Cu90  1  0.84521448  0.48932584  0.75077838  1
  Cu  Cu91  1  -0.00322924  -0.00168565  0.48985674  1
  Cu  Cu92  1  0.66389208  0.33055121  0.49468821  1
  Cu  Cu93  1  -0.00500352  0.32926300  0.50013910  1
  Cu  Cu94  1  0.16251376  0.17238315  0.23914030  1
  Cu  Cu95  1  0.67017206  0.00339857  0.00878652  1
  Cu  Cu96  1  0.33245456  0.33387345  0.49841021  1
  Cu  Cu97  1  0.67486618  0.67318422  0.49014901  1
  Cu  Cu98  1  0.16209577  0.83433793  0.24843095  1
  Cu  Cu99  1  0.83253442  0.50270352  0.25150288  1
  Cu  Cu100  1  0.83356726  0.16734556  0.25006360  1
  Cu  Cu101  1  0.83755826  0.83717029  0.25452446  1
  Cu  Cu102  1  0.65621539  0.66504797  0.00594629  1
  Cu  Cu103  1  0.49561304  0.17754743  0.75782782  1
  Cu  Cu104  1  0.33041757  0.66646335  -0.00021839  1
  Cu  Cu105  1  0.83377761  0.82745306  0.74829572  1
  Cu  Cu106  1  0.16242751  0.49696779  0.24348579  1
  Cu  Cu107  1  -0.00143124  0.33444913  0.00231875  1
  Cu  Cu108  1  -0.00162579  0.66969216  0.00297460  1
  Cu  Cu109  1  0.33642987  0.66807435  0.49694826  1
  Cu  Cu110  1  0.33196098  0.00141643  0.00568358  1
  Cu  Cu111  1  0.34917827  0.00669057  0.49858020  1
  Cu  Cu112  1  0.66522468  0.32931410  0.00496590  1
  Cu  Cu113  1  0.16984674  0.49685489  0.75512699  1
  Cu  Cu114  1  0.48753310  0.49145008  0.24521060  1
  Se  Se115  1  0.09278642  0.09938474  0.04824909  1
  Se  Se116  1  0.07421542  0.07614321  0.55528473  1
  Se  Se117  1  0.07982150  0.42139426  0.05271550  1
  Se  Se118  1  0.08315916  0.40682473  0.55396239  1
  Se  Se119  1  0.08250623  0.75048029  0.05753756  1
  Se  Se120  1  0.08452896  0.74674355  0.56121315  1
  Se  Se121  1  0.42032857  0.07925713  0.05743486  1
  Se  Se122  1  0.42513979  0.09551304  0.55189537  1
  Se  Se123  1  0.43013277  0.41673797  0.05054400  1
  Se  Se124  1  0.41217436  0.41129236  0.56273238  1
  Se  Se125  1  0.41014695  0.74393898  0.06365319  1
  Se  Se126  1  0.42153673  0.75227819  0.54600386  1
  Se  Se127  1  0.75343703  0.08874290  0.05822512  1
  Se  Se128  1  0.72219448  0.07264195  0.54157304  1
  Se  Se129  1  0.74418810  0.40963924  0.06693612  1
  Se  Se130  1  0.74525688  0.41462925  0.55194023  1
  Se  Se131  1  0.73203070  0.74864430  0.06460781  1
  Se  Se132  1  0.75810065  0.74764937  0.55021344  1
  Se  Se133  1  0.25569271  0.26339686  0.04519268  1
  Se  Se134  1  0.25507915  0.25606920  0.56364177  1
  Se  Se135  1  0.24596459  0.58042094  0.04933330  1
  Se  Se136  1  0.25538692  0.58087165  0.54746210  1
  Se  Se137  1  0.24687434  0.91281789  0.05038030  1
  Se  Se138  1  0.26331786  0.92974734  0.55813867  1
  Se  Se139  1  0.58510197  0.24465152  0.05949563  1
  Se  Se140  1  0.57762102  0.25850141  0.55508198  1
  Se  Se141  1  0.57663712  0.57649798  0.05484590  1
  Se  Se142  1  0.59674344  0.59295832  0.55397195  1
  Se  Se143  1  0.58869415  0.91745245  0.06294038  1
  Se  Se144  1  0.58294015  0.91092849  0.54724147  1
  Se  Se145  1  0.91317305  0.24962658  0.05076132  1
  Se  Se146  1  0.91185805  0.24462020  0.55163460  1
  Se  Se147  1  0.91640728  0.59292340  0.06454534  1
  Se  Se148  1  0.92910633  0.58491713  0.56052423  1
  Se  Se149  1  0.92384642  0.92540573  0.06679061  1
  Se  Se150  1  0.91966369  0.91475421  0.54839476  1
  Se  Se151  1  0.07361756  0.25304745  0.43342876  1
  Se  Se152  1  0.08052997  0.25335637  0.94466265  1
  Se  Se153  1  0.08272699  0.57146062  0.45169181  1
  Se  Se154  1  0.07927614  0.58191527  0.95099358  1
  Se  Se155  1  0.08563421  0.92416306  0.43392108  1
  Se  Se156  1  0.07574479  0.90879307  0.95411981  1
  Se  Se157  1  0.41700900  0.25439954  0.44395785  1
  Se  Se158  1  0.43953242  0.23228570  0.94832731  1
  Se  Se159  1  0.41365229  0.59166226  0.43079077  1
  Se  Se160  1  0.42175418  0.58678935  0.95128192  1
  Se  Se161  1  0.42724941  0.91878869  0.44652306  1
  Se  Se162  1  0.40789884  0.92718339  0.93598482  1
  Se  Se163  1  0.75442141  0.25015935  0.44693159  1
  Se  Se164  1  0.75349119  0.24978059  0.95048214  1
  Se  Se165  1  0.74361929  0.58441870  0.43070380  1
  Se  Se166  1  0.74298422  0.58802024  0.94824546  1
  Se  Se167  1  0.76943696  0.90011423  0.44448392  1
  Se  Se168  1  0.74767180  0.92385147  0.94595311  1
  Se  Se169  1  0.26003536  0.08140096  0.44202523  1
  Se  Se170  1  0.24753510  0.08443106  0.95294237  1
  Se  Se171  1  0.24481728  0.41438238  0.44779026  1
  Se  Se172  1  0.24493836  0.41372514  0.95515750  1
  Se  Se173  1  0.25616612  0.74488834  0.43352070  1
  Se  Se174  1  0.24730753  0.75195476  0.94882763  1
  Se  Se175  1  0.59719049  0.08523272  0.45318721  1
  Se  Se176  1  0.58086627  0.08004678  0.95493187  1
  Se  Se177  1  0.58059023  0.41205121  0.43894786  1
  Se  Se178  1  0.58734987  0.41460621  0.94845957  1
  Se  Se179  1  0.58626180  0.75469197  0.44137996  1
  Se  Se180  1  0.58724523  0.74725879  0.93866618  1
  Se  Se181  1  0.91592401  0.08873750  0.44259218  1
  Se  Se182  1  0.92807514  0.07093954  0.95338206  1
  Se  Se183  1  0.91999062  0.40648772  0.43386634  1
  Se  Se184  1  0.91998292  0.41083882  0.93530538  1
  Se  Se185  1  0.93164482  0.74194701  0.44877326  1
  Se  Se186  1  0.91427494  0.74278691  0.94101329  1
  Se  Se187  1  0.24530011  0.24948349  0.29863380  1
  Se  Se188  1  0.25346261  0.25909850  0.81158089  1
  Se  Se189  1  0.23742375  0.57380975  0.31185328  1
  Se  Se190  1  0.25162549  0.56857768  0.82074028  1
  Se  Se191  1  0.24620597  0.91543957  0.30465098  1
  Se  Se192  1  0.23920493  0.91882130  0.81269222  1
  Se  Se193  1  0.60097306  0.26278632  0.30547973  1
  Se  Se194  1  0.59015362  0.25281438  0.80786781  1
  Se  Se195  1  0.57264500  0.57488368  0.29741650  1
  Se  Se196  1  0.58615698  0.58028465  0.81314132  1
  Se  Se197  1  0.58790985  0.92025264  0.30302183  1
  Se  Se198  1  0.56912592  0.91249420  0.80023749  1
  Se  Se199  1  0.91963940  0.25620103  0.29754667  1
  Se  Se200  1  0.91656885  0.24038342  0.80237235  1
  Se  Se201  1  0.91674379  0.58537756  0.30477622  1
  Se  Se202  1  0.92082384  0.58229469  0.79979373  1
  Se  Se203  1  0.92094435  0.92511700  0.30411968  1
  Se  Se204  1  0.90640132  0.91011288  0.81224646  1
  Se  Se205  1  0.08302912  0.08504320  0.29255211  1
  Se  Se206  1  0.08862979  0.09016064  0.81303004  1
  Se  Se207  1  0.08021483  0.41498953  0.30054936  1
  Se  Se208  1  0.08016527  0.41389157  0.80319067  1
  Se  Se209  1  0.08111081  0.75016083  0.30265541  1
  Se  Se210  1  0.08400234  0.73978078  0.80616754  1
  Se  Se211  1  0.42513590  0.08503074  0.31612148  1
  Se  Se212  1  0.41257556  0.09746191  0.81521663  1
  Se  Se213  1  0.40426123  0.40803528  0.29784090  1
  Se  Se214  1  0.41874925  0.41643871  0.81136277  1
  Se  Se215  1  0.42156497  0.76209000  0.30288504  1
  Se  Se216  1  0.42287484  0.76226215  0.79984263  1
  Se  Se217  1  0.75263700  0.08640611  0.30781595  1
  Se  Se218  1  0.74542839  0.09105438  0.80956362  1
  Se  Se219  1  0.74806505  0.41363877  0.29724946  1
  Se  Se220  1  0.75357192  0.41151576  0.80041296  1
  Se  Se221  1  0.75254036  0.75077865  0.30467782  1
  Se  Se222  1  0.74947142  0.75343819  0.80961495  1
  Se  Se223  1  0.24574595  0.09391444  0.17908300  1
  Se  Se224  1  0.23895666  0.09642390  0.69269902  1
  Se  Se225  1  0.24534069  0.41405032  0.19003617  1
  Se  Se226  1  0.25506927  0.41707797  0.69988440  1
  Se  Se227  1  0.24403028  0.75314716  0.19068380  1
  Se  Se228  1  0.24396773  0.75596464  0.69112235  1
  Se  Se229  1  0.60021879  0.07059908  0.20452529  1
  Se  Se230  1  0.57220337  0.09874862  0.69185248  1
  Se  Se231  1  0.57816082  0.41207375  0.19529079  1
  Se  Se232  1  0.58990126  0.41375403  0.70422321  1
  Se  Se233  1  0.58004283  0.73917480  0.20500952  1
  Se  Se234  1  0.57663015  0.75802942  0.69025378  1
  Se  Se235  1  0.91922259  0.08816313  0.19464048  1
  Se  Se236  1  0.89983710  0.08167158  0.68380968  1
  Se  Se237  1  0.91493322  0.41923570  0.19708840  1
  Se  Se238  1  0.92358736  0.40557584  0.69369517  1
  Se  Se239  1  0.91823755  0.75061710  0.20089913  1
  Se  Se240  1  0.92149489  0.74582096  0.69918506  1
  Se  Se241  1  0.07678698  0.25610485  0.18874319  1
  Se  Se242  1  0.08064984  0.24831438  0.69948449  1
  Se  Se243  1  0.07959982  0.58883153  0.19872936  1
  Se  Se244  1  0.08944807  0.57917190  0.69708081  1
  Se  Se245  1  0.08789645  0.92306236  0.19331485  1
  Se  Se246  1  0.08719459  0.91061780  0.69583886  1
  Se  Se247  1  0.42015249  0.23872165  0.19592429  1
  Se  Se248  1  0.40944125  0.25761080  0.70363376  1
  Se  Se249  1  0.40621016  0.57057703  0.18464714  1
  Se  Se250  1  0.42881445  0.57550019  0.69404688  1
  Se  Se251  1  0.42616691  0.91030046  0.19490386  1
  Se  Se252  1  0.42433743  0.92023134  0.68503664  1
  Se  Se253  1  0.74903701  0.25107366  0.19793362  1
  Se  Se254  1  0.74535602  0.24885682  0.69050556  1
  Se  Se255  1  0.74481759  0.58513244  0.20039273  1
  Se  Se256  1  0.76462412  0.56598825  0.68551379  1
  Se  Se257  1  0.75154928  0.91960698  0.20307670  1
  Se  Se258  1  0.75934013  0.90863149  0.68581943  1
