# generated using pymatgen
data_In86Cu29Se144
_symmetry_space_group_name_H-M   'P 1'
_cell_length_a   17.58764725
_cell_length_b   17.58077064
_cell_length_c   23.44861181
_cell_angle_alpha   90.01570876
_cell_angle_beta   90.01343460
_cell_angle_gamma   89.99661152
_symmetry_Int_Tables_number   1
_chemical_formula_structural   In86Cu29Se144
_chemical_formula_sum   'In86 Cu29 Se144'
_cell_volume   7250.41328350
_cell_formula_units_Z   1
loop_
 _symmetry_equiv_pos_site_id
 _symmetry_equiv_pos_as_xyz
  1  'x, y, z'
loop_
 _atom_site_type_symbol
 _atom_site_label
 _atom_site_symmetry_multiplicity
 _atom_site_fract_x
 _atom_site_fract_y
 _atom_site_fract_z
 _atom_site_occupancy
  In  In0  1  -0.00079570  0.16078492  0.12136372  1
  In  In1  1  -0.00256056  0.14507608  0.62020198  1
  In  In2  1  0.01330969  0.50404466  0.12159216  1
  In  In3  1  0.02228279  0.50467264  0.62086769  1
  In  In4  1  0.01430102  0.83521653  0.13992293  1
  In  In5  1  0.00029928  0.83453976  0.62457296  1
  In  In6  1  0.32522611  0.15684912  0.13005658  1
  In  In7  1  0.31835801  0.15034464  0.61617027  1
  In  In8  1  0.32872349  0.49684151  0.11505235  1
  In  In9  1  0.33307680  0.53395296  0.62868546  1
  In  In10  1  0.31254418  0.85181864  0.13676336  1
  In  In11  1  0.33445909  0.83480706  0.61961054  1
  In  In12  1  0.67632472  0.15349533  0.13794387  1
  In  In13  1  0.65146311  0.16317832  0.61548401  1
  In  In14  1  0.65802750  0.51012537  0.13191283  1
  In  In15  1  0.66308038  0.48995819  0.62358527  1
  In  In16  1  0.65879050  0.83649443  0.13890887  1
  In  In17  1  0.67839193  0.84715169  0.61227242  1
  In  In18  1  0.17168893  -0.00643829  0.36728942  1
  In  In19  1  0.16986852  -0.00212917  0.87620898  1
  In  In20  1  0.17561911  0.32016704  0.38001304  1
  In  In21  1  0.16960560  0.33056538  0.88222628  1
  In  In22  1  0.14613222  0.70503037  0.39952814  1
  In  In23  1  0.16936814  0.67109536  0.87382946  1
  In  In24  1  0.49316852  -0.00267832  0.37579233  1
  In  In25  1  0.49246079  -0.00682482  0.86496826  1
  In  In26  1  0.49489653  0.31740727  0.36927027  1
  In  In27  1  0.51132362  0.33532770  0.88179428  1
  In  In28  1  0.50697124  0.66938761  0.37705487  1
  In  In29  1  0.48571556  0.66823947  0.87395584  1
  In  In30  1  0.83296520  -0.00336334  0.37553843  1
  In  In31  1  0.84008823  0.00350638  0.87390054  1
  In  In32  1  0.82789476  0.33303796  0.36869334  1
  In  In33  1  0.82345416  0.32391484  0.87767153  1
  In  In34  1  0.84604569  0.68134467  0.36909242  1
  In  In35  1  0.84458262  0.65850863  0.87148138  1
  In  In36  1  0.01971615  0.13937482  0.37576481  1
  In  In37  1  0.01368870  0.15146772  0.88482558  1
  In  In38  1  0.00911905  0.51684765  0.37148930  1
  In  In39  1  0.00594396  0.51949700  0.87138257  1
  In  In40  1  0.00197782  0.83470817  0.37323994  1
  In  In41  1  0.01818205  0.84859777  0.86500394  1
  In  In42  1  0.33934266  0.15485809  0.37464172  1
  In  In43  1  0.32629487  0.15049406  0.87154906  1
  In  In44  1  0.32237163  0.50392364  0.38199053  1
  In  In45  1  0.32556165  0.50674126  0.88138231  1
  In  In46  1  0.30733068  0.85252758  0.38979022  1
  In  In47  1  0.32890241  0.82635861  0.86795853  1
  In  In48  1  0.63354106  0.13962395  0.34920230  1
  In  In49  1  0.67475925  0.16509440  0.87864065  1
  In  In50  1  0.66283006  0.49955671  0.36348846  1
  In  In51  1  0.67063318  0.49174961  0.87935989  1
  In  In52  1  0.66805836  0.83511911  0.37756423  1
  In  In53  1  0.65139250  0.83898683  0.87275010  1
  In  In54  1  0.16822664  -0.00127398  0.12618128  1
  In  In55  1  0.16436100  -0.00257766  0.62405716  1
  In  In56  1  0.16368828  0.32891208  0.11874739  1
  In  In57  1  0.17110315  0.33143627  0.61888740  1
  In  In58  1  0.16680909  0.66903319  0.12805242  1
  In  In59  1  0.17239739  0.67011101  0.62260380  1
  In  In60  1  0.49569214  0.00903660  0.13771792  1
  In  In61  1  0.49770785  -0.00025968  0.61964947  1
  In  In62  1  0.49255574  0.34349816  0.12550537  1
  In  In63  1  0.50620971  0.33044389  0.62312996  1
  In  In64  1  0.50232265  0.67016600  0.12780893  1
  In  In65  1  0.47090885  0.67671160  0.63339535  1
  In  In66  1  0.82735332  0.00243469  0.13020795  1
  In  In67  1  0.84461307  -0.01380506  0.63188495  1
  In  In68  1  0.83696578  0.31773945  0.12363628  1
  In  In69  1  0.82261358  0.33291763  0.62245621  1
  In  In70  1  0.83409485  0.67222134  0.13279416  1
  In  In71  1  0.83301460  0.68720913  0.62211772  1
  In  In72  1  0.66741292  0.67100326  0.75003640  1
  In  In73  1  0.84160257  0.50772083  0.48283499  1
  In  In74  1  0.84265323  0.49543993  -0.00377020  1
  In  In75  1  0.49644092  0.16874150  0.00988568  1
  In  In76  1  0.00212155  0.32943257  0.75616210  1
  In  In77  1  0.83542193  0.16121734  0.48841559  1
  In  In78  1  0.32607294  0.67601329  0.25511713  1
  In  In79  1  0.48542084  0.83414430  0.00348065  1
  In  In80  1  0.66662123  0.32847351  0.75018095  1
  In  In81  1  -0.00162539  0.32947448  0.24185735  1
  In  In82  1  0.49779353  0.50283167  0.50861027  1
  In  In83  1  0.33797764  0.33547131  0.75456899  1
  In  In84  1  0.83756004  0.83653110  -0.00015514  1
  In  In85  1  0.33349029  0.32375287  0.24752464  1
  Cu  Cu86  1  0.00578915  0.00053322  0.00082506  1
  Cu  Cu87  1  0.49462169  0.15680630  0.74342337  1
  Cu  Cu88  1  0.84614490  0.50470338  0.74244102  1
  Cu  Cu89  1  0.33337283  0.33302635  0.00111370  1
  Cu  Cu90  1  0.83543935  0.16892675  0.25238412  1
  Cu  Cu91  1  0.16969948  0.83168650  0.74477778  1
  Cu  Cu92  1  0.66228600  0.00561651  0.00610701  1
  Cu  Cu93  1  0.00160754  0.67242625  0.50018516  1
  Cu  Cu94  1  0.16202535  0.50347848  0.25102958  1
  Cu  Cu95  1  0.33311206  0.33304293  0.49870305  1
  Cu  Cu96  1  0.01089923  0.67665139  -0.00023103  1
  Cu  Cu97  1  0.00545749  0.32381829  0.49746540  1
  Cu  Cu98  1  0.66303101  0.67227391  0.49856358  1
  Cu  Cu99  1  0.50145051  0.82943217  0.25877680  1
  Cu  Cu100  1  0.66472704  0.00494713  0.49328874  1
  Cu  Cu101  1  0.50224001  0.83990734  0.74211365  1
  Cu  Cu102  1  0.33060032  0.00324730  0.49974367  1
  Cu  Cu103  1  0.49494189  0.49932447  0.24953600  1
  Cu  Cu104  1  0.32575687  0.66875249  -0.00106911  1
  Cu  Cu105  1  0.66989989  0.33320037  0.00427174  1
  Cu  Cu106  1  0.17560363  0.51224192  0.74912309  1
  Cu  Cu107  1  0.83169184  0.83478746  0.25311340  1
  Cu  Cu108  1  0.82963411  0.50461826  0.24871021  1
  Cu  Cu109  1  0.66224635  0.33019792  0.49153614  1
  Cu  Cu110  1  0.00257474  0.33124365  0.00222652  1
  Cu  Cu111  1  0.83462748  0.83726428  0.74577335  1
  Cu  Cu112  1  0.66114139  0.66499079  0.00880915  1
  Cu  Cu113  1  0.15886076  0.15380957  0.74701284  1
  Cu  Cu114  1  0.83264958  0.15209320  0.75303314  1
  Se  Se115  1  0.08894293  0.08462016  0.05431492  1
  Se  Se116  1  0.09783390  0.09216984  0.55353709  1
  Se  Se117  1  0.08612703  0.41787549  0.05095229  1
  Se  Se118  1  0.08455281  0.41085054  0.55049742  1
  Se  Se119  1  0.08534689  0.75749347  0.06110551  1
  Se  Se120  1  0.08509224  0.75269585  0.55617302  1
  Se  Se121  1  0.40733509  0.06853134  0.05728148  1
  Se  Se122  1  0.41882907  0.08687239  0.55016326  1
  Se  Se123  1  0.41909318  0.41943243  0.04841420  1
  Se  Se124  1  0.40417420  0.41298520  0.56627945  1
  Se  Se125  1  0.39849219  0.74614951  0.06752903  1
  Se  Se126  1  0.41770680  0.75181986  0.55050177  1
  Se  Se127  1  0.75053571  0.08525070  0.05645905  1
  Se  Se128  1  0.74957148  0.07834204  0.55795241  1
  Se  Se129  1  0.75028075  0.41747809  0.06248218  1
  Se  Se130  1  0.74656782  0.41468386  0.54468033  1
  Se  Se131  1  0.74109236  0.75159193  0.06168070  1
  Se  Se132  1  0.75367123  0.75490893  0.54533853  1
  Se  Se133  1  0.25713264  0.24787600  0.05828184  1
  Se  Se134  1  0.24884244  0.24666373  0.54972099  1
  Se  Se135  1  0.24296373  0.58557927  0.05506636  1
  Se  Se136  1  0.23543952  0.57047749  0.55433971  1
  Se  Se137  1  0.23972525  0.91033297  0.05365986  1
  Se  Se138  1  0.24865776  0.91791855  0.55337533  1
  Se  Se139  1  0.59257539  0.25416454  0.06732192  1
  Se  Se140  1  0.57725701  0.25127021  0.54624809  1
  Se  Se141  1  0.57492240  0.58159173  0.05649611  1
  Se  Se142  1  0.59126898  0.59465990  0.56467076  1
  Se  Se143  1  0.58271027  0.92136964  0.06181959  1
  Se  Se144  1  0.58268413  0.92052980  0.54856379  1
  Se  Se145  1  0.91829955  0.24547843  0.05037884  1
  Se  Se146  1  0.91754421  0.25437644  0.55752060  1
  Se  Se147  1  0.92289392  0.59682602  0.05561922  1
  Se  Se148  1  0.91991701  0.58762378  0.55859036  1
  Se  Se149  1  0.92526602  0.92165321  0.06308792  1
  Se  Se150  1  0.91353177  0.91181706  0.55492996  1
  Se  Se151  1  0.08454167  0.23872848  0.44283431  1
  Se  Se152  1  0.08674602  0.24722142  0.94882320  1
  Se  Se153  1  0.08519642  0.58554321  0.44989458  1
  Se  Se154  1  0.08838867  0.58716667  0.94645878  1
  Se  Se155  1  0.10793901  0.89547690  0.43644090  1
  Se  Se156  1  0.08723308  0.91490252  0.94805026  1
  Se  Se157  1  0.41292310  0.24847550  0.44440113  1
  Se  Se158  1  0.41022310  0.25200754  0.93880868  1
  Se  Se159  1  0.41222076  0.59017147  0.44506762  1
  Se  Se160  1  0.41456478  0.58714186  0.94914604  1
  Se  Se161  1  0.41524828  0.91756723  0.44910906  1
  Se  Se162  1  0.40399774  0.92481539  0.93985134  1
  Se  Se163  1  0.73951800  0.24808785  0.43260257  1
  Se  Se164  1  0.75028469  0.24567037  0.95301310  1
  Se  Se165  1  0.73984769  0.59437127  0.43391126  1
  Se  Se166  1  0.74639192  0.59401813  0.94545307  1
  Se  Se167  1  0.75076579  0.91850192  0.44692173  1
  Se  Se168  1  0.73768299  0.92240910  0.94354371  1
  Se  Se169  1  0.24693405  0.08068534  0.44090642  1
  Se  Se170  1  0.23763457  0.09339274  0.94538241  1
  Se  Se171  1  0.24560498  0.41405181  0.44789860  1
  Se  Se172  1  0.24876877  0.41744656  0.94888515  1
  Se  Se173  1  0.27035020  0.73606249  0.45163421  1
  Se  Se174  1  0.24858310  0.75549665  0.94462344  1
  Se  Se175  1  0.57820672  0.08699619  0.44298089  1
  Se  Se176  1  0.57942492  0.07809777  0.94157695  1
  Se  Se177  1  0.58059086  0.41712977  0.43805111  1
  Se  Se178  1  0.58788562  0.41892954  0.95300796  1
  Se  Se179  1  0.57985657  0.75662802  0.44757407  1
  Se  Se180  1  0.58409514  0.74461150  0.94558019  1
  Se  Se181  1  0.93318780  0.06230283  0.44832944  1
  Se  Se182  1  0.91524798  0.08052964  0.94983757  1
  Se  Se183  1  0.93151697  0.40608205  0.43398544  1
  Se  Se184  1  0.93088165  0.40731934  0.93186248  1
  Se  Se185  1  0.91739179  0.75554677  0.44735075  1
  Se  Se186  1  0.92749639  0.74974262  0.93710966  1
  Se  Se187  1  0.24221294  0.23297186  0.30362882  1
  Se  Se188  1  0.23712239  0.24236837  0.80346450  1
  Se  Se189  1  0.23725225  0.58379216  0.31303232  1
  Se  Se190  1  0.25879756  0.59132470  0.80545417  1
  Se  Se191  1  0.27533719  0.93196443  0.30087547  1
  Se  Se192  1  0.24824356  0.91578463  0.80326229  1
  Se  Se193  1  0.59836658  0.26766368  0.30270626  1
  Se  Se194  1  0.57261386  0.23595936  0.80753138  1
  Se  Se195  1  0.57632478  0.58604240  0.30124087  1
  Se  Se196  1  0.58490381  0.57964486  0.81384342  1
  Se  Se197  1  0.58404672  0.91687354  0.30876780  1
  Se  Se198  1  0.58573456  0.92146231  0.79681737  1
  Se  Se199  1  0.92268575  0.23899122  0.31353816  1
  Se  Se200  1  0.91073726  0.23642686  0.81268093  1
  Se  Se201  1  0.91516996  0.58313603  0.30301542  1
  Se  Se202  1  0.92590423  0.59025087  0.79487007  1
  Se  Se203  1  0.91621747  0.91697416  0.30559333  1
  Se  Se204  1  0.91606685  0.91792302  0.80414114  1
  Se  Se205  1  0.07782368  0.06089779  0.29395471  1
  Se  Se206  1  0.07864234  0.07375616  0.80508215  1
  Se  Se207  1  0.08824717  0.41344849  0.30899302  1
  Se  Se208  1  0.09688484  0.42612855  0.80745702  1
  Se  Se209  1  0.07473973  0.73720604  0.30834183  1
  Se  Se210  1  0.08655997  0.74912160  0.80124282  1
  Se  Se211  1  0.43832130  0.09865807  0.30523661  1
  Se  Se212  1  0.40930792  0.07809586  0.79832549  1
  Se  Se213  1  0.41328142  0.42370465  0.31069566  1
  Se  Se214  1  0.42584543  0.42287822  0.81655113  1
  Se  Se215  1  0.41404802  0.76028948  0.31939298  1
  Se  Se216  1  0.42313600  0.75584254  0.79912127  1
  Se  Se217  1  0.75512144  0.08165045  0.30455631  1
  Se  Se218  1  0.74399086  0.07649099  0.80745202  1
  Se  Se219  1  0.74994744  0.41640499  0.29895690  1
  Se  Se220  1  0.76516358  0.42505698  0.80285444  1
  Se  Se221  1  0.74712838  0.75078251  0.30527372  1
  Se  Se222  1  0.75870088  0.75981130  0.81311332  1
  Se  Se223  1  0.26721954  0.05830086  0.19834458  1
  Se  Se224  1  0.25019646  0.07680254  0.69651447  1
  Se  Se225  1  0.24180391  0.42215728  0.19235108  1
  Se  Se226  1  0.24861797  0.42257982  0.69086084  1
  Se  Se227  1  0.22722666  0.76606861  0.20450294  1
  Se  Se228  1  0.25621636  0.75047492  0.69254398  1
  Se  Se229  1  0.58695934  0.08005300  0.20461403  1
  Se  Se230  1  0.58444410  0.08044972  0.69095592  1
  Se  Se231  1  0.57929732  0.41777393  0.19610002  1
  Se  Se232  1  0.57271060  0.42410883  0.69912552  1
  Se  Se233  1  0.58094869  0.74432573  0.20310988  1
  Se  Se234  1  0.58406552  0.75783518  0.68331323  1
  Se  Se235  1  0.91463503  0.08780366  0.19394729  1
  Se  Se236  1  0.92129706  0.07652830  0.69949372  1
  Se  Se237  1  0.90922060  0.42733044  0.18512428  1
  Se  Se238  1  0.91834509  0.41605348  0.68487456  1
  Se  Se239  1  0.91814038  0.75397585  0.19905084  1
  Se  Se240  1  0.91840282  0.75081197  0.69715741  1
  Se  Se241  1  0.09511712  0.23742635  0.19225455  1
  Se  Se242  1  0.08555361  0.24294163  0.68894571  1
  Se  Se243  1  0.08041669  0.58720077  0.19694524  1
  Se  Se244  1  0.08717261  0.58958613  0.69560306  1
  Se  Se245  1  0.06972160  0.94455899  0.20196503  1
  Se  Se246  1  0.08315433  0.91568866  0.69493290  1
  Se  Se247  1  0.42851208  0.23785976  0.19002097  1
  Se  Se248  1  0.41635996  0.24270499  0.68691338  1
  Se  Se249  1  0.41028511  0.57790422  0.19207659  1
  Se  Se250  1  0.43090978  0.57272493  0.70393745  1
  Se  Se251  1  0.42388024  0.90660052  0.19643328  1
  Se  Se252  1  0.41463548  0.92029875  0.69034431  1
  Se  Se253  1  0.75283816  0.25273596  0.19931166  1
  Se  Se254  1  0.75588321  0.23416607  0.69141012  1
  Se  Se255  1  0.74631145  0.59033203  0.19740865  1
  Se  Se256  1  0.75644113  0.57835854  0.68585636  1
  Se  Se257  1  0.74760437  0.91948765  0.20049118  1
  Se  Se258  1  0.74471242  0.91735981  0.69648735  1
