# generated using pymatgen
data_In86Cu29Se144
_symmetry_space_group_name_H-M   'P 1'
_cell_length_a   17.57010924
_cell_length_b   17.57178492
_cell_length_c   23.43509156
_cell_angle_alpha   89.99952652
_cell_angle_beta   90.01230025
_cell_angle_gamma   89.98935961
_symmetry_Int_Tables_number   1
_chemical_formula_structural   In86Cu29Se144
_chemical_formula_sum   'In86 Cu29 Se144'
_cell_volume   7235.30723723
_cell_formula_units_Z   1
loop_
 _symmetry_equiv_pos_site_id
 _symmetry_equiv_pos_as_xyz
  1  'x, y, z'
loop_
 _atom_site_type_symbol
 _atom_site_label
 _atom_site_symmetry_multiplicity
 _atom_site_fract_x
 _atom_site_fract_y
 _atom_site_fract_z
 _atom_site_occupancy
  In  In0  1  0.00918731  0.16011410  0.12390800  1
  In  In1  1  0.00330243  0.16955173  0.62919571  1
  In  In2  1  -0.02097661  0.50038795  0.12498791  1
  In  In3  1  -0.01113343  0.49309249  0.61855512  1
  In  In4  1  -0.01267662  0.82799468  0.11476153  1
  In  In5  1  0.00857179  0.83868850  0.61942752  1
  In  In6  1  0.32557585  0.15664824  0.11312122  1
  In  In7  1  0.32268584  0.17555154  0.62818404  1
  In  In8  1  0.34659989  0.51076339  0.12894472  1
  In  In9  1  0.33312495  0.49907915  0.62387298  1
  In  In10  1  0.33383050  0.81594369  0.12541392  1
  In  In11  1  0.32096516  0.84961901  0.64586874  1
  In  In12  1  0.66870086  0.18261898  0.12418431  1
  In  In13  1  0.68389802  0.16862001  0.62498522  1
  In  In14  1  0.66579512  0.48752104  0.13482719  1
  In  In15  1  0.65816928  0.49548292  0.61715971  1
  In  In16  1  0.65462132  0.81151170  0.10560725  1
  In  In17  1  0.66358733  0.82383092  0.62488568  1
  In  In18  1  0.16234511  0.00862231  0.39395750  1
  In  In19  1  0.17403387  0.00952043  0.86589137  1
  In  In20  1  0.15989670  0.33900132  0.38446108  1
  In  In21  1  0.15487738  0.33170403  0.86198429  1
  In  In22  1  0.17489234  0.65788860  0.38433976  1
  In  In23  1  0.18017955  0.65668954  0.86902472  1
  In  In24  1  0.49043193  -0.00646143  0.37911563  1
  In  In25  1  0.49481123  0.00190375  0.87837425  1
  In  In26  1  0.51848324  0.33855474  0.37272188  1
  In  In27  1  0.48961876  0.32653910  0.86740659  1
  In  In28  1  0.49164615  0.65458491  0.36115750  1
  In  In29  1  0.49759921  0.68352865  0.87762860  1
  In  In30  1  0.84241530  -0.00785997  0.38455531  1
  In  In31  1  0.83602306  -0.00949964  0.87176601  1
  In  In32  1  0.83345017  0.33568122  0.37833063  1
  In  In33  1  0.84309561  0.34126010  0.86800460  1
  In  In34  1  0.82524346  0.67131700  0.37756700  1
  In  In35  1  0.83233347  0.66901067  0.89496866  1
  In  In36  1  -0.00802678  0.17320473  0.38333927  1
  In  In37  1  0.01025630  0.17450150  0.86741273  1
  In  In38  1  0.00803610  0.48718916  0.38244407  1
  In  In39  1  -0.00106902  0.49670532  0.87609461  1
  In  In40  1  -0.00039266  0.83535592  0.38314428  1
  In  In41  1  -0.01387916  0.83776336  0.87366257  1
  In  In42  1  0.32088020  0.16281731  0.38285828  1
  In  In43  1  0.33211877  0.16623005  0.87268139  1
  In  In44  1  0.32829192  0.50587243  0.38351712  1
  In  In45  1  0.32652941  0.50080360  0.85541850  1
  In  In46  1  0.33811925  0.82390270  0.38251868  1
  In  In47  1  0.34421541  0.84333275  0.85911922  1
  In  In48  1  0.66416797  0.18503167  0.37498580  1
  In  In49  1  0.65311577  0.16910823  0.87600063  1
  In  In50  1  0.66734061  0.50392189  0.37730874  1
  In  In51  1  0.68358376  0.50763301  0.87821380  1
  In  In52  1  0.67644182  0.82766882  0.37306870  1
  In  In53  1  0.66968330  0.82796164  0.88719583  1
  In  In54  1  0.14957657  0.00432899  0.11621281  1
  In  In55  1  0.16778194  -0.00024943  0.62606223  1
  In  In56  1  0.16435400  0.31779488  0.12554633  1
  In  In57  1  0.16903908  0.33807859  0.62510710  1
  In  In58  1  0.17583984  0.67290543  0.12963256  1
  In  In59  1  0.17201471  0.67443876  0.61760082  1
  In  In60  1  0.50127985  -0.00634097  0.11201047  1
  In  In61  1  0.48004845  -0.00026630  0.63293487  1
  In  In62  1  0.51142080  0.33745560  0.12310613  1
  In  In63  1  0.48855674  0.34397223  0.63317140  1
  In  In64  1  0.49059637  0.66386205  0.13264976  1
  In  In65  1  0.50489045  0.66015669  0.62584744  1
  In  In66  1  0.83729767  -0.01563113  0.11949756  1
  In  In67  1  0.84407346  0.01240745  0.61973254  1
  In  In68  1  0.82653852  0.34196677  0.13356058  1
  In  In69  1  0.83639824  0.33519282  0.62880669  1
  In  In70  1  0.81380392  0.64154019  0.09909445  1
  In  In71  1  0.83189198  0.66783015  0.61385440  1
  In  In72  1  0.66256663  0.66543222  0.75522702  1
  In  In73  1  -0.00198798  -0.00244101  0.24278596  1
  In  In74  1  0.67197685  0.00666186  0.24940984  1
  In  In75  1  0.00185724  0.66108018  0.24919748  1
  In  In76  1  0.50217072  0.49715294  -0.00030801  1
  In  In77  1  0.49724462  0.83453001  0.50371576  1
  In  In78  1  0.00647207  0.66259215  0.74961585  1
  In  In79  1  0.50173862  0.17445255  0.50113139  1
  In  In80  1  0.83575851  0.16421129  0.00050578  1
  In  In81  1  0.16568817  0.83569968  -0.00192249  1
  In  In82  1  0.16208975  0.49576275  -0.01086417  1
  In  In83  1  0.66625384  -0.00001327  0.75720472  1
  In  In84  1  0.32933458  -0.00025789  0.25646245  1
  In  In85  1  0.33757171  0.34055312  0.25050461  1
  Cu  Cu86  1  0.83063780  0.49811675  0.25243807  1
  Cu  Cu87  1  0.67030203  -0.00130591  0.50027968  1
  Cu  Cu88  1  0.17179564  0.83043181  0.25328102  1
  Cu  Cu89  1  0.16904606  0.49768982  0.25878019  1
  Cu  Cu90  1  0.33486180  0.33844344  0.50616940  1
  Cu  Cu91  1  0.84051307  0.17420726  0.74761902  1
  Cu  Cu92  1  0.33159235  0.32263303  -0.00579579  1
  Cu  Cu93  1  0.50098161  0.49591252  0.74493875  1
  Cu  Cu94  1  0.33817313  0.66683298  -0.00146554  1
  Cu  Cu95  1  0.50002361  0.17427584  0.24615570  1
  Cu  Cu96  1  0.16894547  0.16698728  0.74527430  1
  Cu  Cu97  1  -0.00208937  0.33443048  -0.00499784  1
  Cu  Cu98  1  0.83407698  0.17667462  0.25558033  1
  Cu  Cu99  1  0.83406361  0.83499195  0.74776181  1
  Cu  Cu100  1  -0.00072541  0.32660457  0.50497343  1
  Cu  Cu101  1  0.50396366  0.83056386  0.24602515  1
  Cu  Cu102  1  0.66609281  0.33324746  0.00205823  1
  Cu  Cu103  1  0.16438243  0.83609837  0.74486686  1
  Cu  Cu104  1  0.66557314  -0.00339906  -0.00573856  1
  Cu  Cu105  1  0.83341336  0.50046702  0.74877621  1
  Cu  Cu106  1  0.67617475  0.33659573  0.50133668  1
  Cu  Cu107  1  -0.00236225  0.66248886  0.49691116  1
  Cu  Cu108  1  0.33517133  0.66846782  0.50271515  1
  Cu  Cu109  1  0.15757566  0.16882992  0.25212063  1
  Cu  Cu110  1  0.50009966  0.16579860  0.75257498  1
  Cu  Cu111  1  0.66646304  0.66598299  0.49719246  1
  Cu  Cu112  1  0.82645879  0.82220842  0.24537164  1
  Cu  Cu113  1  0.33434471  -0.00520636  -0.00895098  1
  Cu  Cu114  1  -0.00054537  -0.00137746  0.50895575  1
  Se  Se115  1  0.08625238  0.09500295  0.04512850  1
  Se  Se116  1  0.08319084  0.08429159  0.55913365  1
  Se  Se117  1  0.07809858  0.41124076  0.06003036  1
  Se  Se118  1  0.08185473  0.41511892  0.55417247  1
  Se  Se119  1  0.08182201  0.73721283  0.05711239  1
  Se  Se120  1  0.08000248  0.74810976  0.54994883  1
  Se  Se121  1  0.41593864  0.07902166  0.04813735  1
  Se  Se122  1  0.40958117  0.08502576  0.55776659  1
  Se  Se123  1  0.40450731  0.40698102  0.05697031  1
  Se  Se124  1  0.42337280  0.42191313  0.55287807  1
  Se  Se125  1  0.42174528  0.74669050  0.05382655  1
  Se  Se126  1  0.40925479  0.74917734  0.56692024  1
  Se  Se127  1  0.74046042  0.07479717  0.06072916  1
  Se  Se128  1  0.75328533  0.08585004  0.54996336  1
  Se  Se129  1  0.74697068  0.41515639  0.05786470  1
  Se  Se130  1  0.75706961  0.41994356  0.55700589  1
  Se  Se131  1  0.78318385  0.77614517  0.06113407  1
  Se  Se132  1  0.74577450  0.75418692  0.54996841  1
  Se  Se133  1  0.24388969  0.24641998  0.04930125  1
  Se  Se134  1  0.24823376  0.25297441  0.55247994  1
  Se  Se135  1  0.25473630  0.58466840  0.05485491  1
  Se  Se136  1  0.25144474  0.58213940  0.55318966  1
  Se  Se137  1  0.25899599  0.92218799  0.06247093  1
  Se  Se138  1  0.24803993  0.90731024  0.56239653  1
  Se  Se139  1  0.57989765  0.24815643  0.05041770  1
  Se  Se140  1  0.59163028  0.26012260  0.56353818  1
  Se  Se141  1  0.58507779  0.58228967  0.06568575  1
  Se  Se142  1  0.58054758  0.58454725  0.54970046  1
  Se  Se143  1  0.58045057  0.90928863  0.04367712  1
  Se  Se144  1  0.58577288  0.92991773  0.56404301  1
  Se  Se145  1  0.91993538  0.25857559  0.06176348  1
  Se  Se146  1  0.91408889  0.24681736  0.55981661  1
  Se  Se147  1  0.92757254  0.58433022  0.04529168  1
  Se  Se148  1  0.91215357  0.58030136  0.54878229  1
  Se  Se149  1  0.94948426  0.94556055  0.05595892  1
  Se  Se150  1  0.91104290  0.91205146  0.55503112  1
  Se  Se151  1  0.08539903  0.24578863  0.45025144  1
  Se  Se152  1  0.08517841  0.25587591  0.94226674  1
  Se  Se153  1  0.08542984  0.57798186  0.44864544  1
  Se  Se154  1  0.07681107  0.59896403  0.93929795  1
  Se  Se155  1  0.08161905  0.91440714  0.45340261  1
  Se  Se156  1  0.08300907  0.92456936  0.93399499  1
  Se  Se157  1  0.41178422  0.26325655  0.43754223  1
  Se  Se158  1  0.42093911  0.24381070  0.94343700  1
  Se  Se159  1  0.41966209  0.59017179  0.44556985  1
  Se  Se160  1  0.40737647  0.57854054  0.93663939  1
  Se  Se161  1  0.39923113  0.92920690  0.45217771  1
  Se  Se162  1  0.41720172  0.90691666  0.94312271  1
  Se  Se163  1  0.75336603  0.24751953  0.44832116  1
  Se  Se164  1  0.74793920  0.25576714  0.93959529  1
  Se  Se165  1  0.75393958  0.58159901  0.44844815  1
  Se  Se166  1  0.74460234  0.58621405  0.95805276  1
  Se  Se167  1  0.74854703  0.91199034  0.44594998  1
  Se  Se168  1  0.75733084  0.91716803  0.94718025  1
  Se  Se169  1  0.24939677  0.08805824  0.45857803  1
  Se  Se170  1  0.25082082  0.08243997  0.94360230  1
  Se  Se171  1  0.24862605  0.41862425  0.45005391  1
  Se  Se172  1  0.25873553  0.40883316  0.93364676  1
  Se  Se173  1  0.24839273  0.75159282  0.45127945  1
  Se  Se174  1  0.25834949  0.74785539  0.93846516  1
  Se  Se175  1  0.58905137  0.07749317  0.43889262  1
  Se  Se176  1  0.58058122  0.08308535  0.94684298  1
  Se  Se177  1  0.58852982  0.41784949  0.44916939  1
  Se  Se178  1  0.58902547  0.40897647  0.93575195  1
  Se  Se179  1  0.58233362  0.74648153  0.43857440  1
  Se  Se180  1  0.59747333  0.73008017  0.94911125  1
  Se  Se181  1  0.91829639  0.08105809  0.45084615  1
  Se  Se182  1  0.92316692  0.08305692  0.93435569  1
  Se  Se183  1  0.91771106  0.41280774  0.45042109  1
  Se  Se184  1  0.91283543  0.42007074  0.94661337  1
  Se  Se185  1  0.91387619  0.74930473  0.44561214  1
  Se  Se186  1  0.92002105  0.75895505  0.95083627  1
  Se  Se187  1  0.24481730  0.24702907  0.30767258  1
  Se  Se188  1  0.24988367  0.24928242  0.80292979  1
  Se  Se189  1  0.25171156  0.58411330  0.30700590  1
  Se  Se190  1  0.23479886  0.57442276  0.78953022  1
  Se  Se191  1  0.23874005  0.91408231  0.31839102  1
  Se  Se192  1  0.25004236  0.92049069  0.79712349  1
  Se  Se193  1  0.58716108  0.25483699  0.29673915  1
  Se  Se194  1  0.58523029  0.25241987  0.80065192  1
  Se  Se195  1  0.60317175  0.59797721  0.30585607  1
  Se  Se196  1  0.57313699  0.57314174  0.81427648  1
  Se  Se197  1  0.57718852  0.91435300  0.30760487  1
  Se  Se198  1  0.58112643  0.90507513  0.81479652  1
  Se  Se199  1  0.92083300  0.25514679  0.30828337  1
  Se  Se200  1  0.92491980  0.25782347  0.80052876  1
  Se  Se201  1  0.91393535  0.57518222  0.31389534  1
  Se  Se202  1  0.90401518  0.58687335  0.81127832  1
  Se  Se203  1  0.90857614  0.90399393  0.30317588  1
  Se  Se204  1  0.91929212  0.92075364  0.79606161  1
  Se  Se205  1  0.08279770  0.08253712  0.31124512  1
  Se  Se206  1  0.08293513  0.08417547  0.79773308  1
  Se  Se207  1  0.08437508  0.41144890  0.30534490  1
  Se  Se208  1  0.09246315  0.44024310  0.80406824  1
  Se  Se209  1  0.08761166  0.75252709  0.31239501  1
  Se  Se210  1  0.09017749  0.75815675  0.81130624  1
  Se  Se211  1  0.42359175  0.09680249  0.30996560  1
  Se  Se212  1  0.41710839  0.08116153  0.80490377  1
  Se  Se213  1  0.42366830  0.42681417  0.31368502  1
  Se  Se214  1  0.41503668  0.41205595  0.79648165  1
  Se  Se215  1  0.41567621  0.75733712  0.30368351  1
  Se  Se216  1  0.39917878  0.72794065  0.80450882  1
  Se  Se217  1  0.76155845  0.08876664  0.31529689  1
  Se  Se218  1  0.75909192  0.09661134  0.81101405  1
  Se  Se219  1  0.74888686  0.41602597  0.30879469  1
  Se  Se220  1  0.74906997  0.41962918  0.80394924  1
  Se  Se221  1  0.74422662  0.74075236  0.29935559  1
  Se  Se222  1  0.76064350  0.75347838  0.81095271  1
  Se  Se223  1  0.23646259  0.08522543  0.19282987  1
  Se  Se224  1  0.25342909  0.08043706  0.69615152  1
  Se  Se225  1  0.24292503  0.42349409  0.18713225  1
  Se  Se226  1  0.26717529  0.40331144  0.69202871  1
  Se  Se227  1  0.25694593  0.74541517  0.20423311  1
  Se  Se228  1  0.24560491  0.74349196  0.69923194  1
  Se  Se229  1  0.57460410  0.08705002  0.18738490  1
  Se  Se230  1  0.58143967  0.08877510  0.68998009  1
  Se  Se231  1  0.56913203  0.42016757  0.20097110  1
  Se  Se232  1  0.59045085  0.41527680  0.69549541  1
  Se  Se233  1  0.58615426  0.74934160  0.19160315  1
  Se  Se234  1  0.57194238  0.75914109  0.69882855  1
  Se  Se235  1  0.90146018  0.09134908  0.18996729  1
  Se  Se236  1  0.91932577  0.08368393  0.69805086  1
  Se  Se237  1  0.91826321  0.41511007  0.20244877  1
  Se  Se238  1  0.91991279  0.41729354  0.69922802  1
  Se  Se239  1  0.90993311  0.74445376  0.18719238  1
  Se  Se240  1  0.91252510  0.75130799  0.68886563  1
  Se  Se241  1  0.07434414  0.24996962  0.19807336  1
  Se  Se242  1  0.08589498  0.25511054  0.69586730  1
  Se  Se243  1  0.09227023  0.57068944  0.18832475  1
  Se  Se244  1  0.08554731  0.57866062  0.68052687  1
  Se  Se245  1  0.09081810  0.90102669  0.18852919  1
  Se  Se246  1  0.07844618  0.91978990  0.69538134  1
  Se  Se247  1  0.41273435  0.24234509  0.18442009  1
  Se  Se248  1  0.41668499  0.24665993  0.69634639  1
  Se  Se249  1  0.41598909  0.58355404  0.20654329  1
  Se  Se250  1  0.41909504  0.58162482  0.69368312  1
  Se  Se251  1  0.42038661  0.91455444  0.19089533  1
  Se  Se252  1  0.42543472  0.91122048  0.70849053  1
  Se  Se253  1  0.74588790  0.25378215  0.20104942  1
  Se  Se254  1  0.75023018  0.25451291  0.69941342  1
  Se  Se255  1  0.75669822  0.58098958  0.19031686  1
  Se  Se256  1  0.75297094  0.58202585  0.68933885  1
  Se  Se257  1  0.74665275  0.90697118  0.18794076  1
  Se  Se258  1  0.75250642  0.91493395  0.68867862  1
