# generated using pymatgen
data_In86Cu29Se144
_symmetry_space_group_name_H-M   'P 1'
_cell_length_a   17.60507713
_cell_length_b   17.60322409
_cell_length_c   23.46662199
_cell_angle_alpha   89.98709127
_cell_angle_beta   90.00340463
_cell_angle_gamma   89.99970964
_symmetry_Int_Tables_number   1
_chemical_formula_structural   In86Cu29Se144
_chemical_formula_sum   'In86 Cu29 Se144'
_cell_volume   7272.44952017
_cell_formula_units_Z   1
loop_
 _symmetry_equiv_pos_site_id
 _symmetry_equiv_pos_as_xyz
  1  'x, y, z'
loop_
 _atom_site_type_symbol
 _atom_site_label
 _atom_site_symmetry_multiplicity
 _atom_site_fract_x
 _atom_site_fract_y
 _atom_site_fract_z
 _atom_site_occupancy
  In  In0  1  0.01181443  0.17102538  0.12451408  1
  In  In1  1  0.02227119  0.18907585  0.60270416  1
  In  In2  1  0.00131128  0.48740234  0.12631050  1
  In  In3  1  0.03389393  0.47271204  0.65219344  1
  In  In4  1  -0.00009249  0.83137798  0.11048973  1
  In  In5  1  0.00518791  0.82427664  0.63575221  1
  In  In6  1  0.31462959  0.16426131  0.12498549  1
  In  In7  1  0.32795818  0.18193984  0.62860242  1
  In  In8  1  0.33450641  0.51138823  0.12451612  1
  In  In9  1  0.33241822  0.50480357  0.61995817  1
  In  In10  1  0.33525310  0.82811620  0.12306625  1
  In  In11  1  0.31406728  0.75352182  0.61272304  1
  In  In12  1  0.66741264  0.16949423  0.13433661  1
  In  In13  1  0.67893328  0.16965418  0.61878808  1
  In  In14  1  0.67046800  0.49911753  0.13665152  1
  In  In15  1  0.66098294  0.50532292  0.62594558  1
  In  In16  1  0.66277145  0.83375378  0.12489275  1
  In  In17  1  0.65385564  0.83243748  0.62137872  1
  In  In18  1  0.17265114  0.00150093  0.37478864  1
  In  In19  1  0.16385163  0.00356301  0.88379276  1
  In  In20  1  0.15658475  0.33605495  0.38427756  1
  In  In21  1  0.16401150  0.33519412  0.86989390  1
  In  In22  1  0.17135531  0.65575026  0.37839372  1
  In  In23  1  0.16870655  0.67315949  0.86942795  1
  In  In24  1  0.49097254  -0.01051471  0.36462534  1
  In  In25  1  0.48925997  -0.00885797  0.87909631  1
  In  In26  1  0.51238638  0.33759571  0.37969639  1
  In  In27  1  0.50295748  0.34215883  0.86683673  1
  In  In28  1  0.49654777  0.66354125  0.37740697  1
  In  In29  1  0.49679322  0.66948937  0.87293773  1
  In  In30  1  0.83535715  0.01758285  0.37400119  1
  In  In31  1  0.82556405  -0.00013680  0.87892702  1
  In  In32  1  0.82959887  0.33150552  0.37855520  1
  In  In33  1  0.85091823  0.35185212  0.85753736  1
  In  In34  1  0.82946623  0.67761736  0.37507614  1
  In  In35  1  0.83852237  0.68103977  0.86970551  1
  In  In36  1  -0.01880214  0.17977600  0.39830361  1
  In  In37  1  0.01115096  0.19302598  0.86050797  1
  In  In38  1  0.01956918  0.49455079  0.38581475  1
  In  In39  1  0.02891535  0.52345881  0.84384258  1
  In  In40  1  -0.00061952  0.83172633  0.37602507  1
  In  In41  1  0.00781873  0.82759909  0.88295061  1
  In  In42  1  0.33215874  0.15200588  0.37499210  1
  In  In43  1  0.31919733  0.16430276  0.87033023  1
  In  In44  1  0.32447031  0.51196145  0.38563527  1
  In  In45  1  0.31005946  0.48307694  0.85475713  1
  In  In46  1  0.33840352  0.84085947  0.36880717  1
  In  In47  1  0.34033654  0.82741012  0.87916818  1
  In  In48  1  0.67165224  0.17920025  0.36963930  1
  In  In49  1  0.67634701  0.17537585  0.86836877  1
  In  In50  1  0.65974177  0.49819689  0.37561764  1
  In  In51  1  0.66885752  0.50431906  0.86861490  1
  In  In52  1  0.65324315  0.81951528  0.36332200  1
  In  In53  1  0.66614501  0.82714863  0.88342837  1
  In  In54  1  0.16951128  0.00076930  0.12165604  1
  In  In55  1  0.16277742  0.00427794  0.62203754  1
  In  In56  1  0.16145570  0.32399365  0.11786867  1
  In  In57  1  0.16981483  0.33619576  0.62522265  1
  In  In58  1  0.17437114  0.67370674  0.11805473  1
  In  In59  1  0.19267301  0.63665282  0.68165327  1
  In  In60  1  0.50973476  -0.00885823  0.13280281  1
  In  In61  1  0.50344904  -0.01396215  0.61783652  1
  In  In62  1  0.50579184  0.34427709  0.12647938  1
  In  In63  1  0.48350151  0.35161215  0.62972572  1
  In  In64  1  0.48974085  0.67316046  0.13168960  1
  In  In65  1  0.50063887  0.66903203  0.61967972  1
  In  In66  1  0.83187859  -0.00869403  0.12455685  1
  In  In67  1  0.84009482  0.01240473  0.61466159  1
  In  In68  1  0.83731938  0.33436451  0.13441109  1
  In  In69  1  0.85112597  0.30553571  0.63825999  1
  In  In70  1  0.82289175  0.66670858  0.12392039  1
  In  In71  1  0.83842104  0.65945986  0.63659281  1
  In  In72  1  0.49302195  0.51071173  -0.00131435  1
  In  In73  1  0.49756482  0.16671010  0.49727636  1
  In  In74  1  0.83743088  0.49248584  0.51050686  1
  In  In75  1  0.00046225  0.00508464  0.24816548  1
  In  In76  1  0.49572398  0.16024801  -0.00277014  1
  In  In77  1  0.66454183  0.00021340  0.74798458  1
  In  In78  1  -0.00236274  0.65990239  0.25240409  1
  In  In79  1  0.33393286  -0.00371976  0.74477119  1
  In  In80  1  0.84018460  0.16447766  -0.00351503  1
  In  In81  1  -0.00080838  0.00487668  0.74537238  1
  In  In82  1  0.83113572  0.83851252  0.50153067  1
  In  In83  1  0.16728539  0.83513466  0.50370120  1
  In  In84  1  0.33893840  0.33196422  0.24900988  1
  In  In85  1  0.83959175  0.50516716  -0.00748942  1
  Cu  Cu86  1  0.33032882  -0.00599143  0.49976691  1
  Cu  Cu87  1  0.83155809  0.17471989  0.25538539  1
  Cu  Cu88  1  0.66631536  -0.00181198  0.49004293  1
  Cu  Cu89  1  0.01150354  0.33777377  -0.00504623  1
  Cu  Cu90  1  0.50417041  0.17257331  0.74779944  1
  Cu  Cu91  1  0.82392189  0.83341433  0.24583756  1
  Cu  Cu92  1  0.17554443  0.83078367  0.24633444  1
  Cu  Cu93  1  0.32691643  0.33841087  0.50252949  1
  Cu  Cu94  1  0.67368669  0.33380970  -0.00008795  1
  Cu  Cu95  1  0.00083792  0.00192463  -0.00027963  1
  Cu  Cu96  1  0.49854210  0.16372679  0.25431491  1
  Cu  Cu97  1  0.81849815  0.49719930  0.74443809  1
  Cu  Cu98  1  0.66171057  -0.00713905  0.00150010  1
  Cu  Cu99  1  0.00719545  0.65857948  0.51052549  1
  Cu  Cu100  1  0.83455254  0.49418509  0.25705856  1
  Cu  Cu101  1  0.16001456  0.17055468  0.24995541  1
  Cu  Cu102  1  0.32466198  0.66139693  -0.00423317  1
  Cu  Cu103  1  0.32378177  0.33450555  -0.00892845  1
  Cu  Cu104  1  0.50282804  0.50936298  0.74706504  1
  Cu  Cu105  1  0.66034640  0.67580539  0.00382377  1
  Cu  Cu106  1  0.16993294  0.49596360  0.25672200  1
  Cu  Cu107  1  0.66918637  0.33220290  0.50269720  1
  Cu  Cu108  1  0.50379762  0.50123910  0.25359887  1
  Cu  Cu109  1  0.49655642  0.82265696  0.74703876  1
  Cu  Cu110  1  0.82578404  0.83983909  0.75146487  1
  Cu  Cu111  1  0.66364418  0.66583952  0.49950327  1
  Cu  Cu112  1  0.32925249  -0.00727839  0.00184138  1
  Cu  Cu113  1  0.00370205  0.66277742  -0.01110761  1
  Cu  Cu114  1  0.50030176  0.83003610  0.24745298  1
  Se  Se115  1  0.08370534  0.08406415  0.05483378  1
  Se  Se116  1  0.08296136  0.07628326  0.54884696  1
  Se  Se117  1  0.08883561  0.42120907  0.05295455  1
  Se  Se118  1  0.08863135  0.42508864  0.55841793  1
  Se  Se119  1  0.08438018  0.74519629  0.04799118  1
  Se  Se120  1  0.08692687  0.74201623  0.56646934  1
  Se  Se121  1  0.40934154  0.07524004  0.06281173  1
  Se  Se122  1  0.40852824  0.07951757  0.56079461  1
  Se  Se123  1  0.40670329  0.40802465  0.05489761  1
  Se  Se124  1  0.41429490  0.42334563  0.54839725  1
  Se  Se125  1  0.41157785  0.73917362  0.05231062  1
  Se  Se126  1  0.43385145  0.76992144  0.55431188  1
  Se  Se127  1  0.74039422  0.08169222  0.05650987  1
  Se  Se128  1  0.74585235  0.08052553  0.54599690  1
  Se  Se129  1  0.75169946  0.41634129  0.05949672  1
  Se  Se130  1  0.74751981  0.40419409  0.56975956  1
  Se  Se131  1  0.75009576  0.75460742  0.05485857  1
  Se  Se132  1  0.74912267  0.73989443  0.56030117  1
  Se  Se133  1  0.24897520  0.24747310  0.04858190  1
  Se  Se134  1  0.24767888  0.24947227  0.55212581  1
  Se  Se135  1  0.24596264  0.57721288  0.05183332  1
  Se  Se136  1  0.25199083  0.62041612  0.57709184  1
  Se  Se137  1  0.24665516  0.90985946  0.05635713  1
  Se  Se138  1  0.26099380  0.91540091  0.56757368  1
  Se  Se139  1  0.58930764  0.25468325  0.05582135  1
  Se  Se140  1  0.57912712  0.25786961  0.56153931  1
  Se  Se141  1  0.59009400  0.58633257  0.06362279  1
  Se  Se142  1  0.58158614  0.58113178  0.55167518  1
  Se  Se143  1  0.57673680  0.91246732  0.05391291  1
  Se  Se144  1  0.58632553  0.91389687  0.54388060  1
  Se  Se145  1  0.92492326  0.26301245  0.05574086  1
  Se  Se146  1  0.90795748  0.24667963  0.54831274  1
  Se  Se147  1  0.92720208  0.59132388  0.05979123  1
  Se  Se148  1  0.92788700  0.57989408  0.56995000  1
  Se  Se149  1  0.91342580  0.92056676  0.05016113  1
  Se  Se150  1  0.93076928  0.91487691  0.56115825  1
  Se  Se151  1  0.09860765  0.23285518  0.44911024  1
  Se  Se152  1  0.08913492  0.24775399  0.94402243  1
  Se  Se153  1  0.09361066  0.58243202  0.45481581  1
  Se  Se154  1  0.08675570  0.58097545  0.93559244  1
  Se  Se155  1  0.07561429  0.92319066  0.44144422  1
  Se  Se156  1  0.08554605  0.91552954  0.95055711  1
  Se  Se157  1  0.40554212  0.25867553  0.43862361  1
  Se  Se158  1  0.41457859  0.25788584  0.93726718  1
  Se  Se159  1  0.42433641  0.57634592  0.44870070  1
  Se  Se160  1  0.39794316  0.58014129  0.93113728  1
  Se  Se161  1  0.41708871  0.91816664  0.44402616  1
  Se  Se162  1  0.41754538  0.91068441  0.95285653  1
  Se  Se163  1  0.74908295  0.24766854  0.44876200  1
  Se  Se164  1  0.75772082  0.26350334  0.93803357  1
  Se  Se165  1  0.75231880  0.58702486  0.44511142  1
  Se  Se166  1  0.74059345  0.59638848  0.94244467  1
  Se  Se167  1  0.74448861  0.91546909  0.43027665  1
  Se  Se168  1  0.74974498  0.91471900  0.94828133  1
  Se  Se169  1  0.24939530  0.08102133  0.44940993  1
  Se  Se170  1  0.25403125  0.08375956  0.94916428  1
  Se  Se171  1  0.24280197  0.42138940  0.44845659  1
  Se  Se172  1  0.24265505  0.42152281  0.94136814  1
  Se  Se173  1  0.25662819  0.74987225  0.43858633  1
  Se  Se174  1  0.24668889  0.75131325  0.94437673  1
  Se  Se175  1  0.58406327  0.08008972  0.43233199  1
  Se  Se176  1  0.59382546  0.07766178  0.93556759  1
  Se  Se177  1  0.58701963  0.41914658  0.45268057  1
  Se  Se178  1  0.59014374  0.41668793  0.94508444  1
  Se  Se179  1  0.58341059  0.74929639  0.44428952  1
  Se  Se180  1  0.57259391  0.75046200  0.94774616  1
  Se  Se181  1  0.91792736  0.06980659  0.45369920  1
  Se  Se182  1  0.93128231  0.08248711  0.93283337  1
  Se  Se183  1  0.92681303  0.40751891  0.44674332  1
  Se  Se184  1  0.93355507  0.41947156  0.93549788  1
  Se  Se185  1  0.92796238  0.73876141  0.44956405  1
  Se  Se186  1  0.91365269  0.75138529  0.94891711  1
  Se  Se187  1  0.24654834  0.24619967  0.30999213  1
  Se  Se188  1  0.26000319  0.26209356  0.80465399  1
  Se  Se189  1  0.25313016  0.58343305  0.30382181  1
  Se  Se190  1  0.24404952  0.58751594  0.79544298  1
  Se  Se191  1  0.24847318  0.91993327  0.30202619  1
  Se  Se192  1  0.24877074  0.91702560  0.81584336  1
  Se  Se193  1  0.57820924  0.25346038  0.30326244  1
  Se  Se194  1  0.58631325  0.25280618  0.80367010  1
  Se  Se195  1  0.58557322  0.58685173  0.30655414  1
  Se  Se196  1  0.58310765  0.58929234  0.80540286  1
  Se  Se197  1  0.58470308  0.91730040  0.29794564  1
  Se  Se198  1  0.57360366  0.90879496  0.80667482  1
  Se  Se199  1  0.91829931  0.24875478  0.31241099  1
  Se  Se200  1  0.89891653  0.23747774  0.80041493  1
  Se  Se201  1  0.91359072  0.57290437  0.31986343  1
  Se  Se202  1  0.89618190  0.57073896  0.81067635  1
  Se  Se203  1  0.90834338  0.90973300  0.30629316  1
  Se  Se204  1  0.91133730  0.91529058  0.81083079  1
  Se  Se205  1  0.08135336  0.09301020  0.31361639  1
  Se  Se206  1  0.09446634  0.08991973  0.80650244  1
  Se  Se207  1  0.08365325  0.41395468  0.30649754  1
  Se  Se208  1  0.06868567  0.39801510  0.79781576  1
  Se  Se209  1  0.09197928  0.75477534  0.30756286  1
  Se  Se210  1  0.06690226  0.74203939  0.80657639  1
  Se  Se211  1  0.41006838  0.07925519  0.29891868  1
  Se  Se212  1  0.42672993  0.08866385  0.80715289  1
  Se  Se213  1  0.42070834  0.42264686  0.31354070  1
  Se  Se214  1  0.42035195  0.42143572  0.79777127  1
  Se  Se215  1  0.41930590  0.74971510  0.30568936  1
  Se  Se216  1  0.40995411  0.74581069  0.80246698  1
  Se  Se217  1  0.74769023  0.08679197  0.30246147  1
  Se  Se218  1  0.76255635  0.08897315  0.80073607  1
  Se  Se219  1  0.74754876  0.41514798  0.31061402  1
  Se  Se220  1  0.73897338  0.41184256  0.80098961  1
  Se  Se221  1  0.74801806  0.74324495  0.29828377  1
  Se  Se222  1  0.74306991  0.75608741  0.80516943  1
  Se  Se223  1  0.24063051  0.08271282  0.19842229  1
  Se  Se224  1  0.24166479  0.09302091  0.69429564  1
  Se  Se225  1  0.24627113  0.41899967  0.18940902  1
  Se  Se226  1  0.25463016  0.42142755  0.69009382  1
  Se  Se227  1  0.25465279  0.74344479  0.19450197  1
  Se  Se228  1  0.24733450  0.76939012  0.70809988  1
  Se  Se229  1  0.58417770  0.08392019  0.19866308  1
  Se  Se230  1  0.57487154  0.08809601  0.68526173  1
  Se  Se231  1  0.58580933  0.41418411  0.20205425  1
  Se  Se232  1  0.58134637  0.41920906  0.69535513  1
  Se  Se233  1  0.58560129  0.74692467  0.19494286  1
  Se  Se234  1  0.58609504  0.74591536  0.69406241  1
  Se  Se235  1  0.90704642  0.09617924  0.18846292  1
  Se  Se236  1  0.92122964  0.09631320  0.68162804  1
  Se  Se237  1  0.92081814  0.41657617  0.20213009  1
  Se  Se238  1  0.90830782  0.41840473  0.69491752  1
  Se  Se239  1  0.91494039  0.75705606  0.19040868  1
  Se  Se240  1  0.91101915  0.75390167  0.70254601  1
  Se  Se241  1  0.08074718  0.25773734  0.19745212  1
  Se  Se242  1  0.08089557  0.25271218  0.68984318  1
  Se  Se243  1  0.09181186  0.57662196  0.19189500  1
  Se  Se244  1  0.05633303  0.59910187  0.70587088  1
  Se  Se245  1  0.08439677  0.90528264  0.18999392  1
  Se  Se246  1  0.09729413  0.91090600  0.69801747  1
  Se  Se247  1  0.42476350  0.23982833  0.18490356  1
  Se  Se248  1  0.41672103  0.25424191  0.69754403  1
  Se  Se249  1  0.41712406  0.58008426  0.19943812  1
  Se  Se250  1  0.41905524  0.58571143  0.68917039  1
  Se  Se251  1  0.41490351  0.91230242  0.19400741  1
  Se  Se252  1  0.42018553  0.90457040  0.68654500  1
  Se  Se253  1  0.74782002  0.25664129  0.19997920  1
  Se  Se254  1  0.73956224  0.24983755  0.69703769  1
  Se  Se255  1  0.75901673  0.58123374  0.20029266  1
  Se  Se256  1  0.73860068  0.58883639  0.69815017  1
  Se  Se257  1  0.74396260  0.92059552  0.19446575  1
  Se  Se258  1  0.75643081  0.91641953  0.68285368  1
