# generated using pymatgen
data_In86Cu29Se144
_symmetry_space_group_name_H-M   'P 1'
_cell_length_a   17.58129442
_cell_length_b   17.57745713
_cell_length_c   23.43954509
_cell_angle_alpha   90.01274890
_cell_angle_beta   89.97820375
_cell_angle_gamma   89.98709935
_symmetry_Int_Tables_number   1
_chemical_formula_structural   In86Cu29Se144
_chemical_formula_sum   'In86 Cu29 Se144'
_cell_volume   7243.62601147
_cell_formula_units_Z   1
loop_
 _symmetry_equiv_pos_site_id
 _symmetry_equiv_pos_as_xyz
  1  'x, y, z'
loop_
 _atom_site_type_symbol
 _atom_site_label
 _atom_site_symmetry_multiplicity
 _atom_site_fract_x
 _atom_site_fract_y
 _atom_site_fract_z
 _atom_site_occupancy
  In  In0  1  0.01347876  0.15869097  0.13690207  1
  In  In1  1  -0.01102768  0.17332231  0.63962009  1
  In  In2  1  0.01143796  0.49340265  0.12728975  1
  In  In3  1  0.00006347  0.49743704  0.63357943  1
  In  In4  1  -0.00369668  0.83719116  0.12764732  1
  In  In5  1  -0.01714482  0.84808623  0.63570407  1
  In  In6  1  0.33038618  0.15953178  0.11010997  1
  In  In7  1  0.33863327  0.16344350  0.63039297  1
  In  In8  1  0.33565557  0.50430627  0.11820324  1
  In  In9  1  0.34090609  0.48674840  0.62829063  1
  In  In10  1  0.32683880  0.82301018  0.12195276  1
  In  In11  1  0.34693689  0.83439771  0.62787313  1
  In  In12  1  0.65668582  0.17384274  0.12286434  1
  In  In13  1  0.66339757  0.16848601  0.63118332  1
  In  In14  1  0.66268770  0.50498610  0.12120289  1
  In  In15  1  0.64879549  0.49252481  0.62210163  1
  In  In16  1  0.67414889  0.83902234  0.11686124  1
  In  In17  1  0.67900853  0.84560651  0.61864170  1
  In  In18  1  0.14213592  0.00663902  0.37336994  1
  In  In19  1  0.18247619  0.01252481  0.87211836  1
  In  In20  1  0.16884327  0.33820252  0.37427399  1
  In  In21  1  0.16529362  0.33137613  0.87751502  1
  In  In22  1  0.16816274  0.66541255  0.36194114  1
  In  In23  1  0.14004804  0.66366431  0.88423842  1
  In  In24  1  0.50465051  -0.00253044  0.38554069  1
  In  In25  1  0.49698811  0.00472943  0.87520576  1
  In  In26  1  0.50095237  0.33212108  0.40074648  1
  In  In27  1  0.49404418  0.33416290  0.87051376  1
  In  In28  1  0.49913001  0.66929278  0.37620266  1
  In  In29  1  0.49646208  0.67044065  0.88157709  1
  In  In30  1  0.83914986  -0.00089763  0.38296217  1
  In  In31  1  0.82124172  0.00113129  0.85989635  1
  In  In32  1  0.83025250  0.32445028  0.37966098  1
  In  In33  1  0.82811800  0.31839910  0.85574239  1
  In  In34  1  0.84535432  0.67185311  0.37288958  1
  In  In35  1  0.85191084  0.67084286  0.87839550  1
  In  In36  1  -0.00761557  0.15577155  0.36749189  1
  In  In37  1  0.00766093  0.17370865  0.86799148  1
  In  In38  1  0.00600153  0.50251308  0.36928477  1
  In  In39  1  0.00309413  0.49949319  0.87400578  1
  In  In40  1  -0.01133308  0.83000383  0.36597362  1
  In  In41  1  -0.01096173  0.82853804  0.87431351  1
  In  In42  1  0.33828184  0.17073651  0.37800608  1
  In  In43  1  0.32777078  0.16660649  0.87842601  1
  In  In44  1  0.33446804  0.50132987  0.37380054  1
  In  In45  1  0.33768701  0.49108743  0.88087819  1
  In  In46  1  0.34530250  0.83291480  0.37000785  1
  In  In47  1  0.33648679  0.85110044  0.88008961  1
  In  In48  1  0.66582329  0.17284076  0.39365373  1
  In  In49  1  0.65781206  0.15669191  0.85662216  1
  In  In50  1  0.65655727  0.48755538  0.37844017  1
  In  In51  1  0.66603682  0.48544675  0.86965660  1
  In  In52  1  0.67031408  0.83344231  0.38198103  1
  In  In53  1  0.65809051  0.84318373  0.87969612  1
  In  In54  1  0.16350214  0.00097008  0.11774607  1
  In  In55  1  0.15806886  0.00792487  0.63765903  1
  In  In56  1  0.15517837  0.32241782  0.11377502  1
  In  In57  1  0.17217691  0.32797979  0.63454038  1
  In  In58  1  0.17421249  0.66459097  0.12868088  1
  In  In59  1  0.16085136  0.65534306  0.62881818  1
  In  In60  1  0.49409723  -0.00369452  0.10765568  1
  In  In61  1  0.50138570  0.00348462  0.62828106  1
  In  In62  1  0.48879771  0.32593292  0.11345836  1
  In  In63  1  0.49765225  0.33075972  0.62742572  1
  In  In64  1  0.49201760  0.65745261  0.11725995  1
  In  In65  1  0.50359466  0.67318608  0.61775920  1
  In  In66  1  0.84673877  -0.00232413  0.12365444  1
  In  In67  1  0.83041991  0.00415062  0.62974229  1
  In  In68  1  0.84316516  0.34305999  0.12351428  1
  In  In69  1  0.83755592  0.31928270  0.63797755  1
  In  In70  1  0.84388975  0.68534729  0.12017033  1
  In  In71  1  0.83211463  0.67856104  0.62258725  1
  In  In72  1  0.17172597  0.16618246  0.50255627  1
  In  In73  1  0.67061818  0.66663391  0.74247620  1
  In  In74  1  0.82693544  0.49704063  0.50081486  1
  In  In75  1  0.16912712  0.83224194  0.50108094  1
  In  In76  1  0.17350437  0.49706700  0.49252394  1
  In  In77  1  0.67714366  0.66864386  0.25183601  1
  In  In78  1  0.32540196  -0.00771822  0.24065196  1
  In  In79  1  0.17047004  0.83823542  0.00116580  1
  In  In80  1  0.83049498  0.16217317  -0.00663544  1
  In  In81  1  0.32862033  0.33143762  0.25429814  1
  In  In82  1  0.66808069  0.32945693  0.25952123  1
  In  In83  1  0.32656622  0.66950238  0.75915715  1
  In  In84  1  0.83036926  0.49991272  -0.00473908  1
  In  In85  1  0.67264873  0.00098065  0.25035867  1
  Cu  Cu86  1  0.33634414  -0.00301039  0.50416814  1
  Cu  Cu87  1  0.00132613  -0.00026807  -0.00090946  1
  Cu  Cu88  1  0.16931161  0.49866897  0.24698253  1
  Cu  Cu89  1  0.84738110  0.50492539  0.24745028  1
  Cu  Cu90  1  -0.01448276  0.00246769  0.50531490  1
  Cu  Cu91  1  0.66352218  0.67015290  0.49845347  1
  Cu  Cu92  1  0.66393123  0.00247152  0.50868485  1
  Cu  Cu93  1  0.16187424  0.83581599  0.24392122  1
  Cu  Cu94  1  0.83495605  0.49606611  0.75167949  1
  Cu  Cu95  1  0.50542239  0.85140483  0.75122568  1
  Cu  Cu96  1  0.33003808  0.33851848  -0.00485807  1
  Cu  Cu97  1  -0.00226255  0.32871981  -0.00531453  1
  Cu  Cu98  1  0.16015543  0.49757483  0.75402221  1
  Cu  Cu99  1  0.50370283  0.82132927  0.24856841  1
  Cu  Cu100  1  0.00038481  0.32754210  0.50743509  1
  Cu  Cu101  1  0.33155891  0.66519147  0.00017419  1
  Cu  Cu102  1  -0.00362815  0.67932518  0.50008529  1
  Cu  Cu103  1  0.49600413  0.16325804  0.25358879  1
  Cu  Cu104  1  0.83782115  0.16926934  0.25408259  1
  Cu  Cu105  1  0.83193941  0.83221656  0.74925304  1
  Cu  Cu106  1  0.49283344  0.16993753  0.74990513  1
  Cu  Cu107  1  0.17108268  0.16904547  0.75436853  1
  Cu  Cu108  1  0.49731265  0.49427832  0.24307673  1
  Cu  Cu109  1  0.66822705  0.00062101  -0.00946946  1
  Cu  Cu110  1  0.16546126  0.83204358  0.76100705  1
  Cu  Cu111  1  0.66389688  0.66755485  0.00054683  1
  Cu  Cu112  1  0.65287823  0.33014028  -0.00838757  1
  Cu  Cu113  1  0.49632183  0.49865933  0.74959249  1
  Cu  Cu114  1  0.34310617  0.66331792  0.49730869  1
  Se  Se115  1  0.07919977  0.08710588  0.05264023  1
  Se  Se116  1  0.07512743  0.08035209  0.55978559  1
  Se  Se117  1  0.07876080  0.41468889  0.04770940  1
  Se  Se118  1  0.08373910  0.41214790  0.56010684  1
  Se  Se119  1  0.08318892  0.74785770  0.06078986  1
  Se  Se120  1  0.07680912  0.75010005  0.56565199  1
  Se  Se121  1  0.43108744  0.09786652  0.04637427  1
  Se  Se122  1  0.41568147  0.08266224  0.55729629  1
  Se  Se123  1  0.41641633  0.42008142  0.04908786  1
  Se  Se124  1  0.42756342  0.42376665  0.55610538  1
  Se  Se125  1  0.41524446  0.75005767  0.05190159  1
  Se  Se126  1  0.41668475  0.75436119  0.55101181  1
  Se  Se127  1  0.74145497  0.07597281  0.06092387  1
  Se  Se128  1  0.74790928  0.08582691  0.56061718  1
  Se  Se129  1  0.73788842  0.40413783  0.05382954  1
  Se  Se130  1  0.75035274  0.40748375  0.56804415  1
  Se  Se131  1  0.75178013  0.75050508  0.04902697  1
  Se  Se132  1  0.75018467  0.75193437  0.54971058  1
  Se  Se133  1  0.24919976  0.25076654  0.04787274  1
  Se  Se134  1  0.26037163  0.25885704  0.55936425  1
  Se  Se135  1  0.24560203  0.58355321  0.05224212  1
  Se  Se136  1  0.25829581  0.58853820  0.55790662  1
  Se  Se137  1  0.26718661  0.92929681  0.05470103  1
  Se  Se138  1  0.25094339  0.92491198  0.56498753  1
  Se  Se139  1  0.57624855  0.24391933  0.04756762  1
  Se  Se140  1  0.57671977  0.24271992  0.56103694  1
  Se  Se141  1  0.58109628  0.57927236  0.04911060  1
  Se  Se142  1  0.58318927  0.58534578  0.55165904  1
  Se  Se143  1  0.58859555  0.91594577  0.04781135  1
  Se  Se144  1  0.57814518  0.91566676  0.55705909  1
  Se  Se145  1  0.91984424  0.24837493  0.05736794  1
  Se  Se146  1  0.91658581  0.24649484  0.55999054  1
  Se  Se147  1  0.91935276  0.58058036  0.06059538  1
  Se  Se148  1  0.92464218  0.58698415  0.55726611  1
  Se  Se149  1  0.91877467  0.91448148  0.05038364  1
  Se  Se150  1  0.90518091  0.91436575  0.55621007  1
  Se  Se151  1  0.07926939  0.25332921  0.44147750  1
  Se  Se152  1  0.08475665  0.24358099  0.94652099  1
  Se  Se153  1  0.07936561  0.59742312  0.44270955  1
  Se  Se154  1  0.06818268  0.57750968  0.95371536  1
  Se  Se155  1  0.07033397  0.92077447  0.44807816  1
  Se  Se156  1  0.08252939  0.92301082  0.93599696  1
  Se  Se157  1  0.41883717  0.23519513  0.45371062  1
  Se  Se158  1  0.41409186  0.25447721  0.94279206  1
  Se  Se159  1  0.42197621  0.57783985  0.44254184  1
  Se  Se160  1  0.41596690  0.58249562  0.94643417  1
  Se  Se161  1  0.41441370  0.91244617  0.44696526  1
  Se  Se162  1  0.43378719  0.91032844  0.94720701  1
  Se  Se163  1  0.74695969  0.26261097  0.45501429  1
  Se  Se164  1  0.73936028  0.25236295  0.93474888  1
  Se  Se165  1  0.74328413  0.59119098  0.43581420  1
  Se  Se166  1  0.74016696  0.59045279  0.93410403  1
  Se  Se167  1  0.74596398  0.92369479  0.44824855  1
  Se  Se168  1  0.75696418  0.92061621  0.94020264  1
  Se  Se169  1  0.25282890  0.06826108  0.43919604  1
  Se  Se170  1  0.25447441  0.08105169  0.95126208  1
  Se  Se171  1  0.26859457  0.40043544  0.44471641  1
  Se  Se172  1  0.24126468  0.42154226  0.94698154  1
  Se  Se173  1  0.25657035  0.74028443  0.43879860  1
  Se  Se174  1  0.25394417  0.74362811  0.93628636  1
  Se  Se175  1  0.57950224  0.08416731  0.45414736  1
  Se  Se176  1  0.58875169  0.08866864  0.93955492  1
  Se  Se177  1  0.59497440  0.41283070  0.45861520  1
  Se  Se178  1  0.57542838  0.42078235  0.94129106  1
  Se  Se179  1  0.57961631  0.75339163  0.44503032  1
  Se  Se180  1  0.58211781  0.75289021  0.94703672  1
  Se  Se181  1  0.91344138  0.09354648  0.44911999  1
  Se  Se182  1  0.92225671  0.07560409  0.93368961  1
  Se  Se183  1  0.92906681  0.41435462  0.44391278  1
  Se  Se184  1  0.90914535  0.40004929  0.93489132  1
  Se  Se185  1  0.91294529  0.75981950  0.44659362  1
  Se  Se186  1  0.92144599  0.75065548  0.95303539  1
  Se  Se187  1  0.23904569  0.23465922  0.30835970  1
  Se  Se188  1  0.25247264  0.25451376  0.80733475  1
  Se  Se189  1  0.25610552  0.57889246  0.30056905  1
  Se  Se190  1  0.23687464  0.57880161  0.81711153  1
  Se  Se191  1  0.23793876  0.91165880  0.31214704  1
  Se  Se192  1  0.25462849  0.91800542  0.80342752  1
  Se  Se193  1  0.57167111  0.24271446  0.31592766  1
  Se  Se194  1  0.57870611  0.25560136  0.79953834  1
  Se  Se195  1  0.58061202  0.57315802  0.30299223  1
  Se  Se196  1  0.57670830  0.58338355  0.80659304  1
  Se  Se197  1  0.57711152  0.90840482  0.30724651  1
  Se  Se198  1  0.59080888  0.92985385  0.80540519  1
  Se  Se199  1  0.91697431  0.25685924  0.30675719  1
  Se  Se200  1  0.92474849  0.24646765  0.79500358  1
  Se  Se201  1  0.92507663  0.58968869  0.30327269  1
  Se  Se202  1  0.91550538  0.58012955  0.80557804  1
  Se  Se203  1  0.92794765  0.93872969  0.30799410  1
  Se  Se204  1  0.91581606  0.91536404  0.80267938  1
  Se  Se205  1  0.08406759  0.09006197  0.29664311  1
  Se  Se206  1  0.08809405  0.08133351  0.80403420  1
  Se  Se207  1  0.08815948  0.41655988  0.30331022  1
  Se  Se208  1  0.07927665  0.41058207  0.80646550  1
  Se  Se209  1  0.08153679  0.75248537  0.30134591  1
  Se  Se210  1  0.07753822  0.74733965  0.80654146  1
  Se  Se211  1  0.41801523  0.07585266  0.30825135  1
  Se  Se212  1  0.41282117  0.08650240  0.80699922  1
  Se  Se213  1  0.43054873  0.41237203  0.31144473  1
  Se  Se214  1  0.40940976  0.41818397  0.80134378  1
  Se  Se215  1  0.41672087  0.74191050  0.30062604  1
  Se  Se216  1  0.42650796  0.76270041  0.80685552  1
  Se  Se217  1  0.74973720  0.09743077  0.31417367  1
  Se  Se218  1  0.76950463  0.10849363  0.79360921  1
  Se  Se219  1  0.76218098  0.42955460  0.30839975  1
  Se  Se220  1  0.74463778  0.41161695  0.79533741  1
  Se  Se221  1  0.76234947  0.76629490  0.30674299  1
  Se  Se222  1  0.75238225  0.75216726  0.81159314  1
  Se  Se223  1  0.24245676  0.09407120  0.18885592  1
  Se  Se224  1  0.25264017  0.08420910  0.69985488  1
  Se  Se225  1  0.24662628  0.41673575  0.18586659  1
  Se  Se226  1  0.24851673  0.42168224  0.69912494  1
  Se  Se227  1  0.25205564  0.75091694  0.19960913  1
  Se  Se228  1  0.24136203  0.75689737  0.69154203  1
  Se  Se229  1  0.57334951  0.08370933  0.19082167  1
  Se  Se230  1  0.57982268  0.08479013  0.70044491  1
  Se  Se231  1  0.57994045  0.41144143  0.18814193  1
  Se  Se232  1  0.58115993  0.41382943  0.69967098  1
  Se  Se233  1  0.58539607  0.74938968  0.18503422  1
  Se  Se234  1  0.57864130  0.76387016  0.69066194  1
  Se  Se235  1  0.91417734  0.08381790  0.19736342  1
  Se  Se236  1  0.94276298  0.05423680  0.69198302  1
  Se  Se237  1  0.92483580  0.41376575  0.19737536  1
  Se  Se238  1  0.92003370  0.41180637  0.69992597  1
  Se  Se239  1  0.92004536  0.75144517  0.19820410  1
  Se  Se240  1  0.91522249  0.74466490  0.69908385  1
  Se  Se241  1  0.07694748  0.26446337  0.19576022  1
  Se  Se242  1  0.08498652  0.25106894  0.70141185  1
  Se  Se243  1  0.08583380  0.58415148  0.19573971  1
  Se  Se244  1  0.07851916  0.58443790  0.70252840  1
  Se  Se245  1  0.08477573  0.92296872  0.19056327  1
  Se  Se246  1  0.08485090  0.91128244  0.70062856  1
  Se  Se247  1  0.41697046  0.24026437  0.19137254  1
  Se  Se248  1  0.40934046  0.25611407  0.69915145  1
  Se  Se249  1  0.41528349  0.58114722  0.19345909  1
  Se  Se250  1  0.42087813  0.58904840  0.69326273  1
  Se  Se251  1  0.42797732  0.90629469  0.18767868  1
  Se  Se252  1  0.41270622  0.92486505  0.69889065  1
  Se  Se253  1  0.75756485  0.24574732  0.19044338  1
  Se  Se254  1  0.76058998  0.22859860  0.70444225  1
  Se  Se255  1  0.76195845  0.57694212  0.18676043  1
  Se  Se256  1  0.75813551  0.57173050  0.68443846  1
  Se  Se257  1  0.76178055  0.90910372  0.19327767  1
  Se  Se258  1  0.74722420  0.91827209  0.69952488  1
