# generated using pymatgen
data_In86Cu29Se144
_symmetry_space_group_name_H-M   'P 1'
_cell_length_a   17.58011142
_cell_length_b   17.57638328
_cell_length_c   23.43771996
_cell_angle_alpha   90.01275658
_cell_angle_beta   90.03393115
_cell_angle_gamma   89.97040192
_symmetry_Int_Tables_number   1
_chemical_formula_structural   In86Cu29Se144
_chemical_formula_sum   'In86 Cu29 Se144'
_cell_volume   7242.13062202
_cell_formula_units_Z   1
loop_
 _symmetry_equiv_pos_site_id
 _symmetry_equiv_pos_as_xyz
  1  'x, y, z'
loop_
 _atom_site_type_symbol
 _atom_site_label
 _atom_site_symmetry_multiplicity
 _atom_site_fract_x
 _atom_site_fract_y
 _atom_site_fract_z
 _atom_site_occupancy
  In  In0  1  0.00426797  0.15350149  0.12696832  1
  In  In1  1  -0.01970094  0.16710102  0.62215411  1
  In  In2  1  -0.00007984  0.49503438  0.10755068  1
  In  In3  1  0.00095037  0.49433198  0.62915019  1
  In  In4  1  0.00350834  0.83075551  0.12815123  1
  In  In5  1  0.01033925  0.84702174  0.61972236  1
  In  In6  1  0.33028367  0.16397069  0.13029934  1
  In  In7  1  0.33579784  0.14931183  0.60957699  1
  In  In8  1  0.33581902  0.49915326  0.12157429  1
  In  In9  1  0.34832802  0.50780018  0.62802493  1
  In  In10  1  0.32605600  0.84218697  0.15238085  1
  In  In11  1  0.33025594  0.83428838  0.61396317  1
  In  In12  1  0.67957249  0.17162638  0.13982259  1
  In  In13  1  0.66450883  0.15958357  0.62072184  1
  In  In14  1  0.66421302  0.50061697  0.12364221  1
  In  In15  1  0.65928182  0.50263349  0.63435371  1
  In  In16  1  0.66756162  0.83810036  0.15282841  1
  In  In17  1  0.66692111  0.83290081  0.61916645  1
  In  In18  1  0.15673157  -0.01075319  0.36741655  1
  In  In19  1  0.15939962  0.01054852  0.88694958  1
  In  In20  1  0.18020601  0.32519320  0.36957056  1
  In  In21  1  0.16130505  0.33096355  0.89267345  1
  In  In22  1  0.19569844  0.68383352  0.36228737  1
  In  In23  1  0.17705381  0.65890436  0.88286218  1
  In  In24  1  0.49866884  -0.00122128  0.37545447  1
  In  In25  1  0.50147264  -0.00907372  0.87266127  1
  In  In26  1  0.49204309  0.31511063  0.36953786  1
  In  In27  1  0.51511166  0.33076498  0.87744830  1
  In  In28  1  0.51330542  0.69051113  0.35386952  1
  In  In29  1  0.49308094  0.66703514  0.87186837  1
  In  In30  1  0.83514014  -0.00171800  0.36889993  1
  In  In31  1  0.82960684  -0.00269107  0.86508397  1
  In  In32  1  0.81667366  0.33290380  0.37078281  1
  In  In33  1  0.82505669  0.34213426  0.88068085  1
  In  In34  1  0.82866641  0.69787846  0.37108366  1
  In  In35  1  0.81799480  0.66287111  0.87429111  1
  In  In36  1  0.00265174  0.14827044  0.37020066  1
  In  In37  1  0.00557538  0.16448621  0.87796745  1
  In  In38  1  0.00005807  0.50255982  0.37070665  1
  In  In39  1  0.00164469  0.49148273  0.89236044  1
  In  In40  1  -0.01581689  0.85391611  0.38833601  1
  In  In41  1  0.00116742  0.84893788  0.87216643  1
  In  In42  1  0.34759159  0.17304466  0.37088354  1
  In  In43  1  0.31573172  0.15766127  0.87725153  1
  In  In44  1  0.34261477  0.49893642  0.36660216  1
  In  In45  1  0.32787261  0.50924055  0.88341753  1
  In  In46  1  0.33615679  0.83657641  0.37901748  1
  In  In47  1  0.33837117  0.82514233  0.87772810  1
  In  In48  1  0.67261774  0.15899549  0.36980525  1
  In  In49  1  0.66067067  0.16246359  0.86600055  1
  In  In50  1  0.65777497  0.50072446  0.36773912  1
  In  In51  1  0.66471322  0.50215300  0.88076015  1
  In  In52  1  0.66085349  0.84074985  0.36795881  1
  In  In53  1  0.66625387  0.83247487  0.86384211  1
  In  In54  1  0.17157632  -0.00798210  0.12550228  1
  In  In55  1  0.17224964  -0.01136559  0.62671287  1
  In  In56  1  0.17691862  0.34295126  0.11182030  1
  In  In57  1  0.16007030  0.32224398  0.62719204  1
  In  In58  1  0.17472301  0.67628713  0.11645960  1
  In  In59  1  0.17454419  0.68123021  0.62562117  1
  In  In60  1  0.49514927  -0.00507509  0.13715477  1
  In  In61  1  0.50734141  0.00894905  0.60547758  1
  In  In62  1  0.49190903  0.34001592  0.13037361  1
  In  In63  1  0.51044872  0.33570096  0.62060265  1
  In  In64  1  0.50837874  0.66401427  0.13094018  1
  In  In65  1  0.49379848  0.67216833  0.62805460  1
  In  In66  1  0.83573233  0.00236316  0.15149569  1
  In  In67  1  0.82924473  -0.00117864  0.62188884  1
  In  In68  1  0.82337242  0.33328195  0.12840536  1
  In  In69  1  0.82747189  0.31440884  0.62035632  1
  In  In70  1  0.83529572  0.66176920  0.12601383  1
  In  In71  1  0.81921823  0.66494067  0.62376466  1
  In  In72  1  0.33759538  -0.00204360  0.74542281  1
  In  In73  1  0.49729672  0.16748433  0.01280086  1
  In  In74  1  0.33738825  0.33680490  0.74627156  1
  In  In75  1  0.83817404  0.17004892  0.01017449  1
  In  In76  1  -0.01055376  0.33592871  0.76840340  1
  In  In77  1  0.16902881  0.50903046  0.48432184  1
  In  In78  1  -0.00435751  0.67059736  0.75777114  1
  In  In79  1  0.49530417  0.83364287  0.00767852  1
  In  In80  1  0.49923090  0.50040761  0.49989944  1
  In  In81  1  0.16801273  0.16391449  0.49420039  1
  In  In82  1  0.83514594  0.82784971  0.00425689  1
  In  In83  1  0.00208310  0.32746155  0.23875520  1
  In  In84  1  0.82840912  0.50575397  0.50580210  1
  In  In85  1  0.00130931  0.67215562  0.24253823  1
  Cu  Cu86  1  0.49943684  0.49516898  0.24451905  1
  Cu  Cu87  1  0.66489392  0.66651468  0.00409446  1
  Cu  Cu88  1  0.66405763  0.31889553  0.49768084  1
  Cu  Cu89  1  0.00136416  0.67001425  0.00124679  1
  Cu  Cu90  1  0.18049898  0.15974599  0.24992044  1
  Cu  Cu91  1  0.17632049  0.83474436  0.74817920  1
  Cu  Cu92  1  0.50318934  0.16694807  0.74205451  1
  Cu  Cu93  1  0.66644265  0.67549031  0.49129904  1
  Cu  Cu94  1  0.66746194  -0.00152240  0.00472973  1
  Cu  Cu95  1  0.82486712  0.50881289  0.24871584  1
  Cu  Cu96  1  -0.00345654  0.00104103  0.49902090  1
  Cu  Cu97  1  0.16923755  0.49578561  0.23869069  1
  Cu  Cu98  1  0.66955132  0.34105747  0.00319871  1
  Cu  Cu99  1  0.33854798  0.67201096  0.49490115  1
  Cu  Cu100  1  0.16170648  0.83514771  0.25086134  1
  Cu  Cu101  1  0.50599602  0.16665037  0.25169816  1
  Cu  Cu102  1  0.00661011  0.67931162  0.49936382  1
  Cu  Cu103  1  0.82215587  0.15887703  0.74399990  1
  Cu  Cu104  1  0.00180003  -0.00382083  0.00428451  1
  Cu  Cu105  1  0.15741679  0.16357353  0.75742978  1
  Cu  Cu106  1  0.17508147  0.50993048  0.75562607  1
  Cu  Cu107  1  0.33544312  0.66647231  0.00261650  1
  Cu  Cu108  1  0.67158073  -0.00162481  0.49279248  1
  Cu  Cu109  1  0.83181317  0.83369680  0.74345787  1
  Cu  Cu110  1  0.50516612  0.50461398  0.75460177  1
  Cu  Cu111  1  0.34144046  0.33233185  0.00244707  1
  Cu  Cu112  1  0.50946088  0.83601776  0.74406323  1
  Cu  Cu113  1  -0.00359556  0.33407994  0.50006142  1
  Cu  Cu114  1  0.82388637  0.49611824  0.75507165  1
  Se  Se115  1  0.08796182  0.07722189  0.05633755  1
  Se  Se116  1  0.07723426  0.08139750  0.56103087  1
  Se  Se117  1  0.08695421  0.41517991  0.04395459  1
  Se  Se118  1  0.08205215  0.41359956  0.55410266  1
  Se  Se119  1  0.08160375  0.75625502  0.05324719  1
  Se  Se120  1  0.09184621  0.75706648  0.55497403  1
  Se  Se121  1  0.40994013  0.06720222  0.06152555  1
  Se  Se122  1  0.40755587  0.06890254  0.53686848  1
  Se  Se123  1  0.42375803  0.41898133  0.05208886  1
  Se  Se124  1  0.40629084  0.40845227  0.55712242  1
  Se  Se125  1  0.40763528  0.74556342  0.06830161  1
  Se  Se126  1  0.42252373  0.75117517  0.55167765  1
  Se  Se127  1  0.74914696  0.07341249  0.06667491  1
  Se  Se128  1  0.75091457  0.08263114  0.55059818  1
  Se  Se129  1  0.75525124  0.42151304  0.05570974  1
  Se  Se130  1  0.73554825  0.40917818  0.55906427  1
  Se  Se131  1  0.73579664  0.75259193  0.06648228  1
  Se  Se132  1  0.75284572  0.75031655  0.54947774  1
  Se  Se133  1  0.25944900  0.24583292  0.05393182  1
  Se  Se134  1  0.25427159  0.25813724  0.55600820  1
  Se  Se135  1  0.24939193  0.58094365  0.05269543  1
  Se  Se136  1  0.25884825  0.58880027  0.55543292  1
  Se  Se137  1  0.25791636  0.90079554  0.06597116  1
  Se  Se138  1  0.25947670  0.93264745  0.55114251  1
  Se  Se139  1  0.59586545  0.25566374  0.06504391  1
  Se  Se140  1  0.57726282  0.24186492  0.55225336  1
  Se  Se141  1  0.57929175  0.58320815  0.05441383  1
  Se  Se142  1  0.59348370  0.59197000  0.55602922  1
  Se  Se143  1  0.59380951  0.91693167  0.06726431  1
  Se  Se144  1  0.58825191  0.91361882  0.54634213  1
  Se  Se145  1  0.92904022  0.26020091  0.06653439  1
  Se  Se146  1  0.91077628  0.24645677  0.54484121  1
  Se  Se147  1  0.91286175  0.58831320  0.05020850  1
  Se  Se148  1  0.93216920  0.59244832  0.55956104  1
  Se  Se149  1  0.91264646  0.92774025  0.06579234  1
  Se  Se150  1  0.91478679  0.91603309  0.55330395  1
  Se  Se151  1  0.07574520  0.25825308  0.43587175  1
  Se  Se152  1  0.07877486  0.24114576  0.95189919  1
  Se  Se153  1  0.07719258  0.60356827  0.43120283  1
  Se  Se154  1  0.08582647  0.58476287  0.95018121  1
  Se  Se155  1  0.08756167  0.91943633  0.45100937  1
  Se  Se156  1  0.08347762  0.91257689  0.94995794  1
  Se  Se157  1  0.41727046  0.24976419  0.44948873  1
  Se  Se158  1  0.41342070  0.24895138  0.93828074  1
  Se  Se159  1  0.41936118  0.59248475  0.43553941  1
  Se  Se160  1  0.42124418  0.58684583  0.94788932  1
  Se  Se161  1  0.41810455  0.91879278  0.44766519  1
  Se  Se162  1  0.40906842  0.92650913  0.94542587  1
  Se  Se163  1  0.75202279  0.24357900  0.44322207  1
  Se  Se164  1  0.73745198  0.24581789  0.94524367  1
  Se  Se165  1  0.74623976  0.58972591  0.43552962  1
  Se  Se166  1  0.74976586  0.58351709  0.95134274  1
  Se  Se167  1  0.75194916  0.91433389  0.43793627  1
  Se  Se168  1  0.74419119  0.91809799  0.94216833  1
  Se  Se169  1  0.25035545  0.08058003  0.42789090  1
  Se  Se170  1  0.25041726  0.08169091  0.95481425  1
  Se  Se171  1  0.26309639  0.41005735  0.44069433  1
  Se  Se172  1  0.25526516  0.41542752  0.94970599  1
  Se  Se173  1  0.24716926  0.75570297  0.44985748  1
  Se  Se174  1  0.25287062  0.75164408  0.94897939  1
  Se  Se175  1  0.58717122  0.08226954  0.44049145  1
  Se  Se176  1  0.58626549  0.07749252  0.94564188  1
  Se  Se177  1  0.58799661  0.40767364  0.44056053  1
  Se  Se178  1  0.58119172  0.41881941  0.95034878  1
  Se  Se179  1  0.57948067  0.75537058  0.43961656  1
  Se  Se180  1  0.58944119  0.75094858  0.94250725  1
  Se  Se181  1  0.91467904  0.08180588  0.44290501  1
  Se  Se182  1  0.91440892  0.07104367  0.94432998  1
  Se  Se183  1  0.91726274  0.41746337  0.44094604  1
  Se  Se184  1  0.91633273  0.40377434  0.95139263  1
  Se  Se185  1  0.91184616  0.75530689  0.45153382  1
  Se  Se186  1  0.92208466  0.74424721  0.93522971  1
  Se  Se187  1  0.26094711  0.25009218  0.29808006  1
  Se  Se188  1  0.23976008  0.25244374  0.80774504  1
  Se  Se189  1  0.24667424  0.57234555  0.30162754  1
  Se  Se190  1  0.26034624  0.59187660  0.80545974  1
  Se  Se191  1  0.25165959  0.91278755  0.30400759  1
  Se  Se192  1  0.24876420  0.91750876  0.81309852  1
  Se  Se193  1  0.59120125  0.24983304  0.30368658  1
  Se  Se194  1  0.58154311  0.25057930  0.79892651  1
  Se  Se195  1  0.58015082  0.58241933  0.29688480  1
  Se  Se196  1  0.58721074  0.58778352  0.80957892  1
  Se  Se197  1  0.55611389  0.90192848  0.30110561  1
  Se  Se198  1  0.58669813  0.92311400  0.79899047  1
  Se  Se199  1  0.91976740  0.25154978  0.31265789  1
  Se  Se200  1  0.89654309  0.23450971  0.81420717  1
  Se  Se201  1  0.90752303  0.58650255  0.30831520  1
  Se  Se202  1  0.91309779  0.56867471  0.81372755  1
  Se  Se203  1  0.92545082  0.91946438  0.30260699  1
  Se  Se204  1  0.91553643  0.91602269  0.79788402  1
  Se  Se205  1  0.08692650  0.08032073  0.29598483  1
  Se  Se206  1  0.07759715  0.07550684  0.80731657  1
  Se  Se207  1  0.09073815  0.41953874  0.30420398  1
  Se  Se208  1  0.09531218  0.42597028  0.81340218  1
  Se  Se209  1  0.07999831  0.75784428  0.31346331  1
  Se  Se210  1  0.09544481  0.75721690  0.81124279  1
  Se  Se211  1  0.42020719  0.08288886  0.30211020  1
  Se  Se212  1  0.42197479  0.09431662  0.80833743  1
  Se  Se213  1  0.42103367  0.40988888  0.30106691  1
  Se  Se214  1  0.42219638  0.42210606  0.81316299  1
  Se  Se215  1  0.38191885  0.72441991  0.31364777  1
  Se  Se216  1  0.42341992  0.75977367  0.80196818  1
  Se  Se217  1  0.73799835  0.06427294  0.29918902  1
  Se  Se218  1  0.74013244  0.07538117  0.79939458  1
  Se  Se219  1  0.74591787  0.42087293  0.30062711  1
  Se  Se220  1  0.74044880  0.41352797  0.80826142  1
  Se  Se221  1  0.73440864  0.74871219  0.29843274  1
  Se  Se222  1  0.75255362  0.74858171  0.79900085  1
  Se  Se223  1  0.25817846  0.07005628  0.19732024  1
  Se  Se224  1  0.24282939  0.09584294  0.69221385  1
  Se  Se225  1  0.25545797  0.41095172  0.19060937  1
  Se  Se226  1  0.24049324  0.42631845  0.68784764  1
  Se  Se227  1  0.24034143  0.74072788  0.20314517  1
  Se  Se228  1  0.26208066  0.75493364  0.69489038  1
  Se  Se229  1  0.58469988  0.08471092  0.19436333  1
  Se  Se230  1  0.57865158  0.07698312  0.68881294  1
  Se  Se231  1  0.58822036  0.41337304  0.19434862  1
  Se  Se232  1  0.57849756  0.41438203  0.69942206  1
  Se  Se233  1  0.57631373  0.74921871  0.20544715  1
  Se  Se234  1  0.58887965  0.74762854  0.69150151  1
  Se  Se235  1  0.91607529  0.10144231  0.20433450  1
  Se  Se236  1  0.91300762  0.08012210  0.69455412  1
  Se  Se237  1  0.91386733  0.43306372  0.19130708  1
  Se  Se238  1  0.90453932  0.41643096  0.69347061  1
  Se  Se239  1  0.90058156  0.76426335  0.19465655  1
  Se  Se240  1  0.91505452  0.75309112  0.68579674  1
  Se  Se241  1  0.10352297  0.24225312  0.18667460  1
  Se  Se242  1  0.07403724  0.24545488  0.69977757  1
  Se  Se243  1  0.08587613  0.57615669  0.18265591  1
  Se  Se244  1  0.08918447  0.58247315  0.69374159  1
  Se  Se245  1  0.08019698  0.91797033  0.19594691  1
  Se  Se246  1  0.08709114  0.91679853  0.69942082  1
  Se  Se247  1  0.41964094  0.24524891  0.19514701  1
  Se  Se248  1  0.41596396  0.23943620  0.68313613  1
  Se  Se249  1  0.41572373  0.58041323  0.19316777  1
  Se  Se250  1  0.41970901  0.58761229  0.70241388  1
  Se  Se251  1  0.43934413  0.89730613  0.20993966  1
  Se  Se252  1  0.42823010  0.91449248  0.68290468  1
  Se  Se253  1  0.76181470  0.25367065  0.20697475  1
  Se  Se254  1  0.74164932  0.24723608  0.69340694  1
  Se  Se255  1  0.74308093  0.58962079  0.19285294  1
  Se  Se256  1  0.74862031  0.58354097  0.69913102  1
  Se  Se257  1  0.73613977  0.93758752  0.21600673  1
  Se  Se258  1  0.74657030  0.91610696  0.69096963  1
