# generated using pymatgen
data_In86Cu29Se144
_symmetry_space_group_name_H-M   'P 1'
_cell_length_a   17.58130929
_cell_length_b   17.57891022
_cell_length_c   23.44194572
_cell_angle_alpha   89.98672686
_cell_angle_beta   90.01953912
_cell_angle_gamma   89.99823111
_symmetry_Int_Tables_number   1
_chemical_formula_structural   In86Cu29Se144
_chemical_formula_sum   'In86 Cu29 Se144'
_cell_volume   7244.97316054
_cell_formula_units_Z   1
loop_
 _symmetry_equiv_pos_site_id
 _symmetry_equiv_pos_as_xyz
  1  'x, y, z'
loop_
 _atom_site_type_symbol
 _atom_site_label
 _atom_site_symmetry_multiplicity
 _atom_site_fract_x
 _atom_site_fract_y
 _atom_site_fract_z
 _atom_site_occupancy
  In  In0  1  0.01050619  0.15184817  0.14592882  1
  In  In1  1  0.00719258  0.16559226  0.62013629  1
  In  In2  1  -0.00145798  0.50404137  0.12784193  1
  In  In3  1  0.01172093  0.48927321  0.63072282  1
  In  In4  1  0.01792098  0.82268668  0.13741143  1
  In  In5  1  0.00576963  0.83079727  0.62706289  1
  In  In6  1  0.31515918  0.17095702  0.12724881  1
  In  In7  1  0.32366284  0.16626714  0.62465240  1
  In  In8  1  0.35046075  0.50384471  0.13316765  1
  In  In9  1  0.31319953  0.49274402  0.61607477  1
  In  In10  1  0.31303070  0.84907713  0.13747471  1
  In  In11  1  0.34148625  0.84740462  0.61760763  1
  In  In12  1  0.67789362  0.17554744  0.13040535  1
  In  In13  1  0.66974377  0.15948656  0.61585111  1
  In  In14  1  0.65441455  0.48416785  0.13053951  1
  In  In15  1  0.67070801  0.49558717  0.62741713  1
  In  In16  1  0.66698929  0.82874881  0.12722402  1
  In  In17  1  0.65332215  0.85146150  0.63093423  1
  In  In18  1  0.15990651  -0.00475034  0.38435039  1
  In  In19  1  0.16075481  -0.00420364  0.86849373  1
  In  In20  1  0.16812669  0.34327248  0.38927076  1
  In  In21  1  0.14954962  0.31497595  0.85521288  1
  In  In22  1  0.16718665  0.66672548  0.37528685  1
  In  In23  1  0.16941499  0.67919644  0.87770629  1
  In  In24  1  0.48791494  0.01530086  0.39113906  1
  In  In25  1  0.50026300  0.00057523  0.86420004  1
  In  In26  1  0.48782653  0.31158939  0.38161449  1
  In  In27  1  0.49082905  0.32531615  0.86004195  1
  In  In28  1  0.49926613  0.68328523  0.37852278  1
  In  In29  1  0.50050173  0.65300960  0.87034342  1
  In  In30  1  0.84966189  0.00916712  0.38211854  1
  In  In31  1  0.84395889  0.00857738  0.85778450  1
  In  In32  1  0.82862275  0.31831733  0.36520091  1
  In  In33  1  0.83347582  0.33229287  0.86612393  1
  In  In34  1  0.83666167  0.65914833  0.37214584  1
  In  In35  1  0.83956564  0.67534885  0.86371629  1
  In  In36  1  0.00245627  0.16802139  0.38340301  1
  In  In37  1  0.01080685  0.16434769  0.86031265  1
  In  In38  1  0.00744706  0.50164857  0.36837042  1
  In  In39  1  0.00182134  0.49909798  0.87005428  1
  In  In40  1  0.01764110  0.85205892  0.36905221  1
  In  In41  1  0.00913695  0.83914188  0.86745498  1
  In  In42  1  0.34087473  0.16149510  0.38886722  1
  In  In43  1  0.29691941  0.13668699  0.83822180  1
  In  In44  1  0.31799562  0.49094642  0.37638096  1
  In  In45  1  0.34147984  0.49786676  0.87409238  1
  In  In46  1  0.32635023  0.83664965  0.37802128  1
  In  In47  1  0.31898896  0.82999241  0.87599315  1
  In  In48  1  0.65889327  0.16532570  0.39022728  1
  In  In49  1  0.66758760  0.16739271  0.85677006  1
  In  In50  1  0.68106706  0.49890323  0.37805873  1
  In  In51  1  0.66115407  0.49775918  0.86208294  1
  In  In52  1  0.65657846  0.83523835  0.38300899  1
  In  In53  1  0.67255320  0.83496872  0.85884159  1
  In  In54  1  0.16543860  0.00165294  0.12936453  1
  In  In55  1  0.16709205  0.00970058  0.62497442  1
  In  In56  1  0.17036722  0.31579327  0.12352177  1
  In  In57  1  0.16233084  0.32560945  0.62234108  1
  In  In58  1  0.15533191  0.68222015  0.13414382  1
  In  In59  1  0.15934475  0.66116081  0.62039537  1
  In  In60  1  0.49634467  -0.01335893  0.12800971  1
  In  In61  1  0.49857703  0.00095293  0.61983576  1
  In  In62  1  0.51000797  0.34390038  0.13657124  1
  In  In63  1  0.51014564  0.32161293  0.62730958  1
  In  In64  1  0.49583559  0.64879629  0.13452374  1
  In  In65  1  0.49380315  0.68380634  0.62582670  1
  In  In66  1  0.85023954  0.01534155  0.12936397  1
  In  In67  1  0.82861015  0.01204965  0.61917201  1
  In  In68  1  0.84096566  0.31662755  0.14349894  1
  In  In69  1  0.84936306  0.31462360  0.62982348  1
  In  In70  1  0.84271671  0.67549252  0.12512888  1
  In  In71  1  0.83949415  0.66387038  0.63196758  1
  In  In72  1  0.83490830  0.49902101  0.00990503  1
  In  In73  1  0.33407460  0.33154903  0.25526654  1
  In  In74  1  0.83538551  0.83634168  0.49902342  1
  In  In75  1  0.84846760  0.84081500  -0.00960119  1
  In  In76  1  0.48936614  0.82557337  -0.00175423  1
  In  In77  1  0.16986586  0.50165551  -0.00169723  1
  In  In78  1  0.33242823  0.66619227  0.75140400  1
  In  In79  1  0.84041550  0.49601538  0.49587505  1
  In  In80  1  0.49561994  0.49582971  0.00467597  1
  In  In81  1  0.67095578  0.66348834  0.24796287  1
  In  In82  1  0.66869792  0.00393209  0.26108318  1
  In  In83  1  0.49675266  0.49932579  0.49600610  1
  In  In84  1  0.84208815  0.16664066  -0.00106683  1
  In  In85  1  0.48683681  0.16787710  -0.00364498  1
  Cu  Cu86  1  0.50244402  0.16725283  0.73732266  1
  Cu  Cu87  1  0.66460167  0.33234173  -0.00225667  1
  Cu  Cu88  1  0.31859313  0.00639157  -0.00336774  1
  Cu  Cu89  1  0.50120325  0.50236314  0.74159446  1
  Cu  Cu90  1  0.83574113  0.83413225  0.74099984  1
  Cu  Cu91  1  0.16601543  0.49980084  0.25100721  1
  Cu  Cu92  1  0.00362983  0.66675356  0.49662647  1
  Cu  Cu93  1  0.00618633  0.32647295  -0.00397110  1
  Cu  Cu94  1  0.66717381  0.00055831  -0.00797407  1
  Cu  Cu95  1  0.50418193  0.83789628  0.74400617  1
  Cu  Cu96  1  0.16031559  0.49575437  0.74474112  1
  Cu  Cu97  1  0.17240354  0.83759555  0.74588939  1
  Cu  Cu98  1  0.16590185  0.83672981  0.25754114  1
  Cu  Cu99  1  0.32506068  0.32485244  -0.00657559  1
  Cu  Cu100  1  0.67054324  0.32892706  0.50159068  1
  Cu  Cu101  1  0.67474769  0.66454900  -0.00946465  1
  Cu  Cu102  1  0.16747641  0.16082486  0.25823363  1
  Cu  Cu103  1  0.32450867  0.67507110  0.01303492  1
  Cu  Cu104  1  0.00570991  0.33024000  0.50221251  1
  Cu  Cu105  1  0.48137608  0.83742987  0.25632714  1
  Cu  Cu106  1  0.32603156  0.67349966  0.50093556  1
  Cu  Cu107  1  0.01328484  -0.00123693  0.00220394  1
  Cu  Cu108  1  0.32472794  -0.00231439  0.50474334  1
  Cu  Cu109  1  0.66266776  0.67814043  0.51074218  1
  Cu  Cu110  1  0.50064358  0.16008798  0.25917258  1
  Cu  Cu111  1  0.82840227  0.49905295  0.74874413  1
  Cu  Cu112  1  0.83055088  0.16626581  0.73980511  1
  Cu  Cu113  1  0.83861696  0.83943082  0.25273478  1
  Cu  Cu114  1  0.84149632  0.49574403  0.25184095  1
  Se  Se115  1  0.08173723  0.08806491  0.06138549  1
  Se  Se116  1  0.09088656  0.08780409  0.54975895  1
  Se  Se117  1  0.08007270  0.40888474  0.05880121  1
  Se  Se118  1  0.08619921  0.41993052  0.55223312  1
  Se  Se119  1  0.08331276  0.75290643  0.05482537  1
  Se  Se120  1  0.08280727  0.75081033  0.55230794  1
  Se  Se121  1  0.40607500  0.07373676  0.06114754  1
  Se  Se122  1  0.40852201  0.08260361  0.55588011  1
  Se  Se123  1  0.40503065  0.39726957  0.06006366  1
  Se  Se124  1  0.41786945  0.41153445  0.56259443  1
  Se  Se125  1  0.41066670  0.74732239  0.07361499  1
  Se  Se126  1  0.41522833  0.75452834  0.54948424  1
  Se  Se127  1  0.74447354  0.07692955  0.05741866  1
  Se  Se128  1  0.75334072  0.08566892  0.54266844  1
  Se  Se129  1  0.74611337  0.40125086  0.06412115  1
  Se  Se130  1  0.75309376  0.40845463  0.55910618  1
  Se  Se131  1  0.74898367  0.74919842  0.05063665  1
  Se  Se132  1  0.74994511  0.75152650  0.56730125  1
  Se  Se133  1  0.24282407  0.23972634  0.04582195  1
  Se  Se134  1  0.24336783  0.24565890  0.55210548  1
  Se  Se135  1  0.25389647  0.58358507  0.06908930  1
  Se  Se136  1  0.24355690  0.58500661  0.54841681  1
  Se  Se137  1  0.24445355  0.91966506  0.05532013  1
  Se  Se138  1  0.23932867  0.91344734  0.55580021  1
  Se  Se139  1  0.58282133  0.25462034  0.05897610  1
  Se  Se140  1  0.58294401  0.24577997  0.54984419  1
  Se  Se141  1  0.59534503  0.58940833  0.05685594  1
  Se  Se142  1  0.58385035  0.58853445  0.56224842  1
  Se  Se143  1  0.59088055  0.91817223  0.05197569  1
  Se  Se144  1  0.57699395  0.91312099  0.55092625  1
  Se  Se145  1  0.92738115  0.25370011  0.06248259  1
  Se  Se146  1  0.91781690  0.24512181  0.54851407  1
  Se  Se147  1  0.93080435  0.59819547  0.05319448  1
  Se  Se148  1  0.92607276  0.58619316  0.55813487  1
  Se  Se149  1  0.92911803  0.92288911  0.06303307  1
  Se  Se150  1  0.92475849  0.92235344  0.55983502  1
  Se  Se151  1  0.09213310  0.24746649  0.45178564  1
  Se  Se152  1  0.08299345  0.24400702  0.93827220  1
  Se  Se153  1  0.08364243  0.57992389  0.44306101  1
  Se  Se154  1  0.07752295  0.59011194  0.94088686  1
  Se  Se155  1  0.07884573  0.91353850  0.45540601  1
  Se  Se156  1  0.08767026  0.91295049  0.94434976  1
  Se  Se157  1  0.41198752  0.24910463  0.46076407  1
  Se  Se158  1  0.40160878  0.24789523  0.92906068  1
  Se  Se159  1  0.40647316  0.59292769  0.43985023  1
  Se  Se160  1  0.40458626  0.59611279  0.95007229  1
  Se  Se161  1  0.40966013  0.91639907  0.44901844  1
  Se  Se162  1  0.40779525  0.92770829  0.94032202  1
  Se  Se163  1  0.75597324  0.25029432  0.44674784  1
  Se  Se164  1  0.74243626  0.25034034  0.93878756  1
  Se  Se165  1  0.74313768  0.59917240  0.45070438  1
  Se  Se166  1  0.75138294  0.57921150  0.93444124  1
  Se  Se167  1  0.74496418  0.92729457  0.44073545  1
  Se  Se168  1  0.75011482  0.92586693  0.93213178  1
  Se  Se169  1  0.24518029  0.08217936  0.44956787  1
  Se  Se170  1  0.24392315  0.08656896  0.93513140  1
  Se  Se171  1  0.26221260  0.41235259  0.45741477  1
  Se  Se172  1  0.25037062  0.40984103  0.93413804  1
  Se  Se173  1  0.24139814  0.75417815  0.44635051  1
  Se  Se174  1  0.24637937  0.75520864  0.95419743  1
  Se  Se175  1  0.58469492  0.07803607  0.45798229  1
  Se  Se176  1  0.58826571  0.08460098  0.93644695  1
  Se  Se177  1  0.59307673  0.40957981  0.44023831  1
  Se  Se178  1  0.58202796  0.40984239  0.93823214  1
  Se  Se179  1  0.57727956  0.75617130  0.45550447  1
  Se  Se180  1  0.58865789  0.74464784  0.93533255  1
  Se  Se181  1  0.92246984  0.08722400  0.45620889  1
  Se  Se182  1  0.92949519  0.07376025  0.93934819  1
  Se  Se183  1  0.92660809  0.40667032  0.43643157  1
  Se  Se184  1  0.92034963  0.40832107  0.94314100  1
  Se  Se185  1  0.92273027  0.74560616  0.43685535  1
  Se  Se186  1  0.93164243  0.74065796  0.93752877  1
  Se  Se187  1  0.24783435  0.24350737  0.31746395  1
  Se  Se188  1  0.26776955  0.27078573  0.80041055  1
  Se  Se189  1  0.24905151  0.58075767  0.30558303  1
  Se  Se190  1  0.23948921  0.57390935  0.80964580  1
  Se  Se191  1  0.24671651  0.92278516  0.30934506  1
  Se  Se192  1  0.25556827  0.91663131  0.80204478  1
  Se  Se193  1  0.58137825  0.24353972  0.31290384  1
  Se  Se194  1  0.58353984  0.25318542  0.79305508  1
  Se  Se195  1  0.58482559  0.58510485  0.31780898  1
  Se  Se196  1  0.58362668  0.58727441  0.79460414  1
  Se  Se197  1  0.56863651  0.91548251  0.31338141  1
  Se  Se198  1  0.58852456  0.92256877  0.79685760  1
  Se  Se199  1  0.93773854  0.25880396  0.30910293  1
  Se  Se200  1  0.91229911  0.24355729  0.80122743  1
  Se  Se201  1  0.92064455  0.58525322  0.30156272  1
  Se  Se202  1  0.91579029  0.57924525  0.80266642  1
  Se  Se203  1  0.91818419  0.92420728  0.30637622  1
  Se  Se204  1  0.92124784  0.91347087  0.79745690  1
  Se  Se205  1  0.08210096  0.08123957  0.31233945  1
  Se  Se206  1  0.09141585  0.08129152  0.79392449  1
  Se  Se207  1  0.09323985  0.41108179  0.30730884  1
  Se  Se208  1  0.07272794  0.41409274  0.79706549  1
  Se  Se209  1  0.08163240  0.74855991  0.30615015  1
  Se  Se210  1  0.09233215  0.75141312  0.80087746  1
  Se  Se211  1  0.41182416  0.08233285  0.31016196  1
  Se  Se212  1  0.42200921  0.08303150  0.79416027  1
  Se  Se213  1  0.42514278  0.41871259  0.31590224  1
  Se  Se214  1  0.41614294  0.42345772  0.79789800  1
  Se  Se215  1  0.40585774  0.74780726  0.30820491  1
  Se  Se216  1  0.42617425  0.75912911  0.80975143  1
  Se  Se217  1  0.75667360  0.09496220  0.31732567  1
  Se  Se218  1  0.74793075  0.07869455  0.79257692  1
  Se  Se219  1  0.75318056  0.41873760  0.30434946  1
  Se  Se220  1  0.74587107  0.41095890  0.79924693  1
  Se  Se221  1  0.75339298  0.76143769  0.31065357  1
  Se  Se222  1  0.75153650  0.74755854  0.79313863  1
  Se  Se223  1  0.25069271  0.08267423  0.20028904  1
  Se  Se224  1  0.25175787  0.08197194  0.69916269  1
  Se  Se225  1  0.24531589  0.41934677  0.18862285  1
  Se  Se226  1  0.24486957  0.41374254  0.69273316  1
  Se  Se227  1  0.24884322  0.74967408  0.20407873  1
  Se  Se228  1  0.25054324  0.75381158  0.68583603  1
  Se  Se229  1  0.57879379  0.08661819  0.19051206  1
  Se  Se230  1  0.58642213  0.08132315  0.68809291  1
  Se  Se231  1  0.57872034  0.42381986  0.21193635  1
  Se  Se232  1  0.58536346  0.41478347  0.69411195  1
  Se  Se233  1  0.57014718  0.76011828  0.19695320  1
  Se  Se234  1  0.58683721  0.74911713  0.69599415  1
  Se  Se235  1  0.89719761  0.10573847  0.20637545  1
  Se  Se236  1  0.91821777  0.08473558  0.68907896  1
  Se  Se237  1  0.92548960  0.41440464  0.19717174  1
  Se  Se238  1  0.91109824  0.41940868  0.69250286  1
  Se  Se239  1  0.91781160  0.75045036  0.20069138  1
  Se  Se240  1  0.92437473  0.74728589  0.69741427  1
  Se  Se241  1  0.09129809  0.25040966  0.20262901  1
  Se  Se242  1  0.06634541  0.26251512  0.69163792  1
  Se  Se243  1  0.08334129  0.58289026  0.19664036  1
  Se  Se244  1  0.08017575  0.58816142  0.69717303  1
  Se  Se245  1  0.08318589  0.92219244  0.20229702  1
  Se  Se246  1  0.08757891  0.91811733  0.69309487  1
  Se  Se247  1  0.42443023  0.23992245  0.19217905  1
  Se  Se248  1  0.41285160  0.25035666  0.69133045  1
  Se  Se249  1  0.42266736  0.57570431  0.21101564  1
  Se  Se250  1  0.41448057  0.57767041  0.68354502  1
  Se  Se251  1  0.40684822  0.92664540  0.20201393  1
  Se  Se252  1  0.41743315  0.92045665  0.69464185  1
  Se  Se253  1  0.73431350  0.26217039  0.20645071  1
  Se  Se254  1  0.74334031  0.24866271  0.68878449  1
  Se  Se255  1  0.76053641  0.57234311  0.18580040  1
  Se  Se256  1  0.74731715  0.58431360  0.69499010  1
  Se  Se257  1  0.75617691  0.91636065  0.19084173  1
  Se  Se258  1  0.75513210  0.92186671  0.69063358  1
