# generated using pymatgen
data_In86Cu29Se144
_symmetry_space_group_name_H-M   'P 1'
_cell_length_a   17.57626264
_cell_length_b   17.57645920
_cell_length_c   23.43751287
_cell_angle_alpha   90.01481987
_cell_angle_beta   89.97609507
_cell_angle_gamma   89.98482476
_symmetry_Int_Tables_number   1
_chemical_formula_structural   In86Cu29Se144
_chemical_formula_sum   'In86 Cu29 Se144'
_cell_volume   7240.51370357
_cell_formula_units_Z   1
loop_
 _symmetry_equiv_pos_site_id
 _symmetry_equiv_pos_as_xyz
  1  'x, y, z'
loop_
 _atom_site_type_symbol
 _atom_site_label
 _atom_site_symmetry_multiplicity
 _atom_site_fract_x
 _atom_site_fract_y
 _atom_site_fract_z
 _atom_site_occupancy
  In  In0  1  0.00151279  0.16111037  0.12046620  1
  In  In1  1  0.01190921  0.16029852  0.63396372  1
  In  In2  1  0.00173517  0.49427442  0.13297914  1
  In  In3  1  0.00484765  0.49634556  0.62853575  1
  In  In4  1  -0.00321601  0.83623044  0.12334436  1
  In  In5  1  0.00535842  0.83167982  0.62989812  1
  In  In6  1  0.32402776  0.15474683  0.11956521  1
  In  In7  1  0.32224233  0.16586771  0.62504165  1
  In  In8  1  0.35201684  0.50276079  0.13481996  1
  In  In9  1  0.34874410  0.52280207  0.59728805  1
  In  In10  1  0.33974969  0.81926535  0.14264506  1
  In  In11  1  0.34132078  0.83744252  0.61932928  1
  In  In12  1  0.67630148  0.17500979  0.11551194  1
  In  In13  1  0.65589928  0.15956820  0.63200891  1
  In  In14  1  0.64531767  0.49485886  0.12236609  1
  In  In15  1  0.67062625  0.51248280  0.62591455  1
  In  In16  1  0.66487802  0.82046948  0.10326481  1
  In  In17  1  0.66181794  0.83379833  0.63321559  1
  In  In18  1  0.18403616  -0.01175111  0.38595104  1
  In  In19  1  0.17802109  0.00886916  0.86725549  1
  In  In20  1  0.16239934  0.33899287  0.37687963  1
  In  In21  1  0.15540610  0.33033202  0.87401897  1
  In  In22  1  0.16462161  0.67113247  0.37656170  1
  In  In23  1  0.16584024  0.67658754  0.86821238  1
  In  In24  1  0.48114647  -0.00480056  0.37435937  1
  In  In25  1  0.49995096  -0.00604635  0.87808244  1
  In  In26  1  0.50934815  0.34467950  0.36406551  1
  In  In27  1  0.49699304  0.33541759  0.88706825  1
  In  In28  1  0.48764248  0.67969296  0.39455375  1
  In  In29  1  0.51109432  0.66060903  0.88765634  1
  In  In30  1  0.82833134  0.00115767  0.37489119  1
  In  In31  1  0.83288115  0.00175012  0.87364397  1
  In  In32  1  0.83619173  0.33770012  0.35883878  1
  In  In33  1  0.84170896  0.32176868  0.88041799  1
  In  In34  1  0.82810572  0.65826676  0.37329100  1
  In  In35  1  0.83775701  0.67232301  0.87099491  1
  In  In36  1  0.00757075  0.18399556  0.36507807  1
  In  In37  1  0.00202725  0.16442217  0.87539910  1
  In  In38  1  0.00526557  0.50928264  0.36469757  1
  In  In39  1  0.00245993  0.50025667  0.86321919  1
  In  In40  1  0.02162643  0.84045581  0.37324166  1
  In  In41  1  -0.00976223  0.83004804  0.86725257  1
  In  In42  1  0.32718583  0.15259176  0.36818334  1
  In  In43  1  0.34294065  0.15745814  0.88790786  1
  In  In44  1  0.32455789  0.51320167  0.38500690  1
  In  In45  1  0.34538956  0.51149010  0.87714488  1
  In  In46  1  0.32824694  0.82915020  0.37925933  1
  In  In47  1  0.33216965  0.84350433  0.87449219  1
  In  In48  1  0.65520355  0.16688728  0.36594009  1
  In  In49  1  0.67475294  0.15668078  0.88530845  1
  In  In50  1  0.66418174  0.50104615  0.37565088  1
  In  In51  1  0.65537856  0.50181611  0.87519898  1
  In  In52  1  0.64984559  0.82053979  0.37967165  1
  In  In53  1  0.66329806  0.83177711  0.87721014  1
  In  In54  1  0.16793606  0.01009516  0.13045080  1
  In  In55  1  0.16828283  0.00215748  0.62735452  1
  In  In56  1  0.16422218  0.30708037  0.13498740  1
  In  In57  1  0.16545070  0.33452744  0.61606810  1
  In  In58  1  0.16988464  0.66835825  0.14308020  1
  In  In59  1  0.16202318  0.66156777  0.61116221  1
  In  In60  1  0.49096112  -0.01174172  0.11904396  1
  In  In61  1  0.50769297  -0.01016541  0.63897194  1
  In  In62  1  0.50954103  0.34262521  0.12302134  1
  In  In63  1  0.49099615  0.33235179  0.62314049  1
  In  In64  1  0.49685570  0.66371554  0.11979459  1
  In  In65  1  0.51446866  0.68277871  0.60615451  1
  In  In66  1  0.83436236  -0.00628717  0.11071024  1
  In  In67  1  0.83268262  0.00008428  0.63584633  1
  In  In68  1  0.84356201  0.31557393  0.13613453  1
  In  In69  1  0.84243302  0.34700553  0.62715020  1
  In  In70  1  0.82862085  0.67947919  0.12070548  1
  In  In71  1  0.83132083  0.66798236  0.63539807  1
  In  In72  1  0.67155772  0.00616012  0.23856149  1
  In  In73  1  0.00483874  0.00051197  0.24380246  1
  In  In74  1  0.66361165  0.66364311  0.24562521  1
  In  In75  1  0.17591468  0.49493742  0.00327113  1
  In  In76  1  0.67402852  0.32823604  0.76017904  1
  In  In77  1  0.49012686  0.16666136  0.49107355  1
  In  In78  1  0.32245276  0.33553165  0.74054470  1
  In  In79  1  0.32926997  0.33528345  0.25288851  1
  In  In80  1  0.82881070  0.50020597  -0.00154239  1
  In  In81  1  0.33332098  0.67057562  0.73851950  1
  In  In82  1  0.83150756  0.50325744  0.49265129  1
  In  In83  1  0.83740956  0.83202240  0.51069642  1
  In  In84  1  0.83947989  0.16534604  0.49791932  1
  In  In85  1  0.16801224  0.83711925  0.00067900  1
  Cu  Cu86  1  0.83852470  0.83088629  0.24340013  1
  Cu  Cu87  1  -0.00168605  -0.00201012  -0.00418361  1
  Cu  Cu88  1  0.00305520  0.32198769  0.00313077  1
  Cu  Cu89  1  0.83038051  0.49509786  0.24928008  1
  Cu  Cu90  1  0.00699911  0.33491141  0.49829780  1
  Cu  Cu91  1  0.66381072  0.00215753  -0.00464519  1
  Cu  Cu92  1  0.66716613  0.33451351  0.00159600  1
  Cu  Cu93  1  0.00271342  0.66481806  -0.00420572  1
  Cu  Cu94  1  -0.00135059  0.66943131  0.49651452  1
  Cu  Cu95  1  0.33298528  -0.00200406  0.00110105  1
  Cu  Cu96  1  0.15668763  0.83841315  0.74804966  1
  Cu  Cu97  1  0.66563210  0.32980039  0.49149080  1
  Cu  Cu98  1  0.32953251  0.33430879  0.49401412  1
  Cu  Cu99  1  0.66019938  -0.00921692  0.50725725  1
  Cu  Cu100  1  0.01571854  0.00859265  0.50105817  1
  Cu  Cu101  1  0.33378807  -0.00151349  0.50263982  1
  Cu  Cu102  1  0.16538454  0.50169521  0.73856997  1
  Cu  Cu103  1  0.83852436  0.50610911  0.75005039  1
  Cu  Cu104  1  0.83844698  0.16916323  0.75745554  1
  Cu  Cu105  1  0.49696309  0.17095995  0.24484809  1
  Cu  Cu106  1  0.49696308  0.83733731  0.25278803  1
  Cu  Cu107  1  0.34320044  0.66695715  0.00758387  1
  Cu  Cu108  1  0.50375029  0.49826283  0.74856991  1
  Cu  Cu109  1  0.49825198  0.82836457  0.75273135  1
  Cu  Cu110  1  0.82720430  0.83837728  0.75399065  1
  Cu  Cu111  1  0.49814701  0.15435790  0.76040114  1
  Cu  Cu112  1  0.16703766  0.16736996  0.74935838  1
  Cu  Cu113  1  0.16470882  0.49887841  0.25663791  1
  Cu  Cu114  1  0.33288467  0.33275651  0.00976903  1
  Se  Se115  1  0.08294233  0.07498376  0.05334054  1
  Se  Se116  1  0.09341397  0.09337703  0.55654784  1
  Se  Se117  1  0.08270523  0.40571369  0.06115860  1
  Se  Se118  1  0.08335675  0.42472374  0.55141484  1
  Se  Se119  1  0.08505473  0.73831921  0.05944667  1
  Se  Se120  1  0.07669446  0.75567550  0.55170329  1
  Se  Se121  1  0.41745847  0.08292980  0.05241996  1
  Se  Se122  1  0.41771876  0.07722598  0.56338819  1
  Se  Se123  1  0.41664510  0.42115505  0.05656106  1
  Se  Se124  1  0.41938844  0.40970841  0.54762015  1
  Se  Se125  1  0.41683059  0.76054289  0.05872356  1
  Se  Se126  1  0.39377537  0.72932506  0.55603565  1
  Se  Se127  1  0.75062481  0.08289558  0.04835360  1
  Se  Se128  1  0.74267868  0.07771328  0.55897832  1
  Se  Se129  1  0.74898900  0.41011231  0.06470177  1
  Se  Se130  1  0.74386918  0.40802478  0.55510292  1
  Se  Se131  1  0.76419503  0.75298219  0.04055693  1
  Se  Se132  1  0.74211967  0.74111867  0.56224907  1
  Se  Se133  1  0.24461853  0.24711684  0.05406073  1
  Se  Se134  1  0.25270676  0.25013288  0.55132629  1
  Se  Se135  1  0.25591090  0.59093062  0.06524816  1
  Se  Se136  1  0.24465318  0.58775764  0.53895271  1
  Se  Se137  1  0.25722718  0.91822388  0.06569729  1
  Se  Se138  1  0.24858262  0.91842559  0.55728574  1
  Se  Se139  1  0.58047223  0.25178196  0.05253101  1
  Se  Se140  1  0.58830810  0.24971168  0.55475889  1
  Se  Se141  1  0.60070866  0.60203835  0.05696536  1
  Se  Se142  1  0.57151696  0.56407981  0.55716454  1
  Se  Se143  1  0.58176106  0.91775358  0.04872207  1
  Se  Se144  1  0.57674839  0.91073217  0.56062716  1
  Se  Se145  1  0.91323531  0.24425957  0.05423809  1
  Se  Se146  1  0.92580621  0.25719918  0.55989714  1
  Se  Se147  1  0.92647588  0.58408735  0.05839715  1
  Se  Se148  1  0.91800824  0.59033075  0.55849462  1
  Se  Se149  1  0.91928490  0.90781060  0.04604087  1
  Se  Se150  1  0.92636815  0.93419939  0.55958240  1
  Se  Se151  1  0.08608921  0.24751948  0.44583589  1
  Se  Se152  1  0.08785275  0.24367442  0.94718950  1
  Se  Se153  1  0.07765020  0.58261142  0.44286571  1
  Se  Se154  1  0.08604323  0.58484745  0.93933487  1
  Se  Se155  1  0.09140267  0.91341016  0.45337133  1
  Se  Se156  1  0.08076715  0.92047687  0.93432436  1
  Se  Se157  1  0.40821574  0.26000591  0.42799790  1
  Se  Se158  1  0.41682157  0.25019543  0.95406667  1
  Se  Se159  1  0.42971779  0.56745115  0.45032039  1
  Se  Se160  1  0.42302283  0.57879126  0.95501155  1
  Se  Se161  1  0.41522514  0.91276362  0.44985563  1
  Se  Se162  1  0.41532426  0.91270499  0.94888514  1
  Se  Se163  1  0.74724087  0.25085159  0.43435112  1
  Se  Se164  1  0.75185251  0.25136063  0.94926408  1
  Se  Se165  1  0.73306006  0.59908394  0.44805395  1
  Se  Se166  1  0.74316048  0.59154164  0.93900687  1
  Se  Se167  1  0.74396912  0.91708296  0.44440069  1
  Se  Se168  1  0.74919962  0.91951046  0.94206569  1
  Se  Se169  1  0.25444652  0.08793914  0.45132019  1
  Se  Se170  1  0.24559483  0.08053582  0.94989903  1
  Se  Se171  1  0.24296179  0.41988080  0.44683755  1
  Se  Se172  1  0.26276658  0.40784238  0.93697173  1
  Se  Se173  1  0.25459651  0.73966769  0.44853087  1
  Se  Se174  1  0.25977118  0.73945716  0.94374641  1
  Se  Se175  1  0.58856040  0.07164327  0.44039777  1
  Se  Se176  1  0.57490468  0.08589301  0.94706088  1
  Se  Se177  1  0.58180913  0.41646047  0.44420038  1
  Se  Se178  1  0.58407961  0.42036808  0.95024976  1
  Se  Se179  1  0.58058128  0.75481471  0.46054045  1
  Se  Se180  1  0.57276208  0.76362456  0.94896093  1
  Se  Se181  1  0.92988512  0.07698449  0.43708876  1
  Se  Se182  1  0.91571141  0.08448564  0.94384371  1
  Se  Se183  1  0.92224472  0.40984846  0.43697259  1
  Se  Se184  1  0.93276219  0.41382989  0.94403081  1
  Se  Se185  1  0.91732253  0.74939914  0.43723378  1
  Se  Se186  1  0.92062374  0.74889218  0.94409325  1
  Se  Se187  1  0.23760521  0.24221892  0.30677628  1
  Se  Se188  1  0.25083502  0.24390799  0.81131296  1
  Se  Se189  1  0.24708822  0.58433160  0.30712973  1
  Se  Se190  1  0.24615214  0.57572517  0.80434699  1
  Se  Se191  1  0.25992744  0.92071650  0.30823696  1
  Se  Se192  1  0.24861002  0.91347444  0.80018277  1
  Se  Se193  1  0.58249706  0.25337756  0.29564913  1
  Se  Se194  1  0.57517826  0.24371749  0.81589565  1
  Se  Se195  1  0.57497008  0.59176724  0.31542011  1
  Se  Se196  1  0.57842650  0.58561157  0.80461897  1
  Se  Se197  1  0.58419848  0.91869628  0.30689225  1
  Se  Se198  1  0.58057732  0.91394349  0.80580482  1
  Se  Se199  1  0.91036356  0.24289936  0.29739784  1
  Se  Se200  1  0.92466263  0.25436133  0.80482275  1
  Se  Se201  1  0.90949346  0.58468926  0.30055713  1
  Se  Se202  1  0.92248877  0.59145987  0.80121734  1
  Se  Se203  1  0.91053601  0.91158829  0.30795360  1
  Se  Se204  1  0.91586457  0.92265621  0.80145471  1
  Se  Se205  1  0.08929585  0.07477968  0.31716820  1
  Se  Se206  1  0.08342217  0.08402859  0.80311529  1
  Se  Se207  1  0.07882510  0.41077726  0.30208901  1
  Se  Se208  1  0.09058256  0.41754421  0.79872290  1
  Se  Se209  1  0.07249940  0.74002776  0.30540789  1
  Se  Se210  1  0.07837781  0.74900184  0.79958092  1
  Se  Se211  1  0.41954864  0.08381892  0.29877544  1
  Se  Se212  1  0.40930332  0.07511309  0.81047266  1
  Se  Se213  1  0.41346104  0.43224884  0.30833387  1
  Se  Se214  1  0.42055315  0.41755804  0.80545787  1
  Se  Se215  1  0.42266272  0.75238476  0.31151236  1
  Se  Se216  1  0.41732077  0.74726555  0.81226482  1
  Se  Se217  1  0.75958594  0.09341163  0.30316658  1
  Se  Se218  1  0.74869473  0.08740002  0.80515028  1
  Se  Se219  1  0.73980182  0.41975596  0.30204242  1
  Se  Se220  1  0.76384137  0.42520330  0.81539890  1
  Se  Se221  1  0.75216866  0.76045298  0.30723034  1
  Se  Se222  1  0.74671662  0.75083068  0.80575480  1
  Se  Se223  1  0.24757427  0.09028823  0.19992240  1
  Se  Se224  1  0.25285264  0.08252164  0.69926628  1
  Se  Se225  1  0.23910097  0.42333291  0.18735338  1
  Se  Se226  1  0.25350308  0.43528767  0.67577588  1
  Se  Se227  1  0.24948210  0.74979865  0.21074908  1
  Se  Se228  1  0.23621869  0.75869979  0.68547479  1
  Se  Se229  1  0.57467790  0.09071010  0.18173275  1
  Se  Se230  1  0.58729765  0.07763731  0.70675554  1
  Se  Se231  1  0.56807391  0.42888052  0.20085925  1
  Se  Se232  1  0.58352782  0.41139884  0.69277363  1
  Se  Se233  1  0.58142543  0.76501040  0.18931703  1
  Se  Se234  1  0.57671178  0.74353934  0.69556317  1
  Se  Se235  1  0.90372458  0.08050133  0.18731674  1
  Se  Se236  1  0.91789301  0.08634283  0.69916545  1
  Se  Se237  1  0.91771171  0.41173006  0.19963384  1
  Se  Se238  1  0.92218562  0.41839944  0.70169791  1
  Se  Se239  1  0.92078335  0.74613747  0.19192712  1
  Se  Se240  1  0.91231511  0.75841137  0.69726945  1
  Se  Se241  1  0.06872412  0.24012133  0.19972086  1
  Se  Se242  1  0.09173915  0.25709445  0.69416295  1
  Se  Se243  1  0.07986593  0.58041154  0.20119256  1
  Se  Se244  1  0.08347121  0.59194669  0.69050149  1
  Se  Se245  1  0.09573917  0.90319864  0.19199183  1
  Se  Se246  1  0.07710557  0.92666563  0.69605410  1
  Se  Se247  1  0.41516111  0.25016915  0.18530810  1
  Se  Se248  1  0.42498212  0.23710387  0.69636384  1
  Se  Se249  1  0.41492061  0.60218537  0.19872490  1
  Se  Se250  1  0.42552623  0.57616531  0.68636583  1
  Se  Se251  1  0.41497795  0.92279816  0.20020878  1
  Se  Se252  1  0.41236577  0.91075371  0.70015102  1
  Se  Se253  1  0.73402980  0.25757385  0.19545772  1
  Se  Se254  1  0.76025485  0.24427619  0.68945861  1
  Se  Se255  1  0.75572768  0.57517330  0.18448333  1
  Se  Se256  1  0.74622382  0.58532670  0.70289339  1
  Se  Se257  1  0.75326959  0.90368381  0.18249705  1
  Se  Se258  1  0.74303285  0.92035470  0.69976405  1
