# generated using pymatgen
data_In86Cu29Se144
_symmetry_space_group_name_H-M   'P 1'
_cell_length_a   17.57332488
_cell_length_b   17.57302653
_cell_length_c   23.43532186
_cell_angle_alpha   89.96747384
_cell_angle_beta   90.00736713
_cell_angle_gamma   90.00237335
_symmetry_Int_Tables_number   1
_chemical_formula_structural   In86Cu29Se144
_chemical_formula_sum   'In86 Cu29 Se144'
_cell_volume   7237.21294324
_cell_formula_units_Z   1
loop_
 _symmetry_equiv_pos_site_id
 _symmetry_equiv_pos_as_xyz
  1  'x, y, z'
loop_
 _atom_site_type_symbol
 _atom_site_label
 _atom_site_symmetry_multiplicity
 _atom_site_fract_x
 _atom_site_fract_y
 _atom_site_fract_z
 _atom_site_occupancy
  In  In0  1  -0.00758502  0.17224910  0.12624564  1
  In  In1  1  -0.00153558  0.18926110  0.61925487  1
  In  In2  1  0.00754214  0.52753584  0.09932766  1
  In  In3  1  0.01436301  0.48775905  0.63323415  1
  In  In4  1  0.01343721  0.80705037  0.13953280  1
  In  In5  1  0.00491649  0.81749184  0.62488682  1
  In  In6  1  0.32589441  0.15036109  0.12883538  1
  In  In7  1  0.33948764  0.17099697  0.62703947  1
  In  In8  1  0.34503270  0.51016980  0.11489541  1
  In  In9  1  0.32927457  0.50635240  0.63018330  1
  In  In10  1  0.31871323  0.83855230  0.12925357  1
  In  In11  1  0.32652140  0.82313567  0.61339264  1
  In  In12  1  0.67720961  0.16104772  0.13382403  1
  In  In13  1  0.67814356  0.16819352  0.62174735  1
  In  In14  1  0.66329094  0.50029845  0.12276961  1
  In  In15  1  0.66251820  0.50328976  0.63589492  1
  In  In16  1  0.67986164  0.82753137  0.14615997  1
  In  In17  1  0.66006110  0.83011908  0.61894328  1
  In  In18  1  0.15026881  -0.00954483  0.36231859  1
  In  In19  1  0.15955958  -0.00271415  0.88443726  1
  In  In20  1  0.17143263  0.33943240  0.38484711  1
  In  In21  1  0.17473408  0.35295202  0.86652497  1
  In  In22  1  0.16948756  0.66285235  0.37390021  1
  In  In23  1  0.16424952  0.66326639  0.87704113  1
  In  In24  1  0.48446927  -0.00910590  0.36491158  1
  In  In25  1  0.50393004  -0.01380227  0.87915302  1
  In  In26  1  0.50077755  0.32485421  0.37663184  1
  In  In27  1  0.51465188  0.35054466  0.86886502  1
  In  In28  1  0.50761990  0.67527553  0.36901595  1
  In  In29  1  0.49393397  0.66318642  0.87230297  1
  In  In30  1  0.84751199  0.00483162  0.36011783  1
  In  In31  1  0.84282582  0.00497556  0.88531396  1
  In  In32  1  0.82146386  0.33942267  0.37729488  1
  In  In33  1  0.83261889  0.33499624  0.87551516  1
  In  In34  1  0.84302090  0.67924029  0.35223055  1
  In  In35  1  0.82328946  0.65485585  0.87417456  1
  In  In36  1  0.00502386  0.15048037  0.37459784  1
  In  In37  1  -0.01515169  0.17108718  0.88008036  1
  In  In38  1  -0.00315849  0.50899532  0.37408952  1
  In  In39  1  0.00080587  0.50613237  0.87543363  1
  In  In40  1  0.00692747  0.83727224  0.36693698  1
  In  In41  1  0.01680073  0.82901429  0.88207209  1
  In  In42  1  0.33684428  0.16850867  0.37212887  1
  In  In43  1  0.32110147  0.17466704  0.87420995  1
  In  In44  1  0.31508253  0.49924593  0.37656284  1
  In  In45  1  0.33151800  0.50420413  0.87723097  1
  In  In46  1  0.33191635  0.82770609  0.37455598  1
  In  In47  1  0.33892379  0.81817428  0.87755924  1
  In  In48  1  0.67341768  0.17623982  0.36853626  1
  In  In49  1  0.66661126  0.17881624  0.87915409  1
  In  In50  1  0.67444197  0.50456157  0.36499903  1
  In  In51  1  0.67383744  0.50815571  0.88394861  1
  In  In52  1  0.66066911  0.82475389  0.36157327  1
  In  In53  1  0.67614583  0.82330006  0.87996067  1
  In  In54  1  0.18174816  -0.01883808  0.14383022  1
  In  In55  1  0.17645612  -0.00577315  0.61977590  1
  In  In56  1  0.15592198  0.34319625  0.12079434  1
  In  In57  1  0.15773577  0.34732262  0.62935350  1
  In  In58  1  0.16475873  0.67027073  0.12205063  1
  In  In59  1  0.17075841  0.66519748  0.62439017  1
  In  In60  1  0.49950465  -0.00194015  0.13381001  1
  In  In61  1  0.51076611  -0.00645279  0.61704524  1
  In  In62  1  0.49898897  0.35232350  0.12275525  1
  In  In63  1  0.49291362  0.34193541  0.63689980  1
  In  In64  1  0.50536114  0.65684988  0.12817078  1
  In  In65  1  0.49629794  0.66768936  0.62793746  1
  In  In66  1  0.83142356  0.00396859  0.13539434  1
  In  In67  1  0.82617506  0.00819445  0.61794127  1
  In  In68  1  0.83436229  0.32846424  0.11992997  1
  In  In69  1  0.83632700  0.32961658  0.63108287  1
  In  In70  1  0.83309774  0.66146347  0.12565964  1
  In  In71  1  0.84154694  0.65861257  0.63547079  1
  In  In72  1  0.50279750  0.17077696  0.00772735  1
  In  In73  1  0.83808760  0.49827240  0.50014817  1
  In  In74  1  0.33638362  0.00050974  0.74920950  1
  In  In75  1  0.66935016  0.00076954  0.74083851  1
  In  In76  1  0.33437558  0.33369737  0.25290950  1
  In  In77  1  0.84058225  0.82605501  0.01391276  1
  In  In78  1  -0.00316474  0.33756503  0.24476786  1
  In  In79  1  0.49683777  0.16370132  0.49366843  1
  In  In80  1  0.16267026  0.16241992  0.50066493  1
  In  In81  1  -0.00142223  0.00050409  0.75525221  1
  In  In82  1  0.16337757  0.16811170  0.00427644  1
  In  In83  1  0.49626185  0.50416426  0.50778751  1
  In  In84  1  0.83630493  0.83512262  0.48588211  1
  In  In85  1  0.49890204  0.82965270  0.00124401  1
  Cu  Cu86  1  0.83514463  0.82156422  0.75363560  1
  Cu  Cu87  1  0.49603723  0.17523100  0.75429986  1
  Cu  Cu88  1  0.50319574  0.16988042  0.25063488  1
  Cu  Cu89  1  0.33448506  0.66803897  0.50013492  1
  Cu  Cu90  1  0.00160529  -0.00081848  0.00854391  1
  Cu  Cu91  1  0.83452434  0.17140646  0.24930712  1
  Cu  Cu92  1  0.32486729  0.66875911  -0.00079144  1
  Cu  Cu93  1  0.16450940  0.50691829  0.24394189  1
  Cu  Cu94  1  0.16651692  0.50721237  0.75285941  1
  Cu  Cu95  1  0.16961243  0.82279131  0.25354103  1
  Cu  Cu96  1  0.67353033  0.33730507  -0.00340508  1
  Cu  Cu97  1  0.01519729  0.66168438  0.49919130  1
  Cu  Cu98  1  0.66070861  0.33401468  0.50034489  1
  Cu  Cu99  1  0.83113670  0.17214599  0.75093979  1
  Cu  Cu100  1  0.16064931  0.18124318  0.75078171  1
  Cu  Cu101  1  0.32911229  -0.01046903  0.49095710  1
  Cu  Cu102  1  0.66943440  0.00036964  0.01346963  1
  Cu  Cu103  1  0.66561781  -0.00235635  0.49328695  1
  Cu  Cu104  1  0.50275371  0.50427293  0.24647745  1
  Cu  Cu105  1  0.48908390  0.83019426  0.24789447  1
  Cu  Cu106  1  0.33556795  0.33388499  -0.00508425  1
  Cu  Cu107  1  0.50266658  0.82476857  0.74564137  1
  Cu  Cu108  1  0.17287175  0.82527336  0.75074823  1
  Cu  Cu109  1  0.50273452  0.49943775  0.75720931  1
  Cu  Cu110  1  0.83546327  0.49774000  0.24174420  1
  Cu  Cu111  1  0.82990928  0.49924157  0.75607171  1
  Cu  Cu112  1  0.00038302  0.33997904  -0.00386090  1
  Cu  Cu113  1  0.67653660  0.67245796  0.49114810  1
  Cu  Cu114  1  -0.00201061  -0.00551186  0.49168509  1
  Se  Se115  1  0.08389789  0.07727882  0.06939605  1
  Se  Se116  1  0.06986462  0.07231768  0.56209649  1
  Se  Se117  1  0.08679088  0.42383209  0.04530582  1
  Se  Se118  1  0.07407413  0.41040221  0.55197378  1
  Se  Se119  1  0.07174142  0.74121387  0.05322166  1
  Se  Se120  1  0.09202731  0.75136168  0.55198366  1
  Se  Se121  1  0.41192269  0.07231941  0.05654000  1
  Se  Se122  1  0.40517479  0.07066793  0.55489139  1
  Se  Se123  1  0.41944727  0.42024416  0.04545373  1
  Se  Se124  1  0.40656469  0.40821780  0.55993714  1
  Se  Se125  1  0.40692908  0.74482350  0.06275711  1
  Se  Se126  1  0.42452186  0.74788598  0.55147800  1
  Se  Se127  1  0.75672695  0.08555345  0.05900807  1
  Se  Se128  1  0.74546829  0.08431730  0.54538020  1
  Se  Se129  1  0.75194160  0.41767463  0.05626105  1
  Se  Se130  1  0.73910575  0.41665008  0.56057353  1
  Se  Se131  1  0.73284348  0.74479768  0.06089050  1
  Se  Se132  1  0.75850060  0.74450714  0.55699130  1
  Se  Se133  1  0.26044449  0.25826865  0.06168645  1
  Se  Se134  1  0.24846126  0.25202507  0.56309408  1
  Se  Se135  1  0.24572219  0.58216878  0.05330747  1
  Se  Se136  1  0.25307909  0.58287752  0.55407140  1
  Se  Se137  1  0.24398739  0.92048240  0.05665947  1
  Se  Se138  1  0.24463074  0.90960769  0.54634212  1
  Se  Se139  1  0.59580415  0.26024910  0.06352762  1
  Se  Se140  1  0.57924013  0.25528512  0.56061801  1
  Se  Se141  1  0.56857232  0.56962083  0.05421863  1
  Se  Se142  1  0.59899729  0.59384342  0.55590667  1
  Se  Se143  1  0.58995481  0.91407419  0.06636111  1
  Se  Se144  1  0.58503078  0.91126937  0.54477461  1
  Se  Se145  1  0.92212005  0.25197437  0.04964686  1
  Se  Se146  1  0.89613547  0.24342332  0.55368130  1
  Se  Se147  1  0.89128274  0.58031400  0.04294029  1
  Se  Se148  1  0.92860693  0.58818054  0.55989020  1
  Se  Se149  1  0.92639278  0.91955650  0.07192283  1
  Se  Se150  1  0.92161792  0.91719381  0.55908156  1
  Se  Se151  1  0.07202809  0.25275077  0.44207946  1
  Se  Se152  1  0.08395244  0.25881376  0.93692463  1
  Se  Se153  1  0.09065893  0.57450263  0.44401734  1
  Se  Se154  1  0.08765845  0.57836657  0.94706719  1
  Se  Se155  1  0.08497417  0.91234025  0.44309982  1
  Se  Se156  1  0.08469911  0.91526547  0.95651781  1
  Se  Se157  1  0.40077347  0.26238834  0.44749158  1
  Se  Se158  1  0.41907200  0.25527336  0.93743426  1
  Se  Se159  1  0.41432163  0.58854272  0.43820544  1
  Se  Se160  1  0.41314786  0.58866933  0.94666501  1
  Se  Se161  1  0.41974056  0.90934663  0.44339992  1
  Se  Se162  1  0.40398970  0.92302623  0.94616145  1
  Se  Se163  1  0.74537065  0.25244578  0.44744185  1
  Se  Se164  1  0.75603637  0.24782024  0.94885712  1
  Se  Se165  1  0.75910833  0.59342827  0.43389311  1
  Se  Se166  1  0.76362664  0.57834007  0.95744502  1
  Se  Se167  1  0.74369880  0.92285979  0.42845325  1
  Se  Se168  1  0.74727641  0.92119804  0.94896565  1
  Se  Se169  1  0.25012447  0.07567491  0.43526476  1
  Se  Se170  1  0.25872624  0.07847373  0.94591195  1
  Se  Se171  1  0.25028391  0.41948256  0.45394323  1
  Se  Se172  1  0.24914754  0.41968855  0.94733337  1
  Se  Se173  1  0.24850115  0.74731027  0.44493566  1
  Se  Se174  1  0.24407388  0.75371054  0.94586499  1
  Se  Se175  1  0.58526988  0.07697820  0.43138437  1
  Se  Se176  1  0.59130914  0.07432269  0.94576725  1
  Se  Se177  1  0.58787057  0.41981396  0.44042858  1
  Se  Se178  1  0.58599799  0.42130766  0.94892632  1
  Se  Se179  1  0.58731051  0.75303307  0.44285642  1
  Se  Se180  1  0.59013621  0.73815999  0.94512568  1
  Se  Se181  1  0.91276392  0.07929796  0.44345839  1
  Se  Se182  1  0.92002206  0.08540512  0.95698478  1
  Se  Se183  1  0.92650916  0.40707265  0.44107586  1
  Se  Se184  1  0.91559809  0.41997469  0.94222008  1
  Se  Se185  1  0.92869466  0.73609073  0.43809730  1
  Se  Se186  1  0.91635362  0.74657554  0.93834587  1
  Se  Se187  1  0.23721696  0.24739285  0.30940424  1
  Se  Se188  1  0.25151862  0.25860616  0.80131641  1
  Se  Se189  1  0.25129847  0.58334383  0.30002993  1
  Se  Se190  1  0.25240834  0.58824154  0.80621532  1
  Se  Se191  1  0.24994080  0.91207131  0.30483692  1
  Se  Se192  1  0.24484301  0.91414129  0.81103339  1
  Se  Se193  1  0.58428173  0.25713715  0.30190313  1
  Se  Se194  1  0.58728599  0.25185516  0.80489825  1
  Se  Se195  1  0.58625288  0.58656531  0.30165490  1
  Se  Se196  1  0.58681700  0.58292371  0.81019757  1
  Se  Se197  1  0.57555301  0.91463849  0.29917045  1
  Se  Se198  1  0.58392403  0.90657266  0.80433947  1
  Se  Se199  1  0.91342960  0.25010637  0.31231003  1
  Se  Se200  1  0.91663195  0.25268878  0.80420756  1
  Se  Se201  1  0.92179466  0.57916489  0.29540268  1
  Se  Se202  1  0.91549822  0.58562221  0.80445630  1
  Se  Se203  1  0.90372668  0.89482466  0.30195815  1
  Se  Se204  1  0.90904614  0.90693127  0.81420560  1
  Se  Se205  1  0.07813769  0.08292444  0.29573147  1
  Se  Se206  1  0.08990976  0.09494036  0.81291152  1
  Se  Se207  1  0.09185785  0.42257262  0.30675640  1
  Se  Se208  1  0.07807759  0.42213708  0.80133513  1
  Se  Se209  1  0.08219478  0.74030218  0.30430392  1
  Se  Se210  1  0.08428480  0.74888566  0.80469464  1
  Se  Se211  1  0.41344104  0.08864002  0.29979943  1
  Se  Se212  1  0.42633249  0.08750815  0.81464101  1
  Se  Se213  1  0.42449060  0.42681549  0.31235658  1
  Se  Se214  1  0.41287783  0.41863022  0.80705580  1
  Se  Se215  1  0.41041094  0.74397149  0.30290045  1
  Se  Se216  1  0.41565618  0.74779346  0.80030437  1
  Se  Se217  1  0.75051405  0.08694768  0.30171631  1
  Se  Se218  1  0.75614851  0.08461127  0.81010069  1
  Se  Se219  1  0.75325629  0.41597945  0.29802421  1
  Se  Se220  1  0.74540458  0.41885196  0.81074940  1
  Se  Se221  1  0.73926633  0.74160867  0.29244302  1
  Se  Se222  1  0.74529681  0.74371023  0.80407836  1
  Se  Se223  1  0.24606785  0.08607761  0.20545490  1
  Se  Se224  1  0.23807536  0.09293202  0.69390371  1
  Se  Se225  1  0.24825657  0.42398226  0.18792832  1
  Se  Se226  1  0.24775049  0.42109100  0.69817085  1
  Se  Se227  1  0.25083457  0.74164518  0.19637252  1
  Se  Se228  1  0.25694805  0.74854967  0.69326791  1
  Se  Se229  1  0.58436806  0.08372982  0.19817168  1
  Se  Se230  1  0.57109322  0.09470515  0.68956270  1
  Se  Se231  1  0.58507923  0.41622417  0.19777650  1
  Se  Se232  1  0.58523324  0.41470078  0.70302000  1
  Se  Se233  1  0.57646911  0.74759394  0.19822148  1
  Se  Se234  1  0.59026399  0.74582448  0.69272192  1
  Se  Se235  1  0.92127826  0.08803750  0.19997947  1
  Se  Se236  1  0.91118993  0.08921858  0.69115406  1
  Se  Se237  1  0.92136473  0.42961679  0.17779064  1
  Se  Se238  1  0.91159842  0.42116279  0.69637283  1
  Se  Se239  1  0.89661037  0.75851447  0.19460189  1
  Se  Se240  1  0.92493315  0.74618418  0.70037683  1
  Se  Se241  1  0.09407946  0.24618426  0.19217807  1
  Se  Se242  1  0.07520513  0.25938705  0.69689683  1
  Se  Se243  1  0.07722149  0.58357628  0.18826028  1
  Se  Se244  1  0.08451158  0.58822939  0.69507812  1
  Se  Se245  1  0.08139218  0.90758120  0.20379254  1
  Se  Se246  1  0.09253615  0.91247626  0.69408731  1
  Se  Se247  1  0.42213958  0.24616666  0.18645183  1
  Se  Se248  1  0.40918790  0.25390397  0.70145566  1
  Se  Se249  1  0.41216033  0.58310743  0.19695360  1
  Se  Se250  1  0.42220439  0.57999301  0.69716478  1
  Se  Se251  1  0.40807414  0.91801395  0.19690781  1
  Se  Se252  1  0.42420777  0.91025694  0.68682023  1
  Se  Se253  1  0.75327991  0.25740812  0.19692413  1
  Se  Se254  1  0.74378202  0.25183623  0.69784998  1
  Se  Se255  1  0.74650203  0.58093834  0.19361383  1
  Se  Se256  1  0.74875380  0.58536475  0.70128952  1
  Se  Se257  1  0.73946807  0.93462858  0.20420556  1
  Se  Se258  1  0.76365242  0.90428816  0.68828647  1
