# generated using pymatgen
data_In86Cu29Se144
_symmetry_space_group_name_H-M   'P 1'
_cell_length_a   17.58280051
_cell_length_b   17.58386996
_cell_length_c   23.43120434
_cell_angle_alpha   89.97944223
_cell_angle_beta   90.01562080
_cell_angle_gamma   90.03496495
_symmetry_Int_Tables_number   1
_chemical_formula_structural   In86Cu29Se144
_chemical_formula_sum   'In86 Cu29 Se144'
_cell_volume   7244.30953438
_cell_formula_units_Z   1
loop_
 _symmetry_equiv_pos_site_id
 _symmetry_equiv_pos_as_xyz
  1  'x, y, z'
loop_
 _atom_site_type_symbol
 _atom_site_label
 _atom_site_symmetry_multiplicity
 _atom_site_fract_x
 _atom_site_fract_y
 _atom_site_fract_z
 _atom_site_occupancy
  In  In0  1  0.00433299  0.15186957  0.12807355  1
  In  In1  1  0.00529478  0.16980208  0.62104950  1
  In  In2  1  0.01019889  0.51258077  0.13208615  1
  In  In3  1  0.00014743  0.50182224  0.62569533  1
  In  In4  1  0.00528724  0.83148029  0.12808853  1
  In  In5  1  -0.00121634  0.83196146  0.61969705  1
  In  In6  1  0.33191090  0.16672614  0.12458244  1
  In  In7  1  0.32907530  0.17301250  0.62007280  1
  In  In8  1  0.33528850  0.48546659  0.13058615  1
  In  In9  1  0.31345224  0.47514376  0.60287578  1
  In  In10  1  0.33319003  0.85249816  0.12666173  1
  In  In11  1  0.33018354  0.85035802  0.62071193  1
  In  In12  1  0.65459099  0.16572845  0.12541233  1
  In  In13  1  0.67031242  0.17046235  0.61885862  1
  In  In14  1  0.64833619  0.50838046  0.12324187  1
  In  In15  1  0.66821364  0.50298525  0.62028933  1
  In  In16  1  0.67639132  0.83589736  0.12951966  1
  In  In17  1  0.66481716  0.81842816  0.62413334  1
  In  In18  1  0.16456725  0.00354742  0.37196215  1
  In  In19  1  0.17127532  -0.01278865  0.88046931  1
  In  In20  1  0.19479458  0.30699176  0.40239409  1
  In  In21  1  0.15838840  0.32386107  0.86407291  1
  In  In22  1  0.15534234  0.67920498  0.38517292  1
  In  In23  1  0.16270206  0.68002678  0.87271146  1
  In  In24  1  0.50135476  0.00963077  0.37296849  1
  In  In25  1  0.49781040  0.01951457  0.87735946  1
  In  In26  1  0.47727482  0.33601430  0.39016562  1
  In  In27  1  0.49170877  0.33437569  0.87439446  1
  In  In28  1  0.50143848  0.65429314  0.37551353  1
  In  In29  1  0.49715105  0.65405263  0.87323107  1
  In  In30  1  0.83582150  -0.00471359  0.37648202  1
  In  In31  1  0.83458517  0.00235373  0.87462902  1
  In  In32  1  0.83495854  0.33538901  0.38733389  1
  In  In33  1  0.84622567  0.32355011  0.86569417  1
  In  In34  1  0.84150577  0.66052379  0.37835063  1
  In  In35  1  0.82944467  0.66314721  0.86267530  1
  In  In36  1  0.01219765  0.15068238  0.38224170  1
  In  In37  1  0.00156653  0.17576653  0.87364359  1
  In  In38  1  0.00098868  0.50482043  0.38196673  1
  In  In39  1  0.00123228  0.50149151  0.86034973  1
  In  In40  1  -0.00323004  0.83691991  0.37062332  1
  In  In41  1  0.01413299  0.83587564  0.87107303  1
  In  In42  1  0.33184257  0.16013494  0.37719708  1
  In  In43  1  0.33151949  0.16699626  0.87062496  1
  In  In44  1  0.34261480  0.48319619  0.39219812  1
  In  In45  1  0.34582620  0.49524803  0.87178235  1
  In  In46  1  0.31905563  0.84479857  0.38022133  1
  In  In47  1  0.31499629  0.83247420  0.87605205  1
  In  In48  1  0.67181529  0.16348912  0.38304578  1
  In  In49  1  0.66376844  0.15785448  0.87838369  1
  In  In50  1  0.66542888  0.49946125  0.37954724  1
  In  In51  1  0.65219872  0.50139519  0.87162968  1
  In  In52  1  0.67291075  0.84796366  0.37104618  1
  In  In53  1  0.67450290  0.83157207  0.87250831  1
  In  In54  1  0.16800721  0.00656032  0.12271257  1
  In  In55  1  0.18852934  0.01780155  0.60226631  1
  In  In56  1  0.18490609  0.33254069  0.12925088  1
  In  In57  1  0.16505173  0.32917633  0.62356816  1
  In  In58  1  0.15070022  0.66771939  0.12948226  1
  In  In59  1  0.15710395  0.65981322  0.61927596  1
  In  In60  1  0.48487448  0.01469209  0.13889628  1
  In  In61  1  0.48019918  0.00977319  0.61990071  1
  In  In62  1  0.49102978  0.32270129  0.11883818  1
  In  In63  1  0.47917765  0.31422928  0.60504987  1
  In  In64  1  0.50243021  0.65306828  0.12073232  1
  In  In65  1  0.51094903  0.66083214  0.62687051  1
  In  In66  1  0.84291702  -0.01934637  0.14835152  1
  In  In67  1  0.84350119  0.00293689  0.61437112  1
  In  In68  1  0.83506214  0.33345635  0.12782333  1
  In  In69  1  0.83675212  0.33850526  0.62120164  1
  In  In70  1  0.83431608  0.67776212  0.12824020  1
  In  In71  1  0.83453836  0.66583102  0.62327385  1
  In  In72  1  0.50200810  0.83469470  0.49381309  1
  In  In73  1  0.17029371  0.49849356  0.00180988  1
  In  In74  1  0.83486695  0.83065671  0.00932566  1
  In  In75  1  0.66848079  0.34160083  0.74383820  1
  In  In76  1  0.33299244  0.66106595  0.74840913  1
  In  In77  1  0.66792792  0.00016641  0.75504729  1
  In  In78  1  0.32738342  0.66995427  0.25929928  1
  In  In79  1  0.01053081  0.33330578  0.26939918  1
  In  In80  1  0.82760171  0.49691814  -0.01054986  1
  In  In81  1  0.83116205  0.16075890  -0.00376444  1
  In  In82  1  0.66817251  0.66709227  0.25265457  1
  In  In83  1  0.66029970  0.32835319  0.24873845  1
  In  In84  1  0.49871060  0.83407079  0.00291237  1
  In  In85  1  0.00777122  -0.00098263  0.74291849  1
  Cu  Cu86  1  0.49463869  0.17194277  0.25267317  1
  Cu  Cu87  1  0.49475942  0.17028839  0.74542751  1
  Cu  Cu88  1  0.67833812  0.66506836  0.49941996  1
  Cu  Cu89  1  0.83500680  0.50406377  0.74050515  1
  Cu  Cu90  1  0.32768407  0.66656971  -0.00370681  1
  Cu  Cu91  1  0.83321994  0.15542174  0.25987175  1
  Cu  Cu92  1  -0.00473245  0.66924687  0.00021691  1
  Cu  Cu93  1  0.17102496  0.50034748  0.26125993  1
  Cu  Cu94  1  0.49984902  0.83647375  0.25343391  1
  Cu  Cu95  1  0.66385964  0.00494697  0.00944686  1
  Cu  Cu96  1  -0.00364692  0.34039577  0.50485368  1
  Cu  Cu97  1  0.66709334  0.33451476  0.50124874  1
  Cu  Cu98  1  0.65743568  0.33853935  -0.00203683  1
  Cu  Cu99  1  0.66987341  -0.00284295  0.49957003  1
  Cu  Cu100  1  0.16294515  0.83930490  0.25431856  1
  Cu  Cu101  1  0.33228612  0.00684346  0.00219980  1
  Cu  Cu102  1  0.49743257  0.49643760  0.74396346  1
  Cu  Cu103  1  0.17304015  0.16796178  0.25433870  1
  Cu  Cu104  1  0.16923204  0.49644794  0.74038671  1
  Cu  Cu105  1  0.83253512  0.82761748  0.74287643  1
  Cu  Cu106  1  0.16591509  0.83668891  0.74701986  1
  Cu  Cu107  1  -0.00038879  -0.00671036  0.49478971  1
  Cu  Cu108  1  0.83956804  0.50091612  0.25504467  1
  Cu  Cu109  1  0.49500406  0.83563227  0.74326098  1
  Cu  Cu110  1  0.17233613  0.16452961  0.74363902  1
  Cu  Cu111  1  0.33673965  0.66793740  0.49838182  1
  Cu  Cu112  1  0.33627301  0.32867520  -0.00135465  1
  Cu  Cu113  1  -0.00179504  0.66865527  0.50180110  1
  Cu  Cu114  1  0.00983589  0.32578061  -0.00231104  1
  Se  Se115  1  0.09141615  0.09445815  0.05338143  1
  Se  Se116  1  0.07711776  0.08229153  0.54895982  1
  Se  Se117  1  0.07770289  0.41020821  0.06329399  1
  Se  Se118  1  0.08371540  0.41967363  0.55745053  1
  Se  Se119  1  0.08114146  0.74901911  0.05332203  1
  Se  Se120  1  0.08566587  0.75263355  0.55140400  1
  Se  Se121  1  0.41932060  0.08570490  0.05548744  1
  Se  Se122  1  0.41941439  0.10006509  0.54761477  1
  Se  Se123  1  0.41453718  0.41679063  0.05269767  1
  Se  Se124  1  0.43633380  0.43464491  0.55154780  1
  Se  Se125  1  0.40502277  0.74446944  0.06244882  1
  Se  Se126  1  0.41666001  0.74702478  0.56138722  1
  Se  Se127  1  0.75348896  0.07581281  0.06901502  1
  Se  Se128  1  0.75167402  0.08375624  0.55228147  1
  Se  Se129  1  0.74169492  0.41106430  0.05967417  1
  Se  Se130  1  0.75102229  0.41879186  0.55316956  1
  Se  Se131  1  0.73454813  0.73640362  0.05539403  1
  Se  Se132  1  0.75523566  0.75301509  0.55262995  1
  Se  Se133  1  0.25001163  0.24954152  0.05293901  1
  Se  Se134  1  0.24698215  0.25444845  0.55068338  1
  Se  Se135  1  0.25494453  0.58904932  0.06589309  1
  Se  Se136  1  0.24896291  0.58775150  0.55066862  1
  Se  Se137  1  0.24935959  0.91986043  0.05223165  1
  Se  Se138  1  0.24712881  0.90899141  0.54261531  1
  Se  Se139  1  0.58302356  0.24804331  0.05139440  1
  Se  Se140  1  0.58461428  0.24429161  0.54811719  1
  Se  Se141  1  0.57987356  0.58253717  0.04508141  1
  Se  Se142  1  0.58708076  0.58700105  0.54983080  1
  Se  Se143  1  0.58266561  0.92418490  0.06809836  1
  Se  Se144  1  0.58626190  0.92255959  0.56292891  1
  Se  Se145  1  0.92107412  0.25445170  0.05730696  1
  Se  Se146  1  0.91585792  0.24965664  0.55454818  1
  Se  Se147  1  0.91733407  0.58355358  0.05723579  1
  Se  Se148  1  0.91657553  0.58243359  0.55484565  1
  Se  Se149  1  0.92292018  0.92799785  0.06097138  1
  Se  Se150  1  0.91562066  0.91036381  0.54813839  1
  Se  Se151  1  0.07200941  0.25405292  0.44813103  1
  Se  Se152  1  0.09272059  0.24498599  0.94461013  1
  Se  Se153  1  0.08496734  0.58414704  0.45249852  1
  Se  Se154  1  0.07528425  0.58598989  0.94065444  1
  Se  Se155  1  0.08501231  0.91420567  0.43993745  1
  Se  Se156  1  0.07920559  0.91424866  0.94752063  1
  Se  Se157  1  0.42077361  0.22869366  0.45225262  1
  Se  Se158  1  0.41731902  0.24480096  0.94278793  1
  Se  Se159  1  0.42265837  0.58316251  0.45053994  1
  Se  Se160  1  0.41186534  0.58258846  0.94644802  1
  Se  Se161  1  0.40929897  0.93079432  0.44488334  1
  Se  Se162  1  0.41003325  0.92254735  0.93991667  1
  Se  Se163  1  0.75255836  0.24862072  0.45155404  1
  Se  Se164  1  0.74425379  0.26228279  0.93920589  1
  Se  Se165  1  0.75551982  0.57757687  0.44480995  1
  Se  Se166  1  0.73858328  0.59368410  0.93776028  1
  Se  Se167  1  0.75355539  0.91274721  0.44913643  1
  Se  Se168  1  0.74257818  0.92649679  0.94745212  1
  Se  Se169  1  0.22849081  0.09809484  0.44215087  1
  Se  Se170  1  0.25119166  0.08277987  0.94092158  1
  Se  Se171  1  0.24882538  0.41866197  0.46151216  1
  Se  Se172  1  0.25424123  0.40890184  0.93792908  1
  Se  Se173  1  0.25169842  0.75333210  0.44995841  1
  Se  Se174  1  0.24111842  0.75112698  0.95019508  1
  Se  Se175  1  0.58451114  0.07978601  0.44840518  1
  Se  Se176  1  0.58237413  0.08695866  0.95360395  1
  Se  Se177  1  0.58318970  0.41337644  0.44492299  1
  Se  Se178  1  0.57548887  0.41884318  0.94224200  1
  Se  Se179  1  0.59647463  0.74268844  0.43643058  1
  Se  Se180  1  0.58499141  0.74716213  0.93835411  1
  Se  Se181  1  0.91356840  0.08170491  0.44706639  1
  Se  Se182  1  0.92996275  0.07359348  0.94203215  1
  Se  Se183  1  0.91479550  0.42511813  0.45094571  1
  Se  Se184  1  0.93042583  0.40839737  0.93889992  1
  Se  Se185  1  0.91935349  0.75117580  0.44366371  1
  Se  Se186  1  0.91616248  0.74520268  0.93667283  1
  Se  Se187  1  0.25302826  0.25266120  0.30927323  1
  Se  Se188  1  0.25294735  0.25053643  0.79885800  1
  Se  Se189  1  0.24702288  0.58095900  0.32490423  1
  Se  Se190  1  0.23996841  0.57410595  0.81135551  1
  Se  Se191  1  0.25086519  0.92225380  0.30181480  1
  Se  Se192  1  0.25018189  0.91840033  0.80078278  1
  Se  Se193  1  0.57534760  0.24672449  0.31670399  1
  Se  Se194  1  0.58224491  0.24405149  0.80564259  1
  Se  Se195  1  0.57642709  0.56796831  0.30157269  1
  Se  Se196  1  0.57842129  0.58275839  0.79667540  1
  Se  Se197  1  0.58173223  0.92187736  0.30504695  1
  Se  Se198  1  0.57107226  0.91140835  0.81211998  1
  Se  Se199  1  0.91040284  0.24149923  0.31684539  1
  Se  Se200  1  0.92672956  0.24706177  0.79632884  1
  Se  Se201  1  0.92410612  0.58306872  0.30581669  1
  Se  Se202  1  0.91872330  0.58780692  0.79574980  1
  Se  Se203  1  0.92240924  0.92713414  0.30268788  1
  Se  Se204  1  0.91013166  0.91038653  0.80418277  1
  Se  Se205  1  0.08224471  0.08397136  0.29910334  1
  Se  Se206  1  0.09368919  0.08597225  0.80808072  1
  Se  Se207  1  0.10373190  0.41711050  0.32798813  1
  Se  Se208  1  0.08413837  0.41515716  0.79674577  1
  Se  Se209  1  0.08345516  0.75009778  0.30431667  1
  Se  Se210  1  0.08168536  0.75022709  0.79619366  1
  Se  Se211  1  0.41280286  0.08293476  0.30252087  1
  Se  Se212  1  0.41550359  0.08372693  0.80016218  1
  Se  Se213  1  0.41412819  0.41596808  0.31086945  1
  Se  Se214  1  0.41611466  0.41172540  0.79765705  1
  Se  Se215  1  0.42329501  0.75975719  0.31743355  1
  Se  Se216  1  0.41848315  0.75699758  0.80987439  1
  Se  Se217  1  0.74407070  0.07780949  0.31050588  1
  Se  Se218  1  0.76266939  0.09766868  0.80564649  1
  Se  Se219  1  0.75663327  0.41704665  0.30792147  1
  Se  Se220  1  0.76018193  0.42765171  0.80979934  1
  Se  Se221  1  0.76041616  0.75470362  0.30904663  1
  Se  Se222  1  0.74519244  0.75018062  0.79783013  1
  Se  Se223  1  0.25151352  0.08449544  0.19544028  1
  Se  Se224  1  0.25356317  0.08088784  0.68911893  1
  Se  Se225  1  0.25030975  0.41725668  0.20531817  1
  Se  Se226  1  0.25373325  0.41189644  0.69185162  1
  Se  Se227  1  0.24390001  0.75836395  0.19195415  1
  Se  Se228  1  0.24748032  0.75435711  0.68750203  1
  Se  Se229  1  0.58316190  0.08805079  0.20239867  1
  Se  Se230  1  0.57941191  0.08795368  0.69020485  1
  Se  Se231  1  0.57020072  0.41831038  0.19048977  1
  Se  Se232  1  0.57143386  0.41455080  0.68030786  1
  Se  Se233  1  0.57188268  0.75372857  0.19080844  1
  Se  Se234  1  0.58169337  0.74870504  0.69956848  1
  Se  Se235  1  0.92137507  0.08269027  0.20301232  1
  Se  Se236  1  0.91100547  0.08871812  0.69135807  1
  Se  Se237  1  0.92109299  0.41816703  0.19658931  1
  Se  Se238  1  0.91801219  0.41541228  0.69437875  1
  Se  Se239  1  0.92038957  0.74992899  0.19530615  1
  Se  Se240  1  0.92060958  0.74920978  0.69127270  1
  Se  Se241  1  0.08892362  0.24956803  0.19525804  1
  Se  Se242  1  0.08364314  0.24721005  0.69535833  1
  Se  Se243  1  0.08781347  0.58404066  0.20849690  1
  Se  Se244  1  0.08315536  0.58489126  0.69665523  1
  Se  Se245  1  0.08708638  0.92053719  0.19222753  1
  Se  Se246  1  0.09848954  0.91806499  0.67917364  1
  Se  Se247  1  0.41210607  0.25204126  0.19561868  1
  Se  Se248  1  0.41262855  0.25402300  0.69246460  1
  Se  Se249  1  0.41682932  0.58132872  0.19654393  1
  Se  Se250  1  0.41289893  0.57202941  0.68260947  1
  Se  Se251  1  0.41187626  0.91975866  0.20448420  1
  Se  Se252  1  0.41321639  0.92266316  0.69496434  1
  Se  Se253  1  0.76101590  0.23779155  0.19503381  1
  Se  Se254  1  0.75768951  0.24470272  0.69244276  1
  Se  Se255  1  0.75629818  0.57159681  0.19007388  1
  Se  Se256  1  0.74621120  0.58558247  0.69216201  1
  Se  Se257  1  0.74104452  0.91300025  0.20757634  1
  Se  Se258  1  0.75390558  0.91509234  0.68737664  1
