# generated using pymatgen
data_In86Cu29Se144
_symmetry_space_group_name_H-M   'P 1'
_cell_length_a   17.57507372
_cell_length_b   17.57220654
_cell_length_c   23.42901347
_cell_angle_alpha   90.00752220
_cell_angle_beta   89.98969405
_cell_angle_gamma   90.00777726
_symmetry_Int_Tables_number   1
_chemical_formula_structural   In86Cu29Se144
_chemical_formula_sum   'In86 Cu29 Se144'
_cell_volume   7235.64818082
_cell_formula_units_Z   1
loop_
 _symmetry_equiv_pos_site_id
 _symmetry_equiv_pos_as_xyz
  1  'x, y, z'
loop_
 _atom_site_type_symbol
 _atom_site_label
 _atom_site_symmetry_multiplicity
 _atom_site_fract_x
 _atom_site_fract_y
 _atom_site_fract_z
 _atom_site_occupancy
  In  In0  1  -0.00495632  0.16633969  0.12874382  1
  In  In1  1  -0.02345230  0.18441614  0.64185798  1
  In  In2  1  -0.01351805  0.49866273  0.13668832  1
  In  In3  1  -0.00917111  0.50287889  0.63318502  1
  In  In4  1  -0.01578124  0.83164049  0.11296233  1
  In  In5  1  -0.01176000  0.84264414  0.63625994  1
  In  In6  1  0.32468380  0.17963061  0.14235438  1
  In  In7  1  0.34773568  0.16502237  0.61966503  1
  In  In8  1  0.34267060  0.49314560  0.13317144  1
  In  In9  1  0.33272557  0.48746379  0.62228405  1
  In  In10  1  0.34423229  0.81678930  0.13361612  1
  In  In11  1  0.34095707  0.82780885  0.62320300  1
  In  In12  1  0.66716548  0.18153386  0.13739513  1
  In  In13  1  0.66355522  0.17285493  0.62529456  1
  In  In14  1  0.67144487  0.50507003  0.12718249  1
  In  In15  1  0.65608777  0.50881877  0.63226034  1
  In  In16  1  0.65874886  0.82616763  0.11625054  1
  In  In17  1  0.65013417  0.83613344  0.63650450  1
  In  In18  1  0.17236470  -0.01166164  0.37789802  1
  In  In19  1  0.16610592  0.01458274  0.87258495  1
  In  In20  1  0.17078412  0.34302629  0.36502005  1
  In  In21  1  0.15933287  0.33070011  0.87276246  1
  In  In22  1  0.15682391  0.64986475  0.35869222  1
  In  In23  1  0.16182646  0.67264905  0.87998201  1
  In  In24  1  0.49847236  0.00638030  0.38498284  1
  In  In25  1  0.51681546  -0.01143488  0.87537049  1
  In  In26  1  0.51134090  0.33494616  0.37515984  1
  In  In27  1  0.50881383  0.34170177  0.87003043  1
  In  In28  1  0.50087221  0.66659514  0.37355754  1
  In  In29  1  0.50786346  0.66612371  0.87828249  1
  In  In30  1  0.84425175  0.00609754  0.38241169  1
  In  In31  1  0.82022753  -0.01009134  0.86025031  1
  In  In32  1  0.80959376  0.31895548  0.34524189  1
  In  In33  1  0.83578317  0.34391640  0.87180857  1
  In  In34  1  0.81346105  0.64038176  0.34479264  1
  In  In35  1  0.83116673  0.66143180  0.88074191  1
  In  In36  1  -0.01518227  0.18276014  0.37676463  1
  In  In37  1  -0.00808834  0.17610995  0.86475636  1
  In  In38  1  -0.01709901  0.48536579  0.34937175  1
  In  In39  1  -0.02169233  0.48233275  0.87494096  1
  In  In40  1  0.00517047  0.83118024  0.37626506  1
  In  In41  1  -0.01284900  0.81454526  0.87038672  1
  In  In42  1  0.37417411  0.18934729  0.34956150  1
  In  In43  1  0.32383461  0.17446442  0.87271568  1
  In  In44  1  0.34453408  0.51057410  0.36351758  1
  In  In45  1  0.34912465  0.49699795  0.87962920  1
  In  In46  1  0.34151647  0.84098618  0.36627697  1
  In  In47  1  0.35065011  0.84142787  0.87896998  1
  In  In48  1  0.66475184  0.17159798  0.38133170  1
  In  In49  1  0.68351654  0.17357253  0.85048377  1
  In  In50  1  0.65522845  0.48642379  0.36242361  1
  In  In51  1  0.66328992  0.50503732  0.87774254  1
  In  In52  1  0.66616318  0.81887071  0.37655803  1
  In  In53  1  0.66715390  0.83349816  0.87269679  1
  In  In54  1  0.16889735  0.01282665  0.12469389  1
  In  In55  1  0.16015656  -0.00840457  0.62544369  1
  In  In56  1  0.15701024  0.35103436  0.14645626  1
  In  In57  1  0.16060544  0.33739675  0.62910804  1
  In  In58  1  0.16928626  0.65100489  0.13794496  1
  In  In59  1  0.15882728  0.65935851  0.62452229  1
  In  In60  1  0.50757027  -0.01292854  0.12670279  1
  In  In61  1  0.50169176  0.00308427  0.61727667  1
  In  In62  1  0.48878791  0.34211148  0.13727474  1
  In  In63  1  0.50265553  0.33149823  0.62338802  1
  In  In64  1  0.50849156  0.66638051  0.12513767  1
  In  In65  1  0.50665315  0.67107636  0.61353377  1
  In  In66  1  0.84141391  0.00045679  0.12007974  1
  In  In67  1  0.80588305  0.02944008  0.65358659  1
  In  In68  1  0.81768916  0.34206535  0.14202596  1
  In  In69  1  0.83228515  0.32963835  0.63267521  1
  In  In70  1  0.82784001  0.66634073  0.12646937  1
  In  In71  1  0.82829153  0.67012471  0.63378794  1
  In  In72  1  0.33436565  0.00639312  0.74535571  1
  In  In73  1  0.17007240  0.50281740  0.48775666  1
  In  In74  1  0.50085236  0.16261773  0.00171197  1
  In  In75  1  0.16445698  0.17214777  -0.00197488  1
  In  In76  1  0.82923305  0.17001023  -0.00025030  1
  In  In77  1  0.83083652  0.83341759  0.50131406  1
  In  In78  1  0.17487732  0.16113898  0.49583035  1
  In  In79  1  0.16238893  0.49727161  0.01178557  1
  In  In80  1  0.66337525  0.00540188  0.25373973  1
  In  In81  1  0.17067380  0.82920970  0.49635347  1
  In  In82  1  0.00138654  -0.00163689  0.24460779  1
  In  In83  1  0.82938702  0.49292362  0.48927173  1
  In  In84  1  0.33490146  0.66299619  0.75826331  1
  In  In85  1  0.16536246  0.83216367  0.00002482  1
  Cu  Cu86  1  0.34448588  -0.00629200  0.00885820  1
  Cu  Cu87  1  0.16217140  0.17687625  0.75029473  1
  Cu  Cu88  1  0.66939521  0.00258110  0.51016751  1
  Cu  Cu89  1  0.66495618  0.34128656  0.00285127  1
  Cu  Cu90  1  0.17021965  0.15387799  0.25769194  1
  Cu  Cu91  1  0.16696877  0.82996352  0.24840499  1
  Cu  Cu92  1  0.35068275  0.66713903  0.00377491  1
  Cu  Cu93  1  -0.00258613  0.33485728  0.50161280  1
  Cu  Cu94  1  0.65644973  0.66297043  0.50012079  1
  Cu  Cu95  1  0.66970780  0.00203552  -0.00644709  1
  Cu  Cu96  1  0.34121874  0.66869744  0.48931928  1
  Cu  Cu97  1  0.67118254  0.66608924  0.00041543  1
  Cu  Cu98  1  0.34266744  0.00349585  0.49045961  1
  Cu  Cu99  1  0.84092397  0.82175188  0.75564769  1
  Cu  Cu100  1  0.67203454  0.33133980  0.49803659  1
  Cu  Cu101  1  -0.00478045  0.65623231  0.00436433  1
  Cu  Cu102  1  0.49657503  0.49492865  0.75041148  1
  Cu  Cu103  1  0.50675633  0.50319089  0.24815263  1
  Cu  Cu104  1  -0.00909581  0.67015409  0.49618837  1
  Cu  Cu105  1  0.49641022  0.16868165  0.74314188  1
  Cu  Cu106  1  0.83034201  0.83085672  0.24233314  1
  Cu  Cu107  1  0.49868663  0.82898684  0.24828402  1
  Cu  Cu108  1  0.15726787  0.50102990  0.75134734  1
  Cu  Cu109  1  0.82679339  0.50292324  0.75401393  1
  Cu  Cu110  1  -0.01150869  0.01613104  0.50924131  1
  Cu  Cu111  1  0.35001925  0.32836749  0.49748536  1
  Cu  Cu112  1  0.33492073  0.33616893  0.00720606  1
  Cu  Cu113  1  -0.00912426  -0.00550626  -0.01058757  1
  Cu  Cu114  1  0.16287069  0.83170512  0.75461826  1
  Se  Se115  1  0.06846349  0.07458287  0.05151585  1
  Se  Se116  1  0.08052041  0.08932515  0.56460940  1
  Se  Se117  1  0.07020166  0.40532982  0.06454156  1
  Se  Se118  1  0.07601560  0.42103601  0.55663958  1
  Se  Se119  1  0.08299109  0.73483245  0.06063539  1
  Se  Se120  1  0.07111937  0.74902126  0.55868167  1
  Se  Se121  1  0.40962090  0.08474221  0.06970163  1
  Se  Se122  1  0.42382690  0.08750245  0.54583035  1
  Se  Se123  1  0.42185932  0.41879691  0.05646557  1
  Se  Se124  1  0.42297538  0.41838884  0.55268664  1
  Se  Se125  1  0.42860429  0.75539828  0.05557976  1
  Se  Se126  1  0.41713059  0.75279071  0.54818934  1
  Se  Se127  1  0.73577921  0.08203509  0.06327044  1
  Se  Se128  1  0.75265411  0.08706981  0.55993710  1
  Se  Se129  1  0.75244484  0.41513257  0.05935525  1
  Se  Se130  1  0.74510879  0.41522583  0.56200702  1
  Se  Se131  1  0.75426726  0.75161094  0.05291146  1
  Se  Se132  1  0.73926151  0.74273414  0.55979883  1
  Se  Se133  1  0.24825586  0.26039578  0.06451531  1
  Se  Se134  1  0.25643856  0.26077487  0.55726076  1
  Se  Se135  1  0.26312063  0.58991334  0.05998873  1
  Se  Se136  1  0.25738827  0.59348467  0.55296157  1
  Se  Se137  1  0.25533192  0.91766112  0.06385942  1
  Se  Se138  1  0.26152110  0.92634012  0.55427204  1
  Se  Se139  1  0.58469548  0.25861139  0.06180715  1
  Se  Se140  1  0.58444813  0.25125864  0.55119869  1
  Se  Se141  1  0.58790728  0.58305161  0.05448962  1
  Se  Se142  1  0.57819656  0.57161807  0.55017318  1
  Se  Se143  1  0.58565863  0.91977233  0.04822797  1
  Se  Se144  1  0.58526154  0.91226253  0.55453158  1
  Se  Se145  1  0.91155067  0.25584910  0.06594155  1
  Se  Se146  1  0.91394845  0.25457912  0.55670632  1
  Se  Se147  1  0.91255586  0.57686551  0.06088016  1
  Se  Se148  1  0.91285683  0.58774968  0.55666494  1
  Se  Se149  1  0.90539873  0.91517999  0.04313423  1
  Se  Se150  1  0.91189104  0.92684909  0.56372876  1
  Se  Se151  1  0.08499710  0.26155150  0.44183796  1
  Se  Se152  1  0.06654306  0.25786975  0.94475902  1
  Se  Se153  1  0.06614724  0.58513352  0.43637055  1
  Se  Se154  1  0.07762127  0.58109450  0.94279985  1
  Se  Se155  1  0.06941102  0.92967296  0.45135087  1
  Se  Se156  1  0.07990180  0.91908817  0.93375958  1
  Se  Se157  1  0.42998186  0.24456804  0.44260206  1
  Se  Se158  1  0.41020872  0.25591569  0.94269642  1
  Se  Se159  1  0.42243768  0.57735555  0.44310049  1
  Se  Se160  1  0.42705896  0.58114318  0.94805113  1
  Se  Se161  1  0.42086615  0.90740082  0.44564768  1
  Se  Se162  1  0.42960475  0.92000363  0.95059916  1
  Se  Se163  1  0.75926858  0.25897565  0.43924989  1
  Se  Se164  1  0.73488560  0.25459848  0.93986811  1
  Se  Se165  1  0.74083653  0.59070669  0.43656984  1
  Se  Se166  1  0.75143726  0.57666410  0.95021867  1
  Se  Se167  1  0.74007086  0.92539392  0.44003453  1
  Se  Se168  1  0.75253855  0.91742486  0.94190293  1
  Se  Se169  1  0.26530430  0.08388529  0.42923587  1
  Se  Se170  1  0.26364445  0.07431151  0.94874628  1
  Se  Se171  1  0.26713438  0.40885579  0.43862858  1
  Se  Se172  1  0.25160870  0.41117415  0.94447948  1
  Se  Se173  1  0.25095815  0.73991846  0.42975399  1
  Se  Se174  1  0.26651897  0.74397997  0.94381277  1
  Se  Se175  1  0.58947516  0.08356530  0.45028636  1
  Se  Se176  1  0.59865211  0.09107114  0.93430690  1
  Se  Se177  1  0.59039250  0.41884880  0.44702895  1
  Se  Se178  1  0.57904947  0.41978452  0.94743340  1
  Se  Se179  1  0.57728518  0.75099171  0.44798050  1
  Se  Se180  1  0.58863843  0.75114260  0.94623067  1
  Se  Se181  1  0.91164296  0.09910568  0.45124049  1
  Se  Se182  1  0.91266378  0.08058788  0.93335740  1
  Se  Se183  1  0.92087761  0.40420621  0.43222477  1
  Se  Se184  1  0.90961450  0.40874091  0.95329234  1
  Se  Se185  1  0.91037243  0.74379375  0.43347332  1
  Se  Se186  1  0.91618535  0.74445883  0.95104667  1
  Se  Se187  1  0.24988148  0.24461481  0.30620422  1
  Se  Se188  1  0.24935976  0.25835083  0.80185662  1
  Se  Se189  1  0.25012154  0.57649759  0.29603326  1
  Se  Se190  1  0.24089034  0.57183389  0.81671157  1
  Se  Se191  1  0.24735105  0.91563637  0.30045995  1
  Se  Se192  1  0.24779167  0.91222468  0.81145174  1
  Se  Se193  1  0.60291421  0.26065094  0.30672518  1
  Se  Se194  1  0.57881328  0.25157635  0.79894010  1
  Se  Se195  1  0.58725595  0.59008898  0.30223613  1
  Se  Se196  1  0.57697173  0.58006004  0.80438406  1
  Se  Se197  1  0.57743592  0.90819703  0.31147049  1
  Se  Se198  1  0.59307410  0.91877740  0.79959637  1
  Se  Se199  1  0.93231994  0.26705882  0.29574760  1
  Se  Se200  1  0.89426207  0.24439360  0.80226298  1
  Se  Se201  1  0.94097941  0.60871963  0.29932783  1
  Se  Se202  1  0.91493408  0.58201612  0.80833947  1
  Se  Se203  1  0.90797593  0.90955798  0.30656010  1
  Se  Se204  1  0.92284051  0.91290775  0.80360045  1
  Se  Se205  1  0.08126775  0.08320927  0.31764479  1
  Se  Se206  1  0.08227139  0.09016915  0.80319153  1
  Se  Se207  1  0.09276039  0.42252815  0.29490643  1
  Se  Se208  1  0.07693183  0.41611196  0.80718861  1
  Se  Se209  1  0.07976101  0.75267842  0.30187803  1
  Se  Se210  1  0.08248810  0.74171203  0.80344150  1
  Se  Se211  1  0.41368839  0.06199571  0.30520892  1
  Se  Se212  1  0.42293077  0.09025511  0.81255607  1
  Se  Se213  1  0.42775325  0.41659362  0.30433118  1
  Se  Se214  1  0.41125795  0.41187383  0.80260479  1
  Se  Se215  1  0.41554057  0.74537907  0.30249668  1
  Se  Se216  1  0.42841083  0.75988378  0.80598401  1
  Se  Se217  1  0.75981351  0.08790714  0.31304264  1
  Se  Se218  1  0.75232705  0.07609649  0.78685692  1
  Se  Se219  1  0.78197541  0.45530510  0.31051200  1
  Se  Se220  1  0.74247005  0.41998595  0.80687825  1
  Se  Se221  1  0.74340181  0.75299638  0.29634897  1
  Se  Se222  1  0.75292342  0.74467571  0.80913422  1
  Se  Se223  1  0.25391693  0.07457163  0.20129462  1
  Se  Se224  1  0.24009061  0.09589228  0.68704406  1
  Se  Se225  1  0.26899794  0.40508940  0.20194195  1
  Se  Se226  1  0.24304390  0.42289517  0.69566437  1
  Se  Se227  1  0.25113172  0.74337880  0.19929080  1
  Se  Se228  1  0.24363307  0.75392641  0.69282128  1
  Se  Se229  1  0.57009379  0.09222971  0.19414608  1
  Se  Se230  1  0.57778596  0.08353253  0.69032333  1
  Se  Se231  1  0.58944877  0.41790373  0.19608432  1
  Se  Se232  1  0.58166985  0.41303519  0.69632853  1
  Se  Se233  1  0.58806652  0.75233603  0.19567540  1
  Se  Se234  1  0.58115533  0.73242775  0.69523249  1
  Se  Se235  1  0.90107674  0.09139667  0.19819770  1
  Se  Se236  1  0.94150239  0.05770694  0.68926827  1
  Se  Se237  1  0.93339330  0.38934445  0.20207012  1
  Se  Se238  1  0.91098979  0.41876343  0.70021346  1
  Se  Se239  1  0.91955028  0.75256464  0.19095019  1
  Se  Se240  1  0.92519570  0.74001866  0.69966584  1
  Se  Se241  1  0.09441790  0.23128176  0.19373072  1
  Se  Se242  1  0.07644205  0.26143496  0.70008697  1
  Se  Se243  1  0.08720152  0.56604239  0.20073928  1
  Se  Se244  1  0.07780118  0.58682885  0.69817539  1
  Se  Se245  1  0.08868519  0.90690393  0.18251374  1
  Se  Se246  1  0.08373197  0.91810911  0.70127622  1
  Se  Se247  1  0.42285462  0.24699247  0.20510322  1
  Se  Se248  1  0.41166792  0.25372458  0.69328157  1
  Se  Se249  1  0.42308400  0.58684069  0.19517561  1
  Se  Se250  1  0.41670130  0.57770129  0.68963443  1
  Se  Se251  1  0.41711184  0.91577279  0.19624822  1
  Se  Se252  1  0.42424942  0.91108716  0.69245109  1
  Se  Se253  1  0.74722018  0.25087343  0.21235734  1
  Se  Se254  1  0.75177097  0.24280631  0.69776172  1
  Se  Se255  1  0.75529285  0.58198693  0.19876461  1
  Se  Se256  1  0.74463608  0.58642841  0.69966843  1
  Se  Se257  1  0.75111586  0.91697303  0.18724894  1
  Se  Se258  1  0.76126993  0.89841278  0.69263075  1
