# generated using pymatgen
data_In86Cu29Se144
_symmetry_space_group_name_H-M   'P 1'
_cell_length_a   17.57292758
_cell_length_b   17.57070622
_cell_length_c   23.43098045
_cell_angle_alpha   89.99503656
_cell_angle_beta   90.00020861
_cell_angle_gamma   90.02056200
_symmetry_Int_Tables_number   1
_chemical_formula_structural   In86Cu29Se144
_chemical_formula_sum   'In86 Cu29 Se144'
_cell_volume   7234.75400281
_cell_formula_units_Z   1
loop_
 _symmetry_equiv_pos_site_id
 _symmetry_equiv_pos_as_xyz
  1  'x, y, z'
loop_
 _atom_site_type_symbol
 _atom_site_label
 _atom_site_symmetry_multiplicity
 _atom_site_fract_x
 _atom_site_fract_y
 _atom_site_fract_z
 _atom_site_occupancy
  In  In0  1  -0.00019456  0.15530544  0.12852181  1
  In  In1  1  -0.00639810  0.16306308  0.61337987  1
  In  In2  1  0.01173307  0.52125463  0.11241452  1
  In  In3  1  0.01710803  0.49516941  0.62196663  1
  In  In4  1  0.00604454  0.83600826  0.13322204  1
  In  In5  1  0.00094119  0.83268191  0.62875189  1
  In  In6  1  0.33443209  0.17030072  0.10800520  1
  In  In7  1  0.33360115  0.16451490  0.62550189  1
  In  In8  1  0.32464404  0.50606736  0.11954776  1
  In  In9  1  0.33290683  0.49927117  0.62502354  1
  In  In10  1  0.33670660  0.83233312  0.11676448  1
  In  In11  1  0.33317781  0.83205280  0.62775887  1
  In  In12  1  0.66359139  0.17412658  0.12197580  1
  In  In13  1  0.66475157  0.16510515  0.63078638  1
  In  In14  1  0.66439823  0.48085719  0.12186947  1
  In  In15  1  0.65309296  0.50231120  0.62679234  1
  In  In16  1  0.65608000  0.84029920  0.12368371  1
  In  In17  1  0.67741562  0.84521399  0.61919182  1
  In  In18  1  0.15861829  0.00758962  0.38564678  1
  In  In19  1  0.17735695  0.00714928  0.86015003  1
  In  In20  1  0.15782753  0.33621884  0.38964253  1
  In  In21  1  0.18079271  0.32595075  0.89284285  1
  In  In22  1  0.16527603  0.67258234  0.38048190  1
  In  In23  1  0.16127877  0.65727990  0.86626626  1
  In  In24  1  0.49751591  0.00414555  0.38931301  1
  In  In25  1  0.49873927  0.00109535  0.87081045  1
  In  In26  1  0.50790063  0.32588281  0.38232380  1
  In  In27  1  0.49138740  0.28725106  0.86940844  1
  In  In28  1  0.49179102  0.67179180  0.38588959  1
  In  In29  1  0.49896965  0.68182995  0.87092827  1
  In  In30  1  0.84236522  -0.00969937  0.38582673  1
  In  In31  1  0.83222026  -0.00363658  0.86751693  1
  In  In32  1  0.82021662  0.33502302  0.37469373  1
  In  In33  1  0.83004272  0.34217653  0.87469653  1
  In  In34  1  0.84812845  0.66787281  0.37659364  1
  In  In35  1  0.83848159  0.65329399  0.87491757  1
  In  In36  1  0.01041022  0.15460324  0.38744160  1
  In  In37  1  0.01292434  0.16384307  0.87301391  1
  In  In38  1  0.00226822  0.51526536  0.37111004  1
  In  In39  1  0.00502277  0.50465246  0.88214976  1
  In  In40  1  0.00240452  0.83429556  0.38040670  1
  In  In41  1  -0.00012773  0.82943101  0.86547454  1
  In  In42  1  0.33229566  0.16979017  0.38700681  1
  In  In43  1  0.35211415  0.13872601  0.90606215  1
  In  In44  1  0.32952999  0.50557427  0.38181778  1
  In  In45  1  0.31661759  0.48908562  0.87432284  1
  In  In46  1  0.33171717  0.83486449  0.38862755  1
  In  In47  1  0.34913567  0.84671373  0.86064865  1
  In  In48  1  0.66308424  0.17293429  0.38290297  1
  In  In49  1  0.63302486  0.13865004  0.83910066  1
  In  In50  1  0.67119219  0.48426354  0.37472974  1
  In  In51  1  0.67377094  0.49378388  0.87417487  1
  In  In52  1  0.66099072  0.84145084  0.38719807  1
  In  In53  1  0.65165993  0.84066494  0.87628264  1
  In  In54  1  0.16456828  -0.00258063  0.12226507  1
  In  In55  1  0.16794819  -0.00304306  0.62758210  1
  In  In56  1  0.16974091  0.33567777  0.11815361  1
  In  In57  1  0.15853381  0.33433622  0.60767701  1
  In  In58  1  0.15484076  0.66189878  0.12172254  1
  In  In59  1  0.16572104  0.66521767  0.62874248  1
  In  In60  1  0.49982600  0.00759900  0.10204093  1
  In  In61  1  0.50461778  0.00642510  0.62817890  1
  In  In62  1  0.50931837  0.33149178  0.12449821  1
  In  In63  1  0.50156166  0.33263803  0.62669402  1
  In  In64  1  0.48865488  0.67171753  0.11933127  1
  In  In65  1  0.49012308  0.65494468  0.62305205  1
  In  In66  1  0.83963244  0.01009959  0.12608856  1
  In  In67  1  0.83406163  0.00158517  0.62783781  1
  In  In68  1  0.81869058  0.33255556  0.12547813  1
  In  In69  1  0.83759832  0.30962251  0.61741116  1
  In  In70  1  0.85380298  0.66965458  0.12354702  1
  In  In71  1  0.83326062  0.68364830  0.62507912  1
  In  In72  1  0.33404503  0.32593233  0.75120922  1
  In  In73  1  0.17479534  0.83941058  -0.00255885  1
  In  In74  1  -0.00629466  0.33742104  0.25702073  1
  In  In75  1  0.67189853  0.00184540  0.24586983  1
  In  In76  1  0.66932617  0.67298369  0.75152369  1
  In  In77  1  0.32934286  0.00009841  0.24531489  1
  In  In78  1  0.32712497  0.33568543  0.24391376  1
  In  In79  1  0.83435895  0.50100318  0.49403184  1
  In  In80  1  0.00154793  0.33491842  0.74752785  1
  In  In81  1  0.32646807  0.66819900  0.24383437  1
  In  In82  1  0.49568831  0.49469632  -0.00229079  1
  In  In83  1  0.67448948  0.65890301  0.25659841  1
  In  In84  1  0.82390902  0.16915338  -0.00084904  1
  In  In85  1  0.82899948  0.82754581  -0.00895712  1
  Cu  Cu86  1  0.00252275  0.67102434  0.50159338  1
  Cu  Cu87  1  0.00053782  -0.00738483  0.50663463  1
  Cu  Cu88  1  -0.00446903  0.33729953  -0.00080433  1
  Cu  Cu89  1  0.34020965  0.33503110  0.50368373  1
  Cu  Cu90  1  0.66128460  0.67144124  0.50457840  1
  Cu  Cu91  1  0.83520031  0.16617676  0.74253855  1
  Cu  Cu92  1  0.16420538  0.49796283  0.75120090  1
  Cu  Cu93  1  0.33328562  0.67797858  -0.00822597  1
  Cu  Cu94  1  0.66540430  0.33330792  0.50299240  1
  Cu  Cu95  1  0.49957801  0.83591450  0.25020525  1
  Cu  Cu96  1  0.16884719  0.16428065  0.74822887  1
  Cu  Cu97  1  0.83450977  0.49675242  0.24962967  1
  Cu  Cu98  1  0.83464806  0.16351308  0.25155769  1
  Cu  Cu99  1  0.16183643  0.16745378  0.25627067  1
  Cu  Cu100  1  0.50322020  0.16806358  0.25630471  1
  Cu  Cu101  1  0.15820032  0.83775276  0.25578571  1
  Cu  Cu102  1  0.50335143  0.49043823  0.25328030  1
  Cu  Cu103  1  0.33460935  -0.00354961  0.50972596  1
  Cu  Cu104  1  0.66823943  0.00877023  0.50715593  1
  Cu  Cu105  1  0.84479331  0.83345286  0.25689498  1
  Cu  Cu106  1  0.83819670  0.83648478  0.74834536  1
  Cu  Cu107  1  0.84084868  0.50073584  0.75139372  1
  Cu  Cu108  1  0.32855239  0.66362403  0.50745329  1
  Cu  Cu109  1  0.67055651  0.66349366  -0.00535677  1
  Cu  Cu110  1  0.66112291  0.32739830  -0.00538119  1
  Cu  Cu111  1  0.00283677  -0.00268708  -0.00043801  1
  Cu  Cu112  1  0.16918567  0.83125633  0.74678243  1
  Cu  Cu113  1  0.49489472  0.49687270  0.74798982  1
  Cu  Cu114  1  0.50025208  0.83677875  0.74409783  1
  Se  Se115  1  0.08188840  0.08206720  0.05478914  1
  Se  Se116  1  0.08709180  0.07844385  0.55505514  1
  Se  Se117  1  0.08117628  0.41758680  0.05351603  1
  Se  Se118  1  0.08318499  0.42361645  0.54127280  1
  Se  Se119  1  0.07515031  0.75367688  0.05312840  1
  Se  Se120  1  0.08507902  0.75079030  0.55913329  1
  Se  Se121  1  0.42171911  0.09701304  0.03900310  1
  Se  Se122  1  0.41940538  0.08473163  0.55645795  1
  Se  Se123  1  0.40689744  0.40760920  0.06123109  1
  Se  Se124  1  0.42090133  0.41864419  0.55883536  1
  Se  Se125  1  0.42082293  0.75653155  0.04509611  1
  Se  Se126  1  0.41510406  0.74767629  0.55731309  1
  Se  Se127  1  0.73787093  0.07142687  0.05819155  1
  Se  Se128  1  0.75394234  0.08976954  0.56015645  1
  Se  Se129  1  0.74701838  0.41017264  0.04686294  1
  Se  Se130  1  0.74702342  0.41587677  0.56141432  1
  Se  Se131  1  0.74303613  0.74299862  0.06177438  1
  Se  Se132  1  0.75157252  0.75385180  0.55012021  1
  Se  Se133  1  0.23559904  0.24336709  0.04994748  1
  Se  Se134  1  0.25578030  0.24950880  0.55433059  1
  Se  Se135  1  0.25433726  0.60025724  0.05345298  1
  Se  Se136  1  0.24431069  0.57840335  0.55815961  1
  Se  Se137  1  0.26672846  0.93473059  0.05250706  1
  Se  Se138  1  0.24805557  0.91157093  0.55742191  1
  Se  Se139  1  0.57756287  0.24626448  0.04951497  1
  Se  Se140  1  0.58510549  0.24936383  0.55878081  1
  Se  Se141  1  0.58812688  0.58651256  0.05892125  1
  Se  Se142  1  0.58012814  0.58181961  0.55203244  1
  Se  Se143  1  0.57815840  0.90812127  0.04822076  1
  Se  Se144  1  0.58317174  0.92157317  0.55585505  1
  Se  Se145  1  0.92025710  0.25346005  0.06135893  1
  Se  Se146  1  0.93677741  0.26552833  0.54572898  1
  Se  Se147  1  0.90580829  0.57764323  0.04905284  1
  Se  Se148  1  0.91909171  0.58956604  0.56002312  1
  Se  Se149  1  0.91961769  0.91766264  0.05692498  1
  Se  Se150  1  0.91388409  0.91258943  0.56002895  1
  Se  Se151  1  0.09315688  0.23790510  0.45342577  1
  Se  Se152  1  0.07662305  0.24962382  0.94839868  1
  Se  Se153  1  0.08294212  0.58535615  0.44766877  1
  Se  Se154  1  0.09729924  0.58075600  0.94689751  1
  Se  Se155  1  0.08654324  0.91262591  0.45144737  1
  Se  Se156  1  0.07940749  0.92099938  0.93515404  1
  Se  Se157  1  0.42257271  0.24839608  0.45164233  1
  Se  Se158  1  0.38852645  0.27219821  0.94503120  1
  Se  Se159  1  0.41422399  0.58271849  0.45178241  1
  Se  Se160  1  0.41125260  0.58918965  0.93601554  1
  Se  Se161  1  0.41936558  0.91446886  0.45437313  1
  Se  Se162  1  0.42237418  0.91275553  0.94040812  1
  Se  Se163  1  0.75233026  0.25172983  0.45066849  1
  Se  Se164  1  0.73895944  0.24918272  0.93141291  1
  Se  Se165  1  0.73944967  0.59428383  0.43772859  1
  Se  Se166  1  0.75164948  0.57758925  0.94483470  1
  Se  Se167  1  0.74798335  0.92032705  0.45343025  1
  Se  Se168  1  0.74046610  0.92868963  0.94273040  1
  Se  Se169  1  0.25418908  0.07909446  0.45111017  1
  Se  Se170  1  0.22673629  0.08500221  0.94511978  1
  Se  Se171  1  0.25409729  0.41606311  0.44940023  1
  Se  Se172  1  0.24143637  0.43033670  0.95614728  1
  Se  Se173  1  0.24780102  0.74944801  0.45261127  1
  Se  Se174  1  0.25563010  0.75353369  0.92779154  1
  Se  Se175  1  0.58282320  0.08962902  0.45213937  1
  Se  Se176  1  0.58496864  0.09002031  0.93475999  1
  Se  Se177  1  0.58424555  0.41884690  0.44894551  1
  Se  Se178  1  0.57834646  0.40487159  0.93310504  1
  Se  Se179  1  0.57688318  0.75533959  0.45123042  1
  Se  Se180  1  0.58439764  0.74761928  0.94665417  1
  Se  Se181  1  0.91751537  0.07988348  0.45392884  1
  Se  Se182  1  0.91942854  0.07804679  0.94157979  1
  Se  Se183  1  0.92407890  0.41323047  0.43354510  1
  Se  Se184  1  0.91456116  0.41929614  0.94428824  1
  Se  Se185  1  0.91570514  0.75334837  0.45022360  1
  Se  Se186  1  0.92896823  0.73965690  0.94127361  1
  Se  Se187  1  0.24416624  0.24799524  0.31279962  1
  Se  Se188  1  0.24404485  0.24103943  0.81320979  1
  Se  Se189  1  0.24254136  0.57979374  0.30731655  1
  Se  Se190  1  0.25400474  0.57926636  0.80016084  1
  Se  Se191  1  0.24647355  0.91276126  0.31264177  1
  Se  Se192  1  0.25526601  0.91895094  0.79385004  1
  Se  Se193  1  0.58760999  0.25147146  0.30640066  1
  Se  Se194  1  0.60112674  0.27133674  0.79920457  1
  Se  Se195  1  0.57312688  0.57805214  0.31455678  1
  Se  Se196  1  0.57763005  0.57800298  0.80842896  1
  Se  Se197  1  0.57582343  0.91900063  0.30966715  1
  Se  Se198  1  0.58351278  0.91855714  0.79866985  1
  Se  Se199  1  0.91268566  0.23903365  0.31646455  1
  Se  Se200  1  0.91199418  0.24335562  0.80849627  1
  Se  Se201  1  0.91419019  0.58584092  0.29905058  1
  Se  Se202  1  0.92565962  0.57985794  0.80445843  1
  Se  Se203  1  0.92331642  0.92077403  0.30938146  1
  Se  Se204  1  0.92250782  0.92086860  0.80037181  1
  Se  Se205  1  0.08226747  0.08016233  0.30728438  1
  Se  Se206  1  0.07924775  0.08119108  0.79660890  1
  Se  Se207  1  0.09369717  0.42351746  0.30970947  1
  Se  Se208  1  0.09305777  0.41268103  0.81439977  1
  Se  Se209  1  0.08138247  0.74942069  0.30890012  1
  Se  Se210  1  0.08455173  0.74691848  0.79887088  1
  Se  Se211  1  0.41880219  0.08749714  0.31120012  1
  Se  Se212  1  0.41316719  0.09570667  0.81291584  1
  Se  Se213  1  0.41667574  0.41686104  0.31213254  1
  Se  Se214  1  0.42324720  0.41586509  0.81405885  1
  Se  Se215  1  0.41578862  0.75786350  0.30794514  1
  Se  Se216  1  0.41798391  0.74807982  0.79359016  1
  Se  Se217  1  0.75493838  0.08475205  0.31486707  1
  Se  Se218  1  0.75553473  0.07918898  0.79580019  1
  Se  Se219  1  0.74758824  0.41221285  0.29701158  1
  Se  Se220  1  0.75228836  0.41829216  0.79869663  1
  Se  Se221  1  0.75365433  0.76220906  0.31400389  1
  Se  Se222  1  0.75894408  0.76029260  0.81489471  1
  Se  Se223  1  0.24457581  0.09848500  0.18928193  1
  Se  Se224  1  0.25302123  0.08169649  0.69522378  1
  Se  Se225  1  0.23548518  0.43211319  0.19256412  1
  Se  Se226  1  0.23814148  0.41183067  0.69010254  1
  Se  Se227  1  0.23790715  0.76646389  0.18799628  1
  Se  Se228  1  0.25297816  0.74515196  0.69661449  1
  Se  Se229  1  0.57173707  0.08524281  0.18934760  1
  Se  Se230  1  0.59009034  0.07876823  0.70137267  1
  Se  Se231  1  0.58630631  0.40921547  0.19948420  1
  Se  Se232  1  0.58241940  0.41554426  0.69848738  1
  Se  Se233  1  0.57786477  0.74741593  0.19605067  1
  Se  Se234  1  0.58133078  0.75401700  0.68462610  1
  Se  Se235  1  0.91982121  0.07864136  0.20279327  1
  Se  Se236  1  0.92389445  0.08595228  0.69222117  1
  Se  Se237  1  0.91313013  0.41987382  0.18554840  1
  Se  Se238  1  0.91041439  0.42017718  0.68367284  1
  Se  Se239  1  0.92365415  0.74997143  0.20006883  1
  Se  Se240  1  0.91969564  0.74713604  0.70028035  1
  Se  Se241  1  0.08535445  0.24931795  0.19390899  1
  Se  Se242  1  0.09088296  0.24564461  0.68662790  1
  Se  Se243  1  0.07704165  0.58941169  0.19641694  1
  Se  Se244  1  0.08043948  0.58080085  0.69804752  1
  Se  Se245  1  0.08409430  0.92651456  0.19898781  1
  Se  Se246  1  0.08316285  0.91664448  0.69747693  1
  Se  Se247  1  0.42017180  0.23967435  0.19138514  1
  Se  Se248  1  0.42936914  0.23661533  0.69685062  1
  Se  Se249  1  0.42558123  0.57214707  0.19247788  1
  Se  Se250  1  0.41045256  0.58103989  0.69873078  1
  Se  Se251  1  0.42691623  0.91617778  0.18599802  1
  Se  Se252  1  0.41592426  0.92120128  0.69290328  1
  Se  Se253  1  0.74928844  0.24207566  0.19679896  1
  Se  Se254  1  0.75142690  0.25425631  0.69552936  1
  Se  Se255  1  0.75412088  0.57494531  0.18548942  1
  Se  Se256  1  0.75730592  0.57979623  0.69016732  1
  Se  Se257  1  0.76296592  0.90432791  0.19062334  1
  Se  Se258  1  0.75057247  0.91797056  0.69803997  1
