# generated using pymatgen
data_In86Cu29Se144
_symmetry_space_group_name_H-M   'P 1'
_cell_length_a   17.57195737
_cell_length_b   17.57023597
_cell_length_c   23.42412087
_cell_angle_alpha   89.98770229
_cell_angle_beta   90.02151564
_cell_angle_gamma   89.98787898
_symmetry_Int_Tables_number   1
_chemical_formula_structural   In86Cu29Se144
_chemical_formula_sum   'In86 Cu29 Se144'
_cell_volume   7232.04275660
_cell_formula_units_Z   1
loop_
 _symmetry_equiv_pos_site_id
 _symmetry_equiv_pos_as_xyz
  1  'x, y, z'
loop_
 _atom_site_type_symbol
 _atom_site_label
 _atom_site_symmetry_multiplicity
 _atom_site_fract_x
 _atom_site_fract_y
 _atom_site_fract_z
 _atom_site_occupancy
  In  In0  1  -0.01435382  0.17224831  0.13552583  1
  In  In1  1  -0.00522754  0.15978940  0.64182612  1
  In  In2  1  -0.00776812  0.48922427  0.11586697  1
  In  In3  1  -0.01121095  0.50780007  0.62575570  1
  In  In4  1  0.00872042  0.84536865  0.12040668  1
  In  In5  1  0.00461794  0.84662103  0.61970628  1
  In  In6  1  0.34704735  0.16011629  0.11634893  1
  In  In7  1  0.32014369  0.16038397  0.62650899  1
  In  In8  1  0.34113050  0.51344313  0.12154223  1
  In  In9  1  0.35377602  0.49791463  0.62053590  1
  In  In10  1  0.32275736  0.83364846  0.12628755  1
  In  In11  1  0.33362382  0.83326217  0.62087287  1
  In  In12  1  0.68506129  0.19375034  0.09452635  1
  In  In13  1  0.68537012  0.16097808  0.64601808  1
  In  In14  1  0.67216336  0.50551135  0.11768474  1
  In  In15  1  0.66101925  0.49817663  0.62597309  1
  In  In16  1  0.66199794  0.81866024  0.12656327  1
  In  In17  1  0.67446048  0.84271562  0.61664480  1
  In  In18  1  0.15899348  -0.00699290  0.37800353  1
  In  In19  1  0.15535343  -0.01192578  0.86390165  1
  In  In20  1  0.15647591  0.34103640  0.37037141  1
  In  In21  1  0.15982350  0.34939701  0.87656364  1
  In  In22  1  0.18321723  0.67219013  0.37529592  1
  In  In23  1  0.17170560  0.66634433  0.87773091  1
  In  In24  1  0.48701743  -0.01336493  0.37678517  1
  In  In25  1  0.51403620  0.00495963  0.86066681  1
  In  In26  1  0.51388591  0.33391450  0.38115488  1
  In  In27  1  0.51744082  0.31749587  0.89130217  1
  In  In28  1  0.50351461  0.66445398  0.37615190  1
  In  In29  1  0.48719532  0.66193440  0.87147006  1
  In  In30  1  0.83478416  -0.00271122  0.37184795  1
  In  In31  1  0.83259505  -0.00223878  0.87766710  1
  In  In32  1  0.84802303  0.32874539  0.37412444  1
  In  In33  1  0.82961228  0.33053979  0.87618645  1
  In  In34  1  0.82284051  0.67089426  0.37880082  1
  In  In35  1  0.83564501  0.66308354  0.88828967  1
  In  In36  1  -0.00221480  0.16570044  0.36076665  1
  In  In37  1  -0.02570948  0.15263313  0.85969429  1
  In  In38  1  -0.00284902  0.48500250  0.37274384  1
  In  In39  1  0.00362378  0.49370358  0.87951889  1
  In  In40  1  -0.00842247  0.84038325  0.38218328  1
  In  In41  1  -0.00016567  0.83286256  0.88004516  1
  In  In42  1  0.33636892  0.15065785  0.37555418  1
  In  In43  1  0.34419563  0.16191021  0.86978138  1
  In  In44  1  0.33208092  0.51520801  0.38065233  1
  In  In45  1  0.33259462  0.50440488  0.87904623  1
  In  In46  1  0.36339844  0.79704254  0.41700719  1
  In  In47  1  0.32357578  0.82628874  0.85963802  1
  In  In48  1  0.67191414  0.16074456  0.37367905  1
  In  In49  1  0.67595898  0.16793063  0.87208263  1
  In  In50  1  0.65489639  0.50503957  0.38201600  1
  In  In51  1  0.68230673  0.47904370  0.89494293  1
  In  In52  1  0.67955356  0.82489221  0.37960754  1
  In  In53  1  0.67128245  0.84372647  0.87072255  1
  In  In54  1  0.16731007  -0.01305154  0.12137451  1
  In  In55  1  0.19118614  -0.04313435  0.66662351  1
  In  In56  1  0.14940918  0.33426954  0.12186984  1
  In  In57  1  0.16617354  0.32362436  0.62796694  1
  In  In58  1  0.17451139  0.67894266  0.12225293  1
  In  In59  1  0.17904321  0.68881335  0.61864989  1
  In  In60  1  0.49469716  0.00556055  0.11978455  1
  In  In61  1  0.50988807  -0.00278083  0.62626696  1
  In  In62  1  0.51334420  0.34336257  0.10522790  1
  In  In63  1  0.50584198  0.34519769  0.62620071  1
  In  In64  1  0.50480960  0.66078212  0.13660361  1
  In  In65  1  0.48499107  0.66143655  0.61682190  1
  In  In66  1  0.84223745  0.00876259  0.11634273  1
  In  In67  1  0.84347973  -0.00410496  0.63950406  1
  In  In68  1  0.83690576  0.34053178  0.11646530  1
  In  In69  1  0.82733181  0.33828890  0.63802961  1
  In  In70  1  0.82766106  0.65924561  0.11915461  1
  In  In71  1  0.83004413  0.66526618  0.61418580  1
  In  In72  1  0.33649210  0.33458506  0.74852778  1
  In  In73  1  0.67550558  0.34029833  0.23653537  1
  In  In74  1  0.16081949  0.16115876  0.51042377  1
  In  In75  1  0.50103380  0.83418357  -0.00619891  1
  In  In76  1  -0.00196925  0.66401370  0.24481266  1
  In  In77  1  0.49870485  0.17472481  0.50988518  1
  In  In78  1  0.16741969  0.50421453  0.49603317  1
  In  In79  1  0.83227072  0.16612004  0.50361681  1
  In  In80  1  0.65564116  0.66570560  0.75018098  1
  In  In81  1  0.67212481  0.00550411  0.24692504  1
  In  In82  1  0.00750573  0.67135034  0.74769962  1
  In  In83  1  0.33094926  0.33487657  0.25060109  1
  In  In84  1  0.16362583  0.16892508  -0.00319213  1
  In  In85  1  0.32636972  -0.00749515  0.25456134  1
  Cu  Cu86  1  0.82815719  0.49837628  0.24411969  1
  Cu  Cu87  1  0.33426146  -0.00544478  -0.00832107  1
  Cu  Cu88  1  0.83572813  0.83409183  0.75130009  1
  Cu  Cu89  1  0.67008468  0.34226872  0.50868256  1
  Cu  Cu90  1  0.49779784  0.82656424  0.25873491  1
  Cu  Cu91  1  0.66146411  0.66758534  0.50031057  1
  Cu  Cu92  1  0.66570990  0.66635131  0.00290880  1
  Cu  Cu93  1  0.16269503  0.16184228  0.24790169  1
  Cu  Cu94  1  0.16903658  0.83091683  0.25188079  1
  Cu  Cu95  1  0.00383153  0.66866913  0.00389714  1
  Cu  Cu96  1  0.66232793  -0.00259821  0.49903233  1
  Cu  Cu97  1  0.83451823  0.83319421  0.25317300  1
  Cu  Cu98  1  0.17234540  0.50979725  0.75369501  1
  Cu  Cu99  1  0.33136017  0.67041615  -0.00113605  1
  Cu  Cu100  1  -0.00017852  0.00221079  -0.00532955  1
  Cu  Cu101  1  0.50514607  0.16562845  0.75270386  1
  Cu  Cu102  1  0.15885836  0.16966508  0.75378798  1
  Cu  Cu103  1  -0.00529186  0.66699793  0.49785077  1
  Cu  Cu104  1  0.49542759  0.83191047  0.74347697  1
  Cu  Cu105  1  0.16240909  0.50011560  0.25074168  1
  Cu  Cu106  1  0.00039454  -0.00108179  0.50830960  1
  Cu  Cu107  1  0.32892446  0.34049149  -0.00510018  1
  Cu  Cu108  1  -0.00427273  0.33202828  -0.00436389  1
  Cu  Cu109  1  0.49424778  0.50971516  0.25368981  1
  Cu  Cu110  1  0.66944054  0.00172928  -0.00981686  1
  Cu  Cu111  1  0.83421972  0.49625402  0.75458532  1
  Cu  Cu112  1  0.50322837  0.49603543  0.75282866  1
  Cu  Cu113  1  -0.00355679  0.33247989  0.49996881  1
  Cu  Cu114  1  0.50991718  0.17161897  0.23784003  1
  Se  Se115  1  0.07779007  0.08050438  0.06059182  1
  Se  Se116  1  0.07634549  0.07392772  0.57314519  1
  Se  Se117  1  0.08293976  0.41664533  0.04527527  1
  Se  Se118  1  0.07954354  0.41218273  0.55913121  1
  Se  Se119  1  0.08742797  0.75569806  0.05369753  1
  Se  Se120  1  0.07469747  0.74862360  0.55481860  1
  Se  Se121  1  0.41921221  0.07866601  0.04171528  1
  Se  Se122  1  0.40863843  0.07729843  0.56025193  1
  Se  Se123  1  0.41136709  0.42197775  0.05163362  1
  Se  Se124  1  0.41726268  0.40413129  0.55146396  1
  Se  Se125  1  0.41544825  0.74811537  0.06079183  1
  Se  Se126  1  0.41494085  0.75369993  0.54859221  1
  Se  Se127  1  0.75485594  0.08232350  0.04491715  1
  Se  Se128  1  0.74303933  0.07482653  0.56169073  1
  Se  Se129  1  0.72357456  0.39330851  0.05806648  1
  Se  Se130  1  0.75697184  0.42089884  0.56202366  1
  Se  Se131  1  0.74954763  0.75194201  0.05322663  1
  Se  Se132  1  0.74952583  0.75231206  0.54848518  1
  Se  Se133  1  0.25599547  0.25776082  0.05973357  1
  Se  Se134  1  0.26002195  0.26060129  0.55361244  1
  Se  Se135  1  0.24851124  0.58752120  0.05414266  1
  Se  Se136  1  0.25919216  0.58689140  0.55837908  1
  Se  Se137  1  0.25374625  0.91497405  0.04935373  1
  Se  Se138  1  0.23542168  0.92030507  0.56678975  1
  Se  Se139  1  0.55825548  0.22802640  0.04759778  1
  Se  Se140  1  0.60249232  0.25005763  0.56849297  1
  Se  Se141  1  0.57814310  0.58852248  0.05716425  1
  Se  Se142  1  0.58260405  0.58306249  0.55676976  1
  Se  Se143  1  0.59228511  0.92314263  0.05614989  1
  Se  Se144  1  0.57819462  0.91346340  0.54969905  1
  Se  Se145  1  0.91934206  0.24780332  0.05386668  1
  Se  Se146  1  0.92190848  0.25390993  0.56490892  1
  Se  Se147  1  0.91653328  0.58280486  0.05155149  1
  Se  Se148  1  0.91314620  0.57929229  0.54778202  1
  Se  Se149  1  0.91840241  0.91654950  0.04999625  1
  Se  Se150  1  0.90601918  0.92036967  0.55598997  1
  Se  Se151  1  0.07548241  0.25032368  0.44116836  1
  Se  Se152  1  0.07256106  0.25074386  0.93327581  1
  Se  Se153  1  0.07379350  0.59042461  0.43366368  1
  Se  Se154  1  0.08244200  0.58697427  0.94347830  1
  Se  Se155  1  0.08026186  0.91494549  0.45194832  1
  Se  Se156  1  0.08689189  0.91746978  0.94668360  1
  Se  Se157  1  0.41024682  0.25223980  0.43751315  1
  Se  Se158  1  0.40689552  0.24928370  0.94520978  1
  Se  Se159  1  0.42101564  0.58579204  0.44782694  1
  Se  Se160  1  0.41674595  0.58540943  0.94973810  1
  Se  Se161  1  0.40576778  0.92827187  0.45425619  1
  Se  Se162  1  0.41530732  0.91933968  0.92826775  1
  Se  Se163  1  0.74153893  0.25984634  0.44313399  1
  Se  Se164  1  0.74195251  0.25616694  0.94642108  1
  Se  Se165  1  0.74653683  0.58256448  0.44755443  1
  Se  Se166  1  0.75369714  0.57996518  0.95610179  1
  Se  Se167  1  0.75185268  0.92260736  0.44368051  1
  Se  Se168  1  0.75335878  0.90945249  0.94759920  1
  Se  Se169  1  0.25191623  0.07393820  0.44702494  1
  Se  Se170  1  0.25033122  0.07702110  0.93518547  1
  Se  Se171  1  0.25481127  0.40697557  0.43837444  1
  Se  Se172  1  0.24386996  0.42538978  0.94713673  1
  Se  Se173  1  0.23402199  0.75390992  0.45673487  1
  Se  Se174  1  0.25395198  0.75649252  0.94313689  1
  Se  Se175  1  0.58261466  0.08073031  0.44089911  1
  Se  Se176  1  0.58405493  0.08288639  0.93787403  1
  Se  Se177  1  0.58108997  0.41905312  0.45519874  1
  Se  Se178  1  0.56289107  0.43361441  0.94837321  1
  Se  Se179  1  0.58384386  0.75370435  0.44444078  1
  Se  Se180  1  0.59118434  0.74183082  0.93494994  1
  Se  Se181  1  0.92719562  0.08107357  0.44288155  1
  Se  Se182  1  0.91275719  0.08647084  0.94663764  1
  Se  Se183  1  0.91295845  0.41727628  0.44884064  1
  Se  Se184  1  0.91135723  0.41916858  0.94587668  1
  Se  Se185  1  0.90967059  0.75129881  0.44594402  1
  Se  Se186  1  0.91866381  0.75148529  0.95081251  1
  Se  Se187  1  0.24364720  0.23794864  0.31062879  1
  Se  Se188  1  0.24244645  0.24996527  0.81211850  1
  Se  Se189  1  0.24817691  0.57991279  0.30313307  1
  Se  Se190  1  0.25716944  0.58874326  0.80632459  1
  Se  Se191  1  0.24923596  0.90118333  0.31865906  1
  Se  Se192  1  0.25589893  0.92725955  0.79707783  1
  Se  Se193  1  0.58624530  0.24747621  0.30280219  1
  Se  Se194  1  0.58437229  0.25193066  0.80639037  1
  Se  Se195  1  0.58733122  0.58538428  0.30420856  1
  Se  Se196  1  0.58476079  0.57016199  0.81711219  1
  Se  Se197  1  0.58263098  0.91387470  0.30914736  1
  Se  Se198  1  0.58619757  0.90903894  0.79512254  1
  Se  Se199  1  0.91833578  0.25443235  0.29709022  1
  Se  Se200  1  0.92889926  0.27152983  0.80664849  1
  Se  Se201  1  0.90849928  0.57674521  0.30760356  1
  Se  Se202  1  0.91368180  0.58390569  0.80934524  1
  Se  Se203  1  0.91920623  0.91667294  0.30323735  1
  Se  Se204  1  0.91756727  0.91271874  0.80916102  1
  Se  Se205  1  0.08622189  0.07542337  0.30321461  1
  Se  Se206  1  0.07574359  0.08005660  0.80028147  1
  Se  Se207  1  0.07585726  0.41309224  0.29541583  1
  Se  Se208  1  0.08425584  0.42595070  0.80031305  1
  Se  Se209  1  0.08295413  0.75202797  0.31035626  1
  Se  Se210  1  0.09480346  0.76094459  0.80725391  1
  Se  Se211  1  0.43179731  0.08865849  0.29911035  1
  Se  Se212  1  0.41629675  0.07903264  0.79648138  1
  Se  Se213  1  0.42450072  0.41945920  0.31276479  1
  Se  Se214  1  0.42438465  0.41500688  0.81509140  1
  Se  Se215  1  0.41077097  0.75309271  0.31634743  1
  Se  Se216  1  0.41729110  0.74550768  0.79739205  1
  Se  Se217  1  0.76719957  0.09846824  0.30191305  1
  Se  Se218  1  0.74658461  0.07178907  0.80700467  1
  Se  Se219  1  0.75293140  0.42144781  0.31195141  1
  Se  Se220  1  0.74615368  0.41794679  0.80703874  1
  Se  Se221  1  0.74928034  0.74745107  0.30074765  1
  Se  Se222  1  0.75914596  0.74664234  0.80855758  1
  Se  Se223  1  0.24879563  0.08911601  0.18707051  1
  Se  Se224  1  0.24653157  0.08764164  0.70361470  1
  Se  Se225  1  0.24297422  0.42185894  0.18717447  1
  Se  Se226  1  0.24664887  0.42710252  0.68835574  1
  Se  Se227  1  0.25442508  0.74813249  0.20079636  1
  Se  Se228  1  0.25109938  0.75832562  0.69699169  1
  Se  Se229  1  0.58959883  0.09231969  0.17868541  1
  Se  Se230  1  0.58626976  0.07890931  0.69991922  1
  Se  Se231  1  0.57094030  0.42843555  0.19013956  1
  Se  Se232  1  0.58931543  0.41437010  0.70123557  1
  Se  Se233  1  0.58441716  0.74812619  0.20420517  1
  Se  Se234  1  0.57776499  0.75396016  0.68153067  1
  Se  Se235  1  0.92518499  0.06602338  0.19617932  1
  Se  Se236  1  0.88841197  0.10417586  0.70543747  1
  Se  Se237  1  0.91419942  0.41635315  0.19293068  1
  Se  Se238  1  0.92272305  0.42060456  0.69926058  1
  Se  Se239  1  0.91153541  0.75740582  0.18567790  1
  Se  Se240  1  0.90935513  0.75256141  0.68737722  1
  Se  Se241  1  0.08297387  0.25012238  0.19689323  1
  Se  Se242  1  0.07941741  0.25542321  0.70009315  1
  Se  Se243  1  0.08748348  0.57635686  0.18350533  1
  Se  Se244  1  0.09670264  0.58341566  0.68411018  1
  Se  Se245  1  0.08822549  0.91608437  0.19856139  1
  Se  Se246  1  0.05589064  0.92867590  0.70243292  1
  Se  Se247  1  0.42471119  0.25407036  0.18495580  1
  Se  Se248  1  0.42483506  0.24129623  0.68794080  1
  Se  Se249  1  0.40698655  0.59082796  0.20245111  1
  Se  Se250  1  0.42160118  0.57924306  0.69772132  1
  Se  Se251  1  0.42598459  0.90918765  0.19320204  1
  Se  Se252  1  0.41730511  0.91875179  0.69016741  1
  Se  Se253  1  0.76058618  0.23939640  0.18570338  1
  Se  Se254  1  0.75559374  0.25481783  0.71038002  1
  Se  Se255  1  0.74598614  0.58468061  0.19389175  1
  Se  Se256  1  0.75752605  0.58131750  0.69417905  1
  Se  Se257  1  0.75537318  0.90968206  0.18734954  1
  Se  Se258  1  0.74713822  0.91251277  0.69781047  1
