# generated using pymatgen
data_In86Cu29Se144
_symmetry_space_group_name_H-M   'P 1'
_cell_length_a   17.58101021
_cell_length_b   17.58930850
_cell_length_c   23.45096699
_cell_angle_alpha   90.00426983
_cell_angle_beta   89.99401021
_cell_angle_gamma   90.01502823
_symmetry_Int_Tables_number   1
_chemical_formula_structural   In86Cu29Se144
_chemical_formula_sum   'In86 Cu29 Se144'
_cell_volume   7251.92541593
_cell_formula_units_Z   1
loop_
 _symmetry_equiv_pos_site_id
 _symmetry_equiv_pos_as_xyz
  1  'x, y, z'
loop_
 _atom_site_type_symbol
 _atom_site_label
 _atom_site_symmetry_multiplicity
 _atom_site_fract_x
 _atom_site_fract_y
 _atom_site_fract_z
 _atom_site_occupancy
  In  In0  1  -0.01095887  0.15596668  0.12847519  1
  In  In1  1  -0.00787444  0.17433362  0.61976187  1
  In  In2  1  -0.03224366  0.53650964  0.14592484  1
  In  In3  1  -0.00578780  0.51490824  0.62223066  1
  In  In4  1  -0.00613002  0.83125858  0.12848120  1
  In  In5  1  -0.00804918  0.82470338  0.61222545  1
  In  In6  1  0.34330130  0.15415499  0.12733634  1
  In  In7  1  0.34760687  0.15656154  0.63281925  1
  In  In8  1  0.34241324  0.48924167  0.12679421  1
  In  In9  1  0.34200102  0.48389108  0.62869104  1
  In  In10  1  0.34588991  0.83538076  0.12909332  1
  In  In11  1  0.34068793  0.84494055  0.61653082  1
  In  In12  1  0.66138520  0.18113488  0.12207279  1
  In  In13  1  0.66976770  0.16869887  0.62690528  1
  In  In14  1  0.66336886  0.50522646  0.12653736  1
  In  In15  1  0.66411698  0.50130441  0.62419295  1
  In  In16  1  0.65431290  0.82346411  0.12024134  1
  In  In17  1  0.67333728  0.83878705  0.62834388  1
  In  In18  1  0.15148264  -0.02806459  0.35589168  1
  In  In19  1  0.17697414  -0.00962597  0.87049903  1
  In  In20  1  0.17028639  0.33729220  0.37737629  1
  In  In21  1  0.16658064  0.31862361  0.87576630  1
  In  In22  1  0.16239205  0.69163507  0.36956395  1
  In  In23  1  0.15948477  0.66520027  0.87814665  1
  In  In24  1  0.49167888  0.00563288  0.37954044  1
  In  In25  1  0.50430005  0.00021625  0.87253006  1
  In  In26  1  0.51078451  0.33227423  0.37629205  1
  In  In27  1  0.50705203  0.33164137  0.87072401  1
  In  In28  1  0.52054313  0.65279947  0.37932759  1
  In  In29  1  0.51876106  0.65304676  0.88360157  1
  In  In30  1  0.83921683  -0.01162769  0.38532073  1
  In  In31  1  0.81712743  -0.00639136  0.86796721  1
  In  In32  1  0.80877671  0.35264252  0.38762625  1
  In  In33  1  0.82972175  0.33696342  0.87315300  1
  In  In34  1  0.83026043  0.66371343  0.36736887  1
  In  In35  1  0.81139400  0.68691089  0.89478720  1
  In  In36  1  -0.00211379  0.15160847  0.37553311  1
  In  In37  1  -0.00775585  0.17725602  0.87847416  1
  In  In38  1  -0.02539820  0.50703474  0.36933509  1
  In  In39  1  -0.01446743  0.49992581  0.88411607  1
  In  In40  1  -0.00807892  0.82922496  0.36812853  1
  In  In41  1  -0.01697341  0.82476049  0.87626085  1
  In  In42  1  0.35129115  0.15960837  0.37859129  1
  In  In43  1  0.35262094  0.17923140  0.85881474  1
  In  In44  1  0.34808922  0.50542734  0.37599953  1
  In  In45  1  0.35941775  0.50104541  0.87408056  1
  In  In46  1  0.32807918  0.83703468  0.38232973  1
  In  In47  1  0.33892309  0.84814829  0.86808636  1
  In  In48  1  0.65477245  0.17561347  0.38397528  1
  In  In49  1  0.66568493  0.15275438  0.86577765  1
  In  In50  1  0.67230389  0.50083750  0.36601884  1
  In  In51  1  0.66633395  0.49859505  0.87195404  1
  In  In52  1  0.67779996  0.82197114  0.38649780  1
  In  In53  1  0.66921435  0.83075064  0.87473965  1
  In  In54  1  0.17221635  -0.01269474  0.13824854  1
  In  In55  1  0.17866357  -0.00076204  0.62323111  1
  In  In56  1  0.16979167  0.33893401  0.12318548  1
  In  In57  1  0.17669482  0.33975913  0.62794966  1
  In  In58  1  0.16210356  0.67235524  0.13463833  1
  In  In59  1  0.15449878  0.67066530  0.61784499  1
  In  In60  1  0.49738449  -0.00556406  0.11974680  1
  In  In61  1  0.50014800  -0.00195182  0.62395825  1
  In  In62  1  0.54302891  0.36001357  0.08555715  1
  In  In63  1  0.50771275  0.32973659  0.62649120  1
  In  In64  1  0.50353031  0.67010160  0.12510581  1
  In  In65  1  0.51743352  0.68340660  0.61723983  1
  In  In66  1  0.84531947  -0.00224094  0.13033618  1
  In  In67  1  0.82367692  -0.00539306  0.62302002  1
  In  In68  1  0.80192521  0.34690351  0.13571529  1
  In  In69  1  0.80972495  0.31974939  0.61298534  1
  In  In70  1  0.81620300  0.65980059  0.12670908  1
  In  In71  1  0.82861708  0.66294212  0.61922757  1
  In  In72  1  0.16648483  0.50511541  0.49964016  1
  In  In73  1  0.16933717  0.16057215  0.49739753  1
  In  In74  1  -0.00352645  0.66652932  0.74741401  1
  In  In75  1  0.34840329  0.32423874  0.25649176  1
  In  In76  1  0.16823571  0.49763639  0.00792861  1
  In  In77  1  0.17294374  0.16187994  0.00561327  1
  In  In78  1  0.33543824  0.67171992  0.24863218  1
  In  In79  1  0.16928834  0.83150699  0.00886371  1
  In  In80  1  0.34389770  0.67148712  0.74619844  1
  In  In81  1  -0.00079674  0.00504003  0.75156599  1
  In  In82  1  0.66857023  -0.00085819  0.25994704  1
  In  In83  1  -0.00595029  0.32169145  0.24498606  1
  In  In84  1  0.82643384  0.16566495  -0.00168865  1
  In  In85  1  -0.00679365  0.33790727  0.75452435  1
  Cu  Cu86  1  0.16900170  0.83889503  0.74352966  1
  Cu  Cu87  1  0.66516384  0.66341741  0.00097486  1
  Cu  Cu88  1  0.66141309  0.00177187  0.50438306  1
  Cu  Cu89  1  0.66751829  -0.00468922  -0.00321973  1
  Cu  Cu90  1  0.83131672  0.83070656  0.24890556  1
  Cu  Cu91  1  0.17926315  0.49445226  0.75624533  1
  Cu  Cu92  1  -0.01240519  0.34219937  0.01254500  1
  Cu  Cu93  1  0.83453598  0.16651000  0.25741937  1
  Cu  Cu94  1  -0.00441389  0.67060546  0.49190121  1
  Cu  Cu95  1  0.50707285  0.83627731  0.74687148  1
  Cu  Cu96  1  0.33898860  0.66516614  0.49632383  1
  Cu  Cu97  1  0.50414899  0.16895288  0.24922896  1
  Cu  Cu98  1  -0.00261331  -0.00944403  0.00262857  1
  Cu  Cu99  1  0.50701623  0.49623798  0.74911462  1
  Cu  Cu100  1  0.34568472  0.00942490  -0.00588919  1
  Cu  Cu101  1  0.17369102  0.16723205  0.74861732  1
  Cu  Cu102  1  0.33119581  -0.00288220  0.49947822  1
  Cu  Cu103  1  -0.01031211  0.33754298  0.49792739  1
  Cu  Cu104  1  0.33645084  0.67388267  0.00268415  1
  Cu  Cu105  1  0.50194180  0.16510273  0.74866881  1
  Cu  Cu106  1  -0.00574110  -0.00652001  0.49418749  1
  Cu  Cu107  1  0.16203280  0.50087504  0.25493059  1
  Cu  Cu108  1  0.49691483  0.83523676  0.25489038  1
  Cu  Cu109  1  0.82601783  0.50159673  0.74781457  1
  Cu  Cu110  1  0.66426629  0.33961767  0.50140523  1
  Cu  Cu111  1  0.17134616  0.15371497  0.25152619  1
  Cu  Cu112  1  0.34319318  0.33517311  -0.00952440  1
  Cu  Cu113  1  0.34822138  0.32673858  0.50442205  1
  Cu  Cu114  1  0.67006514  0.66607215  0.49945110  1
  Se  Se115  1  0.07911471  0.07058852  0.06135237  1
  Se  Se116  1  0.07465796  0.07288539  0.55811619  1
  Se  Se117  1  0.06836151  0.42239608  0.07163098  1
  Se  Se118  1  0.07558943  0.41070988  0.55993647  1
  Se  Se119  1  0.07440463  0.73773409  0.05784417  1
  Se  Se120  1  0.08336149  0.75162046  0.54373551  1
  Se  Se121  1  0.42675302  0.08900131  0.05060862  1
  Se  Se122  1  0.41413071  0.07966978  0.55348042  1
  Se  Se123  1  0.41711911  0.42346176  0.04639112  1
  Se  Se124  1  0.42711614  0.41596913  0.55520169  1
  Se  Se125  1  0.42091535  0.75598236  0.05583681  1
  Se  Se126  1  0.41633538  0.75025049  0.55354041  1
  Se  Se127  1  0.74401386  0.07306404  0.06371209  1
  Se  Se128  1  0.74860394  0.08482961  0.55464131  1
  Se  Se129  1  0.72959749  0.40860262  0.05458398  1
  Se  Se130  1  0.75051962  0.42564306  0.55103399  1
  Se  Se131  1  0.74662910  0.75047487  0.05324345  1
  Se  Se132  1  0.74839450  0.75253413  0.55436179  1
  Se  Se133  1  0.26540915  0.26037099  0.05736895  1
  Se  Se134  1  0.25840400  0.25084599  0.55999330  1
  Se  Se135  1  0.25870870  0.59428853  0.06562098  1
  Se  Se136  1  0.26129994  0.58776674  0.56276930  1
  Se  Se137  1  0.26419314  0.93022967  0.05666804  1
  Se  Se138  1  0.24337527  0.91282662  0.54841070  1
  Se  Se139  1  0.57310911  0.22877062  0.04293911  1
  Se  Se140  1  0.58741717  0.24989161  0.55444455  1
  Se  Se141  1  0.57811337  0.58404508  0.05421720  1
  Se  Se142  1  0.58393157  0.58369610  0.55267566  1
  Se  Se143  1  0.58208814  0.91462475  0.05123164  1
  Se  Se144  1  0.58375600  0.91313067  0.55766457  1
  Se  Se145  1  0.90863473  0.25503330  0.06863796  1
  Se  Se146  1  0.90973313  0.24996282  0.54882566  1
  Se  Se147  1  0.89734539  0.57513247  0.05654027  1
  Se  Se148  1  0.91571763  0.58687192  0.54756161  1
  Se  Se149  1  0.91196667  0.91137545  0.05564298  1
  Se  Se150  1  0.90986609  0.91652192  0.55230219  1
  Se  Se151  1  0.07629789  0.25763480  0.44259056  1
  Se  Se152  1  0.07203786  0.25966045  0.95541857  1
  Se  Se153  1  0.07821154  0.58758864  0.43375141  1
  Se  Se154  1  0.07497570  0.58794781  0.94922072  1
  Se  Se155  1  0.07662980  0.91233603  0.43956473  1
  Se  Se156  1  0.08069181  0.91783174  0.93999404  1
  Se  Se157  1  0.42739366  0.24764766  0.44535460  1
  Se  Se158  1  0.42249484  0.24680874  0.94058450  1
  Se  Se159  1  0.42568157  0.58074990  0.44916703  1
  Se  Se160  1  0.41813614  0.58784896  0.95056036  1
  Se  Se161  1  0.41874600  0.91455546  0.44876378  1
  Se  Se162  1  0.42103264  0.91666948  0.94343697  1
  Se  Se163  1  0.74738092  0.24934838  0.45165089  1
  Se  Se164  1  0.73801810  0.25228010  0.93726338  1
  Se  Se165  1  0.74868320  0.58467519  0.44020093  1
  Se  Se166  1  0.74649153  0.57632718  0.94813220  1
  Se  Se167  1  0.74675126  0.91773640  0.45326477  1
  Se  Se168  1  0.75380985  0.91301464  0.94664296  1
  Se  Se169  1  0.25172436  0.07164226  0.43327256  1
  Se  Se170  1  0.25952718  0.08437539  0.93462285  1
  Se  Se171  1  0.26495078  0.40944552  0.44690681  1
  Se  Se172  1  0.25352792  0.41417643  0.93679413  1
  Se  Se173  1  0.24932613  0.74651023  0.44883815  1
  Se  Se174  1  0.25787633  0.74824941  0.93865892  1
  Se  Se175  1  0.57831340  0.08314678  0.44894169  1
  Se  Se176  1  0.58783853  0.08079554  0.94328214  1
  Se  Se177  1  0.58934410  0.42264736  0.44091546  1
  Se  Se178  1  0.56599919  0.43341297  0.93743028  1
  Se  Se179  1  0.58084231  0.74949422  0.45046449  1
  Se  Se180  1  0.58556674  0.75247753  0.94785664  1
  Se  Se181  1  0.91232574  0.08579941  0.45055066  1
  Se  Se182  1  0.92140922  0.07339732  0.94048941  1
  Se  Se183  1  0.91012367  0.42621087  0.44807345  1
  Se  Se184  1  0.90514013  0.41387963  0.95043300  1
  Se  Se185  1  0.90884815  0.74988266  0.43899205  1
  Se  Se186  1  0.92712901  0.73753645  0.95138834  1
  Se  Se187  1  0.24530647  0.23903868  0.31267985  1
  Se  Se188  1  0.25256208  0.25593856  0.80010436  1
  Se  Se189  1  0.24512856  0.58013584  0.31318813  1
  Se  Se190  1  0.25237452  0.58404864  0.81179663  1
  Se  Se191  1  0.26844172  0.92023912  0.30360382  1
  Se  Se192  1  0.25617235  0.92099431  0.79351872  1
  Se  Se193  1  0.58732940  0.25059794  0.30291918  1
  Se  Se194  1  0.58633847  0.24601210  0.80222685  1
  Se  Se195  1  0.59664882  0.59179146  0.29681678  1
  Se  Se196  1  0.58703338  0.58498296  0.80060044  1
  Se  Se197  1  0.57929059  0.90824377  0.31855289  1
  Se  Se198  1  0.58805916  0.91590731  0.80560138  1
  Se  Se199  1  0.91025122  0.24910376  0.31929774  1
  Se  Se200  1  0.90182226  0.23819811  0.80265829  1
  Se  Se201  1  0.91687401  0.59237578  0.29351540  1
  Se  Se202  1  0.90796027  0.57914933  0.80896484  1
  Se  Se203  1  0.90800726  0.91866770  0.30267384  1
  Se  Se204  1  0.90950757  0.90651220  0.80176801  1
  Se  Se205  1  0.07831532  0.07856691  0.30120968  1
  Se  Se206  1  0.09203120  0.09584338  0.81414162  1
  Se  Se207  1  0.08072797  0.41643328  0.30968965  1
  Se  Se208  1  0.08891851  0.42554748  0.81621016  1
  Se  Se209  1  0.08214791  0.76076990  0.29581880  1
  Se  Se210  1  0.09099476  0.76073025  0.80625414  1
  Se  Se211  1  0.42129182  0.08314685  0.29993817  1
  Se  Se212  1  0.41899420  0.07591386  0.79862859  1
  Se  Se213  1  0.43367971  0.42725771  0.30529692  1
  Se  Se214  1  0.42011356  0.41320112  0.79936660  1
  Se  Se215  1  0.42486273  0.74924293  0.31724906  1
  Se  Se216  1  0.43139025  0.75397814  0.81194192  1
  Se  Se217  1  0.75544011  0.08960062  0.32114282  1
  Se  Se218  1  0.75471106  0.08121030  0.79542952  1
  Se  Se219  1  0.74667130  0.40706279  0.29918194  1
  Se  Se220  1  0.74802403  0.41447914  0.80157792  1
  Se  Se221  1  0.74489352  0.75258156  0.30326176  1
  Se  Se222  1  0.75448677  0.74810932  0.80717672  1
  Se  Se223  1  0.25879607  0.07795308  0.19761002  1
  Se  Se224  1  0.25254488  0.07983924  0.69667200  1
  Se  Se225  1  0.24669860  0.41892800  0.20063201  1
  Se  Se226  1  0.25918985  0.41028341  0.70259920  1
  Se  Se227  1  0.24278628  0.76852754  0.19618542  1
  Se  Se228  1  0.24436543  0.75251616  0.68531884  1
  Se  Se229  1  0.58341734  0.08312079  0.19130240  1
  Se  Se230  1  0.58161997  0.08346776  0.69145787  1
  Se  Se231  1  0.58220782  0.40501230  0.18414568  1
  Se  Se232  1  0.58997264  0.41372853  0.69536250  1
  Se  Se233  1  0.57760008  0.75358050  0.19903843  1
  Se  Se234  1  0.59078864  0.75105039  0.69765742  1
  Se  Se235  1  0.91659793  0.08050069  0.20594947  1
  Se  Se236  1  0.91112168  0.09158089  0.68955566  1
  Se  Se237  1  0.90075955  0.42200741  0.20121912  1
  Se  Se238  1  0.91141489  0.42499298  0.68765954  1
  Se  Se239  1  0.90701117  0.74493174  0.19162393  1
  Se  Se240  1  0.90774623  0.75786336  0.68986818  1
  Se  Se241  1  0.09668214  0.23553062  0.18796342  1
  Se  Se242  1  0.08841861  0.24705115  0.69189356  1
  Se  Se243  1  0.08332774  0.58767384  0.20296731  1
  Se  Se244  1  0.09782432  0.57239226  0.69518971  1
  Se  Se245  1  0.07165286  0.91821001  0.19644390  1
  Se  Se246  1  0.08139556  0.91236927  0.68539097  1
  Se  Se247  1  0.43069692  0.24903165  0.18429421  1
  Se  Se248  1  0.41955198  0.25223308  0.69679892  1
  Se  Se249  1  0.42467872  0.57462373  0.19509318  1
  Se  Se250  1  0.43026076  0.57985420  0.68637382  1
  Se  Se251  1  0.42150076  0.92173385  0.19913106  1
  Se  Se252  1  0.41736646  0.91465040  0.69525235  1
  Se  Se253  1  0.74791798  0.23992461  0.20022565  1
  Se  Se254  1  0.74531957  0.25712592  0.69739650  1
  Se  Se255  1  0.72360371  0.59806666  0.20165859  1
  Se  Se256  1  0.74794416  0.58698469  0.69235987  1
  Se  Se257  1  0.74786614  0.91181706  0.19025039  1
  Se  Se258  1  0.74526456  0.92674771  0.70021551  1
