# generated using pymatgen
data_In86Cu29Se144
_symmetry_space_group_name_H-M   'P 1'
_cell_length_a   17.58834273
_cell_length_b   17.58708440
_cell_length_c   23.45041016
_cell_angle_alpha   89.99683455
_cell_angle_beta   89.99392770
_cell_angle_gamma   89.99538519
_symmetry_Int_Tables_number   1
_chemical_formula_structural   In86Cu29Se144
_chemical_formula_sum   'In86 Cu29 Se144'
_cell_volume   7253.86061776
_cell_formula_units_Z   1
loop_
 _symmetry_equiv_pos_site_id
 _symmetry_equiv_pos_as_xyz
  1  'x, y, z'
loop_
 _atom_site_type_symbol
 _atom_site_label
 _atom_site_symmetry_multiplicity
 _atom_site_fract_x
 _atom_site_fract_y
 _atom_site_fract_z
 _atom_site_occupancy
  In  In0  1  0.01014896  0.18045623  0.11554526  1
  In  In1  1  -0.00162314  0.17163002  0.62466626  1
  In  In2  1  -0.00024356  0.49556910  0.12647668  1
  In  In3  1  -0.00235221  0.49164973  0.62213718  1
  In  In4  1  -0.01371690  0.82741778  0.12410249  1
  In  In5  1  0.00717337  0.83696143  0.62897577  1
  In  In6  1  0.35093744  0.18904489  0.11779769  1
  In  In7  1  0.34377677  0.18834077  0.62078479  1
  In  In8  1  0.33544654  0.49018417  0.12583342  1
  In  In9  1  0.32041723  0.49308786  0.62229324  1
  In  In10  1  0.33027926  0.82356633  0.12585907  1
  In  In11  1  0.34242839  0.83192004  0.62226129  1
  In  In12  1  0.66557485  0.16865187  0.12975000  1
  In  In13  1  0.66566134  0.16805319  0.61751017  1
  In  In14  1  0.66602632  0.50100838  0.12184561  1
  In  In15  1  0.68351835  0.49391108  0.62698128  1
  In  In16  1  0.66278087  0.82907325  0.13759626  1
  In  In17  1  0.65315400  0.82837583  0.62430149  1
  In  In18  1  0.17591315  0.01284367  0.37766260  1
  In  In19  1  0.16297599  0.02504528  0.87555087  1
  In  In20  1  0.16400509  0.33783774  0.37663977  1
  In  In21  1  0.15886756  0.33584932  0.87302415  1
  In  In22  1  0.15515057  0.65110232  0.36496855  1
  In  In23  1  0.15727248  0.64914706  0.87757895  1
  In  In24  1  0.51548537  0.01163485  0.36513302  1
  In  In25  1  0.50853446  0.01097047  0.87868496  1
  In  In26  1  0.49352314  0.31770585  0.35787394  1
  In  In27  1  0.49951063  0.33835298  0.88138252  1
  In  In28  1  0.49975198  0.67312664  0.35468930  1
  In  In29  1  0.50899359  0.64729855  0.88560724  1
  In  In30  1  0.83428164  0.01658749  0.37553241  1
  In  In31  1  0.84390503  0.00536833  0.86768140  1
  In  In32  1  0.83517017  0.33347327  0.37081632  1
  In  In33  1  0.84393839  0.32655204  0.88493079  1
  In  In34  1  0.82104812  0.65106868  0.36719010  1
  In  In35  1  0.82191783  0.66296684  0.87774732  1
  In  In36  1  -0.00845057  0.17924672  0.38255021  1
  In  In37  1  -0.00370502  0.17642822  0.86910822  1
  In  In38  1  -0.00183219  0.49567441  0.37396697  1
  In  In39  1  0.01242844  0.47847924  0.88800458  1
  In  In40  1  0.01242623  0.82522605  0.37721390  1
  In  In41  1  -0.02163843  0.83892977  0.86860665  1
  In  In42  1  0.32635303  0.17786685  0.38067687  1
  In  In43  1  0.32846520  0.18021867  0.87985764  1
  In  In44  1  0.32478118  0.48753335  0.36598021  1
  In  In45  1  0.33428849  0.48681233  0.87949934  1
  In  In46  1  0.34582156  0.83227923  0.36922155  1
  In  In47  1  0.33502626  0.82720480  0.87978623  1
  In  In48  1  0.67112514  0.17116573  0.36762590  1
  In  In49  1  0.66533429  0.17070122  0.88425973  1
  In  In50  1  0.67364337  0.50124528  0.36750962  1
  In  In51  1  0.66276949  0.50677286  0.88910358  1
  In  In52  1  0.66039728  0.82890426  0.36204808  1
  In  In53  1  0.68657617  0.82360131  0.87441586  1
  In  In54  1  0.15454137  0.01237407  0.12408347  1
  In  In55  1  0.14724521  0.00792866  0.63350147  1
  In  In56  1  0.16676735  0.33375179  0.12634969  1
  In  In57  1  0.17003968  0.33747797  0.62528417  1
  In  In58  1  0.17794126  0.64352360  0.13327107  1
  In  In59  1  0.17015567  0.65972279  0.62067374  1
  In  In60  1  0.50241138  0.01965497  0.13332396  1
  In  In61  1  0.49173226  0.01237682  0.62594666  1
  In  In62  1  0.49926877  0.32865976  0.12921889  1
  In  In63  1  0.49643610  0.32007934  0.62664989  1
  In  In64  1  0.52463434  0.64013774  0.14012793  1
  In  In65  1  0.50331192  0.67461287  0.62525081  1
  In  In66  1  0.82075436  -0.00111626  0.12725467  1
  In  In67  1  0.83201134  0.01679161  0.62796810  1
  In  In68  1  0.83359476  0.33293935  0.12426238  1
  In  In69  1  0.83835795  0.33814037  0.61926593  1
  In  In70  1  0.83247175  0.66071945  0.12853671  1
  In  In71  1  0.83668474  0.64603922  0.62747085  1
  In  In72  1  0.83202313  0.83667639  0.00337072  1
  In  In73  1  -0.00683237  -0.00304726  0.25137487  1
  In  In74  1  0.67379843  0.00163837  0.74917475  1
  In  In75  1  0.49844593  0.83522952  0.00444851  1
  In  In76  1  -0.00573945  0.66202670  0.74832141  1
  In  In77  1  0.16420000  0.83531741  0.00052234  1
  In  In78  1  0.50219961  0.83973658  0.48577306  1
  In  In79  1  0.33045234  0.00838448  0.75554090  1
  In  In80  1  0.50357553  0.49786014  0.48528062  1
  In  In81  1  0.17242729  0.83674140  0.50522216  1
  In  In82  1  0.33040281  -0.00139666  0.25054161  1
  In  In83  1  0.82951513  0.83388944  0.49777777  1
  In  In84  1  0.33492332  0.65450782  0.76056061  1
  In  In85  1  0.67079814  0.33498266  0.75387469  1
  Cu  Cu86  1  0.51291030  0.82577407  0.75153512  1
  Cu  Cu87  1  0.83606838  0.49528374  0.24536690  1
  Cu  Cu88  1  -0.00481482  0.65284041  0.49479334  1
  Cu  Cu89  1  0.66630875  0.33454741  0.00666320  1
  Cu  Cu90  1  0.33195932  0.01408279  0.00457422  1
  Cu  Cu91  1  0.83351174  0.16902090  0.24838097  1
  Cu  Cu92  1  -0.00166543  0.33212822  0.00132215  1
  Cu  Cu93  1  0.66778883  0.01083263  0.49449659  1
  Cu  Cu94  1  0.83143621  0.50222762  0.75445009  1
  Cu  Cu95  1  0.16259378  0.82031666  0.24799021  1
  Cu  Cu96  1  0.33395283  0.65118960  0.00563757  1
  Cu  Cu97  1  0.67288475  0.65337852  0.49689027  1
  Cu  Cu98  1  -0.00019088  0.01198178  0.50374535  1
  Cu  Cu99  1  0.66568471  0.01031934  0.00461880  1
  Cu  Cu100  1  0.32542058  0.66093996  0.48956147  1
  Cu  Cu101  1  0.15911695  0.17528029  0.75051055  1
  Cu  Cu102  1  0.33248797  0.02004882  0.50235169  1
  Cu  Cu103  1  0.16647227  0.17440592  0.25079437  1
  Cu  Cu104  1  0.16833017  0.83060311  0.75154478  1
  Cu  Cu105  1  0.16384225  0.49516858  0.24937708  1
  Cu  Cu106  1  0.00498395  0.33447213  0.50063656  1
  Cu  Cu107  1  0.83319205  0.82562604  0.25133016  1
  Cu  Cu108  1  0.00322589  0.65919338  0.00595545  1
  Cu  Cu109  1  0.50384057  0.50277177  0.75725598  1
  Cu  Cu110  1  0.32995165  0.33265154  0.00120915  1
  Cu  Cu111  1  0.49910882  0.49715926  0.24634536  1
  Cu  Cu112  1  0.67052571  0.32622306  0.49557893  1
  Cu  Cu113  1  0.33272019  0.33616420  0.49441518  1
  Cu  Cu114  1  0.00309195  0.01565519  -0.00768597  1
  Se  Se115  1  0.08975448  0.09299015  0.04661852  1
  Se  Se116  1  0.08763817  0.09106715  0.55480127  1
  Se  Se117  1  0.08223694  0.41390662  0.05625111  1
  Se  Se118  1  0.08757955  0.41870318  0.55336533  1
  Se  Se119  1  0.08275740  0.74282914  0.06409010  1
  Se  Se120  1  0.07233004  0.73985122  0.55435597  1
  Se  Se121  1  0.42317056  0.08909978  0.05571260  1
  Se  Se122  1  0.42274993  0.09735510  0.55335766  1
  Se  Se123  1  0.41799757  0.40972788  0.05595537  1
  Se  Se124  1  0.41799245  0.41476078  0.55421358  1
  Se  Se125  1  0.41399413  0.73663099  0.05995827  1
  Se  Se126  1  0.41149153  0.74097126  0.54629658  1
  Se  Se127  1  0.75257871  0.08911114  0.05748829  1
  Se  Se128  1  0.75350512  0.08731985  0.55065664  1
  Se  Se129  1  0.75289557  0.41810296  0.05557050  1
  Se  Se130  1  0.74894282  0.41362613  0.54934595  1
  Se  Se131  1  0.74168763  0.74851317  0.06191789  1
  Se  Se132  1  0.74344505  0.73955744  0.55883632  1
  Se  Se133  1  0.24629584  0.24925511  0.05492131  1
  Se  Se134  1  0.25038560  0.25535584  0.55173381  1
  Se  Se135  1  0.24715003  0.56868476  0.05461030  1
  Se  Se136  1  0.24915735  0.58005858  0.54915313  1
  Se  Se137  1  0.25506808  0.92748331  0.06115029  1
  Se  Se138  1  0.25960077  0.93327216  0.56467213  1
  Se  Se139  1  0.58370416  0.24858006  0.05815449  1
  Se  Se140  1  0.58243960  0.25323848  0.55173668  1
  Se  Se141  1  0.58747304  0.58682946  0.05147179  1
  Se  Se142  1  0.58643801  0.58224280  0.55888202  1
  Se  Se143  1  0.58991241  0.92530748  0.06350157  1
  Se  Se144  1  0.58631884  0.92878893  0.55441686  1
  Se  Se145  1  0.91121544  0.24797736  0.05124044  1
  Se  Se146  1  0.91798019  0.25191539  0.55178903  1
  Se  Se147  1  0.91563252  0.58130743  0.05867033  1
  Se  Se148  1  0.91299549  0.57281829  0.55163468  1
  Se  Se149  1  0.92765049  0.93325718  0.05565457  1
  Se  Se150  1  0.92297335  0.92150887  0.55759529  1
  Se  Se151  1  0.08751605  0.25018261  0.44729704  1
  Se  Se152  1  0.07943377  0.25091820  0.94343827  1
  Se  Se153  1  0.08588414  0.57615411  0.44431860  1
  Se  Se154  1  0.08694828  0.57376644  0.95493640  1
  Se  Se155  1  0.07905689  0.92847972  0.44448936  1
  Se  Se156  1  0.07450367  0.92205609  0.93614101  1
  Se  Se157  1  0.42128679  0.25636493  0.44366242  1
  Se  Se158  1  0.41855671  0.25177484  0.94924313  1
  Se  Se159  1  0.41303562  0.59141374  0.42873964  1
  Se  Se160  1  0.41601601  0.57196689  0.94843720  1
  Se  Se161  1  0.40682853  0.93726589  0.43813206  1
  Se  Se162  1  0.40706308  0.92951972  0.94336238  1
  Se  Se163  1  0.75551564  0.24645526  0.44032212  1
  Se  Se164  1  0.74868892  0.25358784  0.95074134  1
  Se  Se165  1  0.75550622  0.56997996  0.44566029  1
  Se  Se166  1  0.74709865  0.59250328  0.95415235  1
  Se  Se167  1  0.73801854  0.92040900  0.43525619  1
  Se  Se168  1  0.74485933  0.93113365  0.94213125  1
  Se  Se169  1  0.24223923  0.09744375  0.45181588  1
  Se  Se170  1  0.24843269  0.09250860  0.94856154  1
  Se  Se171  1  0.24820402  0.42172017  0.44634052  1
  Se  Se172  1  0.24437212  0.41169965  0.94654937  1
  Se  Se173  1  0.24874311  0.74948936  0.43374324  1
  Se  Se174  1  0.25522283  0.73535339  0.94615027  1
  Se  Se175  1  0.58482992  0.09263980  0.44070620  1
  Se  Se176  1  0.57850060  0.09209044  0.95353880  1
  Se  Se177  1  0.59115693  0.40261439  0.43083464  1
  Se  Se178  1  0.58183743  0.41673213  0.95253294  1
  Se  Se179  1  0.59087820  0.73498081  0.43844917  1
  Se  Se180  1  0.59133412  0.75008626  0.94384060  1
  Se  Se181  1  0.91324904  0.08938078  0.44967826  1
  Se  Se182  1  0.91351260  0.09140827  0.93990378  1
  Se  Se183  1  0.91866218  0.41139422  0.44359003  1
  Se  Se184  1  0.91081557  0.42026094  0.95545497  1
  Se  Se185  1  0.91816387  0.73996281  0.43866938  1
  Se  Se186  1  0.92630939  0.74319834  0.94621904  1
  Se  Se187  1  0.24860037  0.25532852  0.30669592  1
  Se  Se188  1  0.24571787  0.25148096  0.80574606  1
  Se  Se189  1  0.25080438  0.58109101  0.29903512  1
  Se  Se190  1  0.23657782  0.56347792  0.80748204  1
  Se  Se191  1  0.23503605  0.90699887  0.30901341  1
  Se  Se192  1  0.24349904  0.91120591  0.81585062  1
  Se  Se193  1  0.59242038  0.25086576  0.29504194  1
  Se  Se194  1  0.57785151  0.24597224  0.81069589  1
  Se  Se195  1  0.58564377  0.57926853  0.29889276  1
  Se  Se196  1  0.59103839  0.58310046  0.80784211  1
  Se  Se197  1  0.56084129  0.90066871  0.30348819  1
  Se  Se198  1  0.58424934  0.91048697  0.81297923  1
  Se  Se199  1  0.92005261  0.24885294  0.30160824  1
  Se  Se200  1  0.91624498  0.26416210  0.80262299  1
  Se  Se201  1  0.91676279  0.57886454  0.30279108  1
  Se  Se202  1  0.91616045  0.57397797  0.81696676  1
  Se  Se203  1  0.90869098  0.90508138  0.31635698  1
  Se  Se204  1  0.90425461  0.91487730  0.79463998  1
  Se  Se205  1  0.08521425  0.08952682  0.30839285  1
  Se  Se206  1  0.07743236  0.08647135  0.80005259  1
  Se  Se207  1  0.08059256  0.41351773  0.30387929  1
  Se  Se208  1  0.07102872  0.41086971  0.80266810  1
  Se  Se209  1  0.07447474  0.74205770  0.29984148  1
  Se  Se210  1  0.08662083  0.75256625  0.81263782  1
  Se  Se211  1  0.41424824  0.09394609  0.30907288  1
  Se  Se212  1  0.42399221  0.09501540  0.81132084  1
  Se  Se213  1  0.41441085  0.41392119  0.29806784  1
  Se  Se214  1  0.42076239  0.41676735  0.80631341  1
  Se  Se215  1  0.40794726  0.75079536  0.29226164  1
  Se  Se216  1  0.42998153  0.75006290  0.81377222  1
  Se  Se217  1  0.75200098  0.08042754  0.29887607  1
  Se  Se218  1  0.75463306  0.09925519  0.80765235  1
  Se  Se219  1  0.75211978  0.41346448  0.29983649  1
  Se  Se220  1  0.75355989  0.42430661  0.81832828  1
  Se  Se221  1  0.74605204  0.74211782  0.30019956  1
  Se  Se222  1  0.77144010  0.75756359  0.80209769  1
  Se  Se223  1  0.24439728  0.09200384  0.19075944  1
  Se  Se224  1  0.24470021  0.09462883  0.69067296  1
  Se  Se225  1  0.24970368  0.41299179  0.19734037  1
  Se  Se226  1  0.26140674  0.40701816  0.69677348  1
  Se  Se227  1  0.25019737  0.74295882  0.19567424  1
  Se  Se228  1  0.25053171  0.75279493  0.69272339  1
  Se  Se229  1  0.59548804  0.08032242  0.20328891  1
  Se  Se230  1  0.57797969  0.09311245  0.69421799  1
  Se  Se231  1  0.58423915  0.41811928  0.19181714  1
  Se  Se232  1  0.57825631  0.42330028  0.69035417  1
  Se  Se233  1  0.57229922  0.75240603  0.20089649  1
  Se  Se234  1  0.59177106  0.73927970  0.69971212  1
  Se  Se235  1  0.91582579  0.09019975  0.18651035  1
  Se  Se236  1  0.92906831  0.07786536  0.69420375  1
  Se  Se237  1  0.91977161  0.41033122  0.19547813  1
  Se  Se238  1  0.90881813  0.42235610  0.69441175  1
  Se  Se239  1  0.91707606  0.74454329  0.19761171  1
  Se  Se240  1  0.90790905  0.75417313  0.68661648  1
  Se  Se241  1  0.08036458  0.25222759  0.19622312  1
  Se  Se242  1  0.08084323  0.25700152  0.69228474  1
  Se  Se243  1  0.07798647  0.58070775  0.19912486  1
  Se  Se244  1  0.09062866  0.57581102  0.69167623  1
  Se  Se245  1  0.08657173  0.90690890  0.18989465  1
  Se  Se246  1  0.08105346  0.91534107  0.70446924  1
  Se  Se247  1  0.41659934  0.25118236  0.20191111  1
  Se  Se248  1  0.41775704  0.25094724  0.70272670  1
  Se  Se249  1  0.41204060  0.57973874  0.19544852  1
  Se  Se250  1  0.42413955  0.57711779  0.68946216  1
  Se  Se251  1  0.41909673  0.91340127  0.18721607  1
  Se  Se252  1  0.42676629  0.90990560  0.69756301  1
  Se  Se253  1  0.75134616  0.25316191  0.19602729  1
  Se  Se254  1  0.75447247  0.24717655  0.68810169  1
  Se  Se255  1  0.74822516  0.57965953  0.19655663  1
  Se  Se256  1  0.74603652  0.58381414  0.70209771  1
  Se  Se257  1  0.75228961  0.91366310  0.20043649  1
  Se  Se258  1  0.75256583  0.90907328  0.68315865  1
