# generated using pymatgen
data_In86Cu29Se144
_symmetry_space_group_name_H-M   'P 1'
_cell_length_a   17.57444944
_cell_length_b   17.57113243
_cell_length_c   23.42470641
_cell_angle_alpha   89.97722344
_cell_angle_beta   90.02869954
_cell_angle_gamma   89.98586526
_symmetry_Int_Tables_number   1
_chemical_formula_structural   In86Cu29Se144
_chemical_formula_sum   'In86 Cu29 Se144'
_cell_volume   7233.61740879
_cell_formula_units_Z   1
loop_
 _symmetry_equiv_pos_site_id
 _symmetry_equiv_pos_as_xyz
  1  'x, y, z'
loop_
 _atom_site_type_symbol
 _atom_site_label
 _atom_site_symmetry_multiplicity
 _atom_site_fract_x
 _atom_site_fract_y
 _atom_site_fract_z
 _atom_site_occupancy
  In  In0  1  0.00413203  0.17522053  0.12821959  1
  In  In1  1  0.00885573  0.17371796  0.61191235  1
  In  In2  1  0.01921451  0.48987242  0.14506550  1
  In  In3  1  0.00115420  0.47641995  0.62336887  1
  In  In4  1  -0.01032973  0.85029381  0.14308478  1
  In  In5  1  0.00360288  0.83683558  0.61693502  1
  In  In6  1  0.34650194  0.17719373  0.11967766  1
  In  In7  1  0.33972356  0.17652752  0.61719678  1
  In  In8  1  0.32941884  0.47899560  0.12820341  1
  In  In9  1  0.33165052  0.49723460  0.62569383  1
  In  In10  1  0.32863234  0.82929859  0.12450697  1
  In  In11  1  0.31865745  0.82710701  0.62502957  1
  In  In12  1  0.66797385  0.16603951  0.12881703  1
  In  In13  1  0.66085666  0.15876795  0.61603710  1
  In  In14  1  0.65116187  0.49678650  0.12075085  1
  In  In15  1  0.66384209  0.50754676  0.62200751  1
  In  In16  1  0.68477382  0.83729117  0.12516938  1
  In  In17  1  0.68130262  0.83733526  0.61908897  1
  In  In18  1  0.15366634  0.00808884  0.37432822  1
  In  In19  1  0.17532717  0.01152249  0.87577062  1
  In  In20  1  0.16679427  0.33025529  0.36592300  1
  In  In21  1  0.16669495  0.32720605  0.86782564  1
  In  In22  1  0.15328514  0.67424031  0.38641132  1
  In  In23  1  0.17134454  0.65592644  0.87157442  1
  In  In24  1  0.52185533  0.01443366  0.37261768  1
  In  In25  1  0.51307538  -0.00178258  0.87302135  1
  In  In26  1  0.49685959  0.33086791  0.37788674  1
  In  In27  1  0.49043622  0.33763517  0.88160717  1
  In  In28  1  0.48737549  0.65893272  0.37827794  1
  In  In29  1  0.48807136  0.66107432  0.86836071  1
  In  In30  1  0.83069007  0.00239857  0.38115131  1
  In  In31  1  0.82934182  0.00647290  0.88281176  1
  In  In32  1  0.82636751  0.32157532  0.36820712  1
  In  In33  1  0.82803423  0.31875055  0.87356419  1
  In  In34  1  0.85063769  0.66718886  0.37789466  1
  In  In35  1  0.84585013  0.67117987  0.87965494  1
  In  In36  1  0.00584807  0.16008699  0.36626030  1
  In  In37  1  -0.00446404  0.17121122  0.88172713  1
  In  In38  1  0.01526189  0.50332020  0.35780371  1
  In  In39  1  0.01281364  0.49850327  0.87243863  1
  In  In40  1  -0.00035090  0.83336050  0.37557813  1
  In  In41  1  -0.00433982  0.82410777  0.88157587  1
  In  In42  1  0.31477535  0.18552402  0.38131621  1
  In  In43  1  0.32477283  0.17732493  0.88115636  1
  In  In44  1  0.33962906  0.48904446  0.38051619  1
  In  In45  1  0.34507654  0.49648472  0.86230746  1
  In  In46  1  0.32551150  0.82301566  0.38044377  1
  In  In47  1  0.33937038  0.83163432  0.86720591  1
  In  In48  1  0.66669950  0.16594834  0.38116546  1
  In  In49  1  0.67652901  0.15756735  0.88185743  1
  In  In50  1  0.66460016  0.48298716  0.37664684  1
  In  In51  1  0.65961172  0.48214532  0.87450228  1
  In  In52  1  0.67448702  0.85901759  0.37500153  1
  In  In53  1  0.66926692  0.85018804  0.87158417  1
  In  In54  1  0.13676062  0.01609942  0.14651718  1
  In  In55  1  0.16141051  -0.00539052  0.61355062  1
  In  In56  1  0.19285539  0.31525201  0.16032768  1
  In  In57  1  0.16552149  0.33263141  0.61926794  1
  In  In58  1  0.16046254  0.66010257  0.13441985  1
  In  In59  1  0.17903159  0.67121845  0.62011027  1
  In  In60  1  0.49633697  0.01939846  0.12855766  1
  In  In61  1  0.50174164  0.01531036  0.62239086  1
  In  In62  1  0.50276142  0.33296912  0.12646711  1
  In  In63  1  0.49283587  0.33139649  0.62510861  1
  In  In64  1  0.50719487  0.66047355  0.12067500  1
  In  In65  1  0.49284502  0.64744415  0.62313099  1
  In  In66  1  0.83416884  0.00473604  0.12762570  1
  In  In67  1  0.82476601  -0.00058027  0.61318679  1
  In  In68  1  0.84470898  0.31683416  0.13198216  1
  In  In69  1  0.85198623  0.32985244  0.62359223  1
  In  In70  1  0.83606994  0.67777067  0.12306935  1
  In  In71  1  0.82591142  0.67131030  0.62004081  1
  In  In72  1  0.32444416  0.66285868  0.24950686  1
  In  In73  1  0.66691431  0.66489662  0.74317983  1
  In  In74  1  0.50443511  0.83825767  -0.01082844  1
  In  In75  1  0.83403849  0.49640109  0.00263224  1
  In  In76  1  0.16308641  0.84243655  0.00522989  1
  In  In77  1  0.83681814  0.49493092  0.49760341  1
  In  In78  1  0.00073161  -0.00062301  0.73827532  1
  In  In79  1  0.00788904  0.66333732  0.75204552  1
  In  In80  1  0.32805638  0.00760480  0.26278847  1
  In  In81  1  0.66698150  0.32982155  0.74824642  1
  In  In82  1  0.33550376  0.00338408  0.74566414  1
  In  In83  1  0.66834084  0.66962375  0.24494072  1
  In  In84  1  0.50052994  0.83691229  0.49445291  1
  In  In85  1  0.16818840  0.49565726  0.00435856  1
  Cu  Cu86  1  0.66362768  0.66930717  0.49974458  1
  Cu  Cu87  1  0.32975684  0.33289397  0.50020174  1
  Cu  Cu88  1  0.66487120  0.66270816  0.00026751  1
  Cu  Cu89  1  -0.00301638  0.00166321  0.49436942  1
  Cu  Cu90  1  0.50374419  0.83180319  0.74872094  1
  Cu  Cu91  1  0.83571457  0.83938080  0.25376202  1
  Cu  Cu92  1  0.32439765  0.01075800  0.00320724  1
  Cu  Cu93  1  0.49996001  0.49000155  0.25210324  1
  Cu  Cu94  1  0.32797698  0.65626719  0.50048287  1
  Cu  Cu95  1  0.66304065  0.32393953  0.00201388  1
  Cu  Cu96  1  0.50405886  0.16839729  0.74763531  1
  Cu  Cu97  1  0.65867366  0.33037472  0.49944708  1
  Cu  Cu98  1  0.83440852  0.16218659  0.75353246  1
  Cu  Cu99  1  0.00476814  0.66481173  0.49696163  1
  Cu  Cu100  1  0.16435380  0.17212699  0.74359736  1
  Cu  Cu101  1  0.00342273  0.32902819  0.48887555  1
  Cu  Cu102  1  0.33478318  0.33186008  0.00398882  1
  Cu  Cu103  1  0.82696548  0.49677057  0.25470286  1
  Cu  Cu104  1  0.17146646  0.49305493  0.74665879  1
  Cu  Cu105  1  0.50004268  0.84595048  0.25259691  1
  Cu  Cu106  1  0.33436827  0.66144968  -0.00725741  1
  Cu  Cu107  1  0.33288917  0.00164509  0.49758797  1
  Cu  Cu108  1  0.50406325  0.17753074  0.25129082  1
  Cu  Cu109  1  0.66785499  0.00128590  0.00345265  1
  Cu  Cu110  1  0.83431272  0.84022210  0.74687027  1
  Cu  Cu111  1  0.00403778  0.33113055  0.00286732  1
  Cu  Cu112  1  -0.00464825  0.00413460  0.01078089  1
  Cu  Cu113  1  0.83267689  0.16022280  0.25121325  1
  Cu  Cu114  1  -0.00690891  0.67282966  0.00988437  1
  Se  Se115  1  0.08416516  0.08694083  0.05836640  1
  Se  Se116  1  0.08571505  0.08290862  0.54598091  1
  Se  Se117  1  0.08397131  0.40527995  0.06562214  1
  Se  Se118  1  0.08315713  0.41254005  0.54580045  1
  Se  Se119  1  0.07675937  0.75205730  0.06764702  1
  Se  Se120  1  0.08574576  0.74741031  0.55405076  1
  Se  Se121  1  0.41964786  0.08759279  0.04957104  1
  Se  Se122  1  0.41605317  0.08526973  0.54996687  1
  Se  Se123  1  0.41932334  0.41669519  0.05522600  1
  Se  Se124  1  0.41401517  0.41531070  0.55453794  1
  Se  Se125  1  0.41369867  0.74622527  0.05169378  1
  Se  Se126  1  0.41231494  0.74386495  0.55548579  1
  Se  Se127  1  0.75052139  0.08509653  0.05737948  1
  Se  Se128  1  0.76016141  0.09856086  0.54867831  1
  Se  Se129  1  0.74545707  0.40527175  0.06214936  1
  Se  Se130  1  0.74444651  0.40737240  0.56027941  1
  Se  Se131  1  0.74765073  0.74760026  0.05068924  1
  Se  Se132  1  0.75310594  0.75206451  0.54572316  1
  Se  Se133  1  0.24673514  0.26146852  0.06499791  1
  Se  Se134  1  0.24500620  0.24591772  0.54992835  1
  Se  Se135  1  0.25788365  0.59156512  0.06213681  1
  Se  Se136  1  0.24423604  0.57289446  0.55331015  1
  Se  Se137  1  0.25002940  0.93208733  0.06705750  1
  Se  Se138  1  0.25342070  0.91430021  0.55012410  1
  Se  Se139  1  0.58020627  0.24388990  0.05847754  1
  Se  Se140  1  0.57606465  0.24994817  0.55580599  1
  Se  Se141  1  0.57730004  0.57860688  0.04581638  1
  Se  Se142  1  0.58195393  0.58212337  0.54879326  1
  Se  Se143  1  0.58444467  0.92087059  0.06222268  1
  Se  Se144  1  0.58801217  0.92423996  0.55658653  1
  Se  Se145  1  0.91778463  0.24633915  0.05217300  1
  Se  Se146  1  0.91770316  0.25073806  0.54455215  1
  Se  Se147  1  0.92633235  0.57847868  0.06711556  1
  Se  Se148  1  0.92522731  0.58591421  0.56081214  1
  Se  Se149  1  0.91544438  0.91457271  0.06017329  1
  Se  Se150  1  0.91726428  0.91739756  0.55131788  1
  Se  Se151  1  0.08762473  0.24478584  0.43671640  1
  Se  Se152  1  0.08779340  0.25282128  0.94403752  1
  Se  Se153  1  0.07836678  0.57146358  0.44521624  1
  Se  Se154  1  0.07522918  0.59527138  0.94868412  1
  Se  Se155  1  0.08373001  0.91664205  0.44489098  1
  Se  Se156  1  0.07321914  0.93074911  0.94127282  1
  Se  Se157  1  0.41515182  0.24830632  0.44817558  1
  Se  Se158  1  0.41714399  0.24711462  0.95068297  1
  Se  Se159  1  0.41763609  0.57571156  0.45168994  1
  Se  Se160  1  0.41575963  0.57658315  0.94133602  1
  Se  Se161  1  0.41289953  0.92714529  0.43214131  1
  Se  Se162  1  0.40249419  0.93069598  0.93999311  1
  Se  Se163  1  0.74996550  0.25386920  0.44846838  1
  Se  Se164  1  0.75353424  0.24610747  0.95093929  1
  Se  Se165  1  0.74425908  0.58747728  0.43797055  1
  Se  Se166  1  0.74459314  0.58396464  0.93744657  1
  Se  Se167  1  0.75316225  0.91907358  0.45368505  1
  Se  Se168  1  0.74996242  0.91571008  0.94964701  1
  Se  Se169  1  0.24753355  0.08149983  0.44220778  1
  Se  Se170  1  0.24106815  0.09518234  0.95112647  1
  Se  Se171  1  0.24524260  0.40978129  0.44194998  1
  Se  Se172  1  0.25729839  0.41213056  0.93913780  1
  Se  Se173  1  0.24645220  0.74814106  0.45415414  1
  Se  Se174  1  0.25253405  0.74938301  0.94152281  1
  Se  Se175  1  0.58694858  0.08531479  0.45367827  1
  Se  Se176  1  0.58280050  0.08094457  0.94801007  1
  Se  Se177  1  0.57633386  0.41785808  0.44949153  1
  Se  Se178  1  0.58182680  0.41207508  0.95105151  1
  Se  Se179  1  0.58979115  0.74650626  0.43219122  1
  Se  Se180  1  0.59180244  0.74193000  0.93190916  1
  Se  Se181  1  0.91958176  0.09066219  0.44197961  1
  Se  Se182  1  0.91612158  0.08552371  0.94984785  1
  Se  Se183  1  0.92214759  0.41241177  0.43057455  1
  Se  Se184  1  0.92568163  0.41041807  0.94005227  1
  Se  Se185  1  0.91890877  0.75262829  0.45101534  1
  Se  Se186  1  0.91073551  0.75569204  0.95624790  1
  Se  Se187  1  0.25463022  0.25368713  0.29560432  1
  Se  Se188  1  0.25316058  0.24695384  0.79927099  1
  Se  Se189  1  0.24700553  0.58354791  0.32208279  1
  Se  Se190  1  0.25181567  0.57919149  0.80088896  1
  Se  Se191  1  0.24123650  0.90663453  0.31255236  1
  Se  Se192  1  0.24231889  0.91445879  0.80588185  1
  Se  Se193  1  0.58778041  0.25357556  0.31079407  1
  Se  Se194  1  0.58288074  0.24198681  0.81417217  1
  Se  Se195  1  0.57799330  0.57920952  0.30713585  1
  Se  Se196  1  0.58020136  0.57420038  0.80498186  1
  Se  Se197  1  0.58974386  0.92600858  0.29923873  1
  Se  Se198  1  0.58621547  0.91981235  0.79645330  1
  Se  Se199  1  0.91636499  0.24542733  0.30184556  1
  Se  Se200  1  0.91872004  0.24659568  0.80436805  1
  Se  Se201  1  0.91302205  0.58218131  0.30181688  1
  Se  Se202  1  0.91108612  0.57552234  0.80890972  1
  Se  Se203  1  0.91549737  0.92132017  0.31067315  1
  Se  Se204  1  0.91641056  0.91423296  0.80999398  1
  Se  Se205  1  0.08995250  0.08436355  0.29373175  1
  Se  Se206  1  0.08622387  0.08957507  0.80393499  1
  Se  Se207  1  0.06990770  0.39502155  0.29445555  1
  Se  Se208  1  0.08461804  0.41401513  0.80082389  1
  Se  Se209  1  0.07113641  0.73785490  0.30904198  1
  Se  Se210  1  0.09341338  0.75971615  0.81116444  1
  Se  Se211  1  0.42352123  0.09963679  0.31466671  1
  Se  Se212  1  0.42198617  0.08987840  0.81086808  1
  Se  Se213  1  0.41381970  0.41043078  0.30466636  1
  Se  Se214  1  0.42040956  0.40291328  0.79943261  1
  Se  Se215  1  0.42295800  0.75723459  0.30534475  1
  Se  Se216  1  0.41651924  0.74891665  0.79687479  1
  Se  Se217  1  0.74809728  0.08364493  0.30940688  1
  Se  Se218  1  0.75063349  0.07848421  0.80521248  1
  Se  Se219  1  0.74315997  0.41040263  0.30199135  1
  Se  Se220  1  0.76085800  0.42156591  0.80608299  1
  Se  Se221  1  0.75437755  0.75437085  0.31206134  1
  Se  Se222  1  0.75809594  0.75452108  0.80713430  1
  Se  Se223  1  0.25420874  0.09160358  0.18887835  1
  Se  Se224  1  0.24158002  0.08767022  0.68418078  1
  Se  Se225  1  0.22831125  0.44687711  0.20150788  1
  Se  Se226  1  0.25067061  0.40722263  0.69200098  1
  Se  Se227  1  0.23709505  0.76379174  0.19744017  1
  Se  Se228  1  0.25148378  0.74357236  0.69902264  1
  Se  Se229  1  0.58332444  0.08652912  0.20119827  1
  Se  Se230  1  0.58773553  0.08454858  0.69647199  1
  Se  Se231  1  0.58775595  0.41314464  0.19773686  1
  Se  Se232  1  0.57883294  0.42435846  0.69141618  1
  Se  Se233  1  0.57397523  0.76325680  0.18809101  1
  Se  Se234  1  0.57884691  0.75569194  0.68129517  1
  Se  Se235  1  0.92095303  0.08567788  0.19427325  1
  Se  Se236  1  0.91125508  0.09256146  0.68340334  1
  Se  Se237  1  0.90955826  0.41841305  0.19639240  1
  Se  Se238  1  0.91555060  0.41473463  0.69866770  1
  Se  Se239  1  0.91201103  0.74870731  0.20069251  1
  Se  Se240  1  0.91420882  0.75508775  0.69123420  1
  Se  Se241  1  0.06537492  0.27082237  0.20247203  1
  Se  Se242  1  0.07838192  0.25258930  0.68999340  1
  Se  Se243  1  0.07653763  0.59512114  0.20895271  1
  Se  Se244  1  0.08953624  0.57331879  0.68665982  1
  Se  Se245  1  0.08490385  0.91286455  0.21193990  1
  Se  Se246  1  0.09712346  0.90362111  0.69208158  1
  Se  Se247  1  0.41638575  0.25595656  0.19779161  1
  Se  Se248  1  0.41536251  0.24700088  0.69678956  1
  Se  Se249  1  0.42412964  0.57649052  0.19157664  1
  Se  Se250  1  0.41017081  0.58151370  0.69685455  1
  Se  Se251  1  0.41471315  0.91798260  0.19144196  1
  Se  Se252  1  0.42388793  0.91070147  0.68485719  1
  Se  Se253  1  0.74953790  0.24787957  0.19931913  1
  Se  Se254  1  0.75766907  0.24184432  0.68805123  1
  Se  Se255  1  0.75458284  0.57521395  0.18570944  1
  Se  Se256  1  0.76492798  0.57255720  0.69190647  1
  Se  Se257  1  0.75159156  0.92146795  0.19956099  1
  Se  Se258  1  0.75217253  0.92220151  0.69276857  1
