# generated using pymatgen
data_In86Cu29Se144
_symmetry_space_group_name_H-M   'P 1'
_cell_length_a   17.59613759
_cell_length_b   17.59338452
_cell_length_c   23.45498726
_cell_angle_alpha   90.00773435
_cell_angle_beta   89.97548403
_cell_angle_gamma   90.00127542
_symmetry_Int_Tables_number   1
_chemical_formula_structural   In86Cu29Se144
_chemical_formula_sum   'In86 Cu29 Se144'
_cell_volume   7261.09136258
_cell_formula_units_Z   1
loop_
 _symmetry_equiv_pos_site_id
 _symmetry_equiv_pos_as_xyz
  1  'x, y, z'
loop_
 _atom_site_type_symbol
 _atom_site_label
 _atom_site_symmetry_multiplicity
 _atom_site_fract_x
 _atom_site_fract_y
 _atom_site_fract_z
 _atom_site_occupancy
  In  In0  1  -0.00916708  0.16741522  0.12764211  1
  In  In1  1  0.00739077  0.15625842  0.62835572  1
  In  In2  1  -0.00424583  0.51372080  0.12662617  1
  In  In3  1  0.01154997  0.50915432  0.61671802  1
  In  In4  1  -0.00415735  0.83954422  0.12967434  1
  In  In5  1  0.00452559  0.83276591  0.63198801  1
  In  In6  1  0.33910302  0.16265459  0.13477447  1
  In  In7  1  0.31761699  0.17997929  0.62905559  1
  In  In8  1  0.35230451  0.48461783  0.14270247  1
  In  In9  1  0.32532580  0.50093073  0.62772753  1
  In  In10  1  0.33663785  0.82975790  0.13112878  1
  In  In11  1  0.34297173  0.82112376  0.62608624  1
  In  In12  1  0.67352570  0.16178696  0.13223409  1
  In  In13  1  0.66691353  0.17370355  0.62367812  1
  In  In14  1  0.67053386  0.49996752  0.12411517  1
  In  In15  1  0.68003619  0.50298080  0.62053419  1
  In  In16  1  0.67630622  0.82262844  0.12955591  1
  In  In17  1  0.64859859  0.82577640  0.62183873  1
  In  In18  1  0.18165984  0.01425967  0.36183912  1
  In  In19  1  0.16578237  0.00275693  0.86848306  1
  In  In20  1  0.18420410  0.32812539  0.39514985  1
  In  In21  1  0.17193730  0.33801163  0.86776617  1
  In  In22  1  0.16211864  0.66260585  0.37560150  1
  In  In23  1  0.17224913  0.67122174  0.86161910  1
  In  In24  1  0.48725169  -0.00689365  0.36724950  1
  In  In25  1  0.49012341  0.00197765  0.87649925  1
  In  In26  1  0.49201116  0.33623866  0.35925856  1
  In  In27  1  0.49987304  0.34865180  0.87867282  1
  In  In28  1  0.51119591  0.66343951  0.36295799  1
  In  In29  1  0.49104887  0.65543243  0.86899556  1
  In  In30  1  0.83700020  0.00335584  0.36430946  1
  In  In31  1  0.83817927  -0.00917488  0.88671898  1
  In  In32  1  0.83387396  0.34887831  0.37032928  1
  In  In33  1  0.81746077  0.34594670  0.89833959  1
  In  In34  1  0.82894648  0.66147176  0.36673116  1
  In  In35  1  0.82987978  0.66955773  0.87557358  1
  In  In36  1  0.02309170  0.16676970  0.36979720  1
  In  In37  1  -0.00367179  0.15945676  0.87656141  1
  In  In38  1  -0.00481211  0.50729855  0.37977966  1
  In  In39  1  -0.01077567  0.49984372  0.87282980  1
  In  In40  1  0.00192167  0.83537784  0.36885567  1
  In  In41  1  -0.00756216  0.82721981  0.86855672  1
  In  In42  1  0.32675716  0.17332058  0.37049075  1
  In  In43  1  0.32873434  0.16253895  0.86919565  1
  In  In44  1  0.32805924  0.49594477  0.37087403  1
  In  In45  1  0.33929929  0.50912616  0.86750335  1
  In  In46  1  0.33846098  0.83354440  0.37604928  1
  In  In47  1  0.33035176  0.82892698  0.87066517  1
  In  In48  1  0.66377941  0.16889071  0.36228583  1
  In  In49  1  0.66913641  0.17913634  0.88375713  1
  In  In50  1  0.66830411  0.50996175  0.36019357  1
  In  In51  1  0.65613958  0.50625878  0.88348263  1
  In  In52  1  0.65635739  0.82645931  0.36343694  1
  In  In53  1  0.67991400  0.83390666  0.87938647  1
  In  In54  1  0.17677525  -0.00402430  0.13821180  1
  In  In55  1  0.16299786  0.00768268  0.62650320  1
  In  In56  1  0.17197168  0.32988797  0.13480649  1
  In  In57  1  0.18986046  0.34970180  0.60150943  1
  In  In58  1  0.17116258  0.65736926  0.13551974  1
  In  In59  1  0.18548051  0.64151076  0.64220652  1
  In  In60  1  0.49575213  0.00636548  0.13286799  1
  In  In61  1  0.49667390  -0.02045419  0.61670432  1
  In  In62  1  0.50423948  0.34567566  0.13364620  1
  In  In63  1  0.49142322  0.32580878  0.62253215  1
  In  In64  1  0.51664608  0.64604376  0.14236910  1
  In  In65  1  0.48611262  0.67443944  0.62761636  1
  In  In66  1  0.83541636  -0.00492955  0.12573758  1
  In  In67  1  0.84198833  0.00915105  0.63195198  1
  In  In68  1  0.81914855  0.32369427  0.11166050  1
  In  In69  1  0.82144953  0.34236996  0.62426561  1
  In  In70  1  0.83375115  0.66773286  0.12096371  1
  In  In71  1  0.84380176  0.66039178  0.63434086  1
  In  In72  1  0.16677106  0.82951925  0.50295962  1
  In  In73  1  0.49738889  0.50177767  0.49373553  1
  In  In74  1  0.00261713  0.33351951  0.75310235  1
  In  In75  1  0.16284362  0.50333541  -0.00202002  1
  In  In76  1  0.83458473  0.82880164  0.50294539  1
  In  In77  1  0.50007384  0.82840787  0.00239652  1
  In  In78  1  0.16590450  0.83082284  0.00464442  1
  In  In79  1  0.49126387  0.16219580  0.48654087  1
  In  In80  1  0.50367487  0.17021281  0.01097785  1
  In  In81  1  0.16219673  0.16579362  -0.00268483  1
  In  In82  1  0.66385601  -0.00252769  0.75037142  1
  In  In83  1  0.65995363  0.33698572  0.76105567  1
  In  In84  1  0.83659692  0.16753338  0.50602344  1
  In  In85  1  0.00228329  0.33329067  0.25101957  1
  Cu  Cu86  1  0.66812007  -0.01104550  0.49400374  1
  Cu  Cu87  1  0.83088879  0.82875588  0.24672798  1
  Cu  Cu88  1  -0.00740344  0.67160420  -0.00215436  1
  Cu  Cu89  1  0.83365168  0.16519828  0.24442049  1
  Cu  Cu90  1  0.49543164  0.82668637  0.74847115  1
  Cu  Cu91  1  0.50297293  0.17449227  0.24853126  1
  Cu  Cu92  1  0.49901940  0.49662084  0.74786416  1
  Cu  Cu93  1  0.66991338  0.00148132  0.00826637  1
  Cu  Cu94  1  0.66861822  0.33839832  0.49271106  1
  Cu  Cu95  1  0.16623884  0.82967951  0.25646078  1
  Cu  Cu96  1  0.48870827  0.15716203  0.74712533  1
  Cu  Cu97  1  -0.00034493  0.66000545  0.50349324  1
  Cu  Cu98  1  0.34205304  0.65405138  0.00152409  1
  Cu  Cu99  1  0.33116197  0.00213494  0.49498316  1
  Cu  Cu100  1  0.00926594  0.00343106  0.49735447  1
  Cu  Cu101  1  0.83788346  0.16643900  0.75952460  1
  Cu  Cu102  1  0.49953818  0.83964507  0.24908974  1
  Cu  Cu103  1  0.16492619  0.84201790  0.74599443  1
  Cu  Cu104  1  0.16899796  0.17042152  0.74875615  1
  Cu  Cu105  1  0.83653662  0.51012619  0.75042898  1
  Cu  Cu106  1  -0.00387972  0.33634250  0.49399241  1
  Cu  Cu107  1  0.66688997  0.66476982  0.00526687  1
  Cu  Cu108  1  0.16508452  0.49814576  0.25572874  1
  Cu  Cu109  1  0.83201963  0.83670270  0.75590240  1
  Cu  Cu110  1  0.34024062  0.33584592  0.00567616  1
  Cu  Cu111  1  -0.00225106  -0.00201718  0.00284416  1
  Cu  Cu112  1  -0.00379286  0.33822546  0.00376951  1
  Cu  Cu113  1  0.83268472  0.50125416  0.24508356  1
  Cu  Cu114  1  0.66748141  0.66183308  0.49107430  1
  Se  Se115  1  0.08151682  0.07386225  0.06290740  1
  Se  Se116  1  0.08869529  0.08856526  0.55101046  1
  Se  Se117  1  0.08101623  0.41037156  0.06455738  1
  Se  Se118  1  0.08153134  0.41857049  0.54718008  1
  Se  Se119  1  0.07890454  0.73712074  0.06259840  1
  Se  Se120  1  0.07858578  0.74039925  0.56359943  1
  Se  Se121  1  0.40648511  0.07469255  0.05606781  1
  Se  Se122  1  0.41129628  0.08039289  0.55965391  1
  Se  Se123  1  0.42208963  0.42000581  0.05768334  1
  Se  Se124  1  0.41031360  0.41139761  0.55499790  1
  Se  Se125  1  0.41656712  0.73628533  0.06379849  1
  Se  Se126  1  0.42301937  0.75415924  0.54925008  1
  Se  Se127  1  0.75422689  0.08455925  0.05916422  1
  Se  Se128  1  0.74002559  0.07016007  0.55836634  1
  Se  Se129  1  0.75771025  0.42853716  0.05202190  1
  Se  Se130  1  0.75223585  0.41968348  0.54614098  1
  Se  Se131  1  0.75173784  0.75237286  0.05088517  1
  Se  Se132  1  0.74308361  0.73809009  0.55947284  1
  Se  Se133  1  0.25651744  0.25293758  0.05892240  1
  Se  Se134  1  0.25084465  0.24124162  0.54384808  1
  Se  Se135  1  0.25757888  0.57904305  0.06260871  1
  Se  Se136  1  0.25006798  0.58342007  0.55498944  1
  Se  Se137  1  0.25827550  0.92101650  0.05962502  1
  Se  Se138  1  0.25702564  0.92268955  0.56087135  1
  Se  Se139  1  0.59425827  0.26016559  0.06617290  1
  Se  Se140  1  0.58770564  0.25444613  0.54861986  1
  Se  Se141  1  0.58111395  0.58174106  0.05573650  1
  Se  Se142  1  0.58748271  0.58817170  0.55739798  1
  Se  Se143  1  0.58565666  0.92124458  0.06438946  1
  Se  Se144  1  0.58185167  0.90732954  0.54455992  1
  Se  Se145  1  0.91897956  0.24628579  0.05253390  1
  Se  Se146  1  0.92491534  0.26066306  0.56502250  1
  Se  Se147  1  0.91484485  0.58268144  0.05045194  1
  Se  Se148  1  0.90942276  0.58116906  0.55486776  1
  Se  Se149  1  0.91565642  0.91130768  0.05388371  1
  Se  Se150  1  0.92547003  0.92724225  0.55721735  1
  Se  Se151  1  0.08175224  0.24809028  0.44983388  1
  Se  Se152  1  0.07644456  0.26394275  0.93926050  1
  Se  Se153  1  0.08524234  0.58118550  0.44902496  1
  Se  Se154  1  0.07780323  0.59680349  0.93688328  1
  Se  Se155  1  0.08655057  0.92202683  0.43752377  1
  Se  Se156  1  0.07882458  0.92051512  0.94106903  1
  Se  Se157  1  0.40852102  0.26691321  0.43908262  1
  Se  Se158  1  0.41192239  0.25129535  0.94209174  1
  Se  Se159  1  0.41359406  0.59330515  0.43359082  1
  Se  Se160  1  0.42316997  0.57239782  0.94599543  1
  Se  Se161  1  0.41789707  0.91807258  0.44718450  1
  Se  Se162  1  0.40580174  0.91743184  0.94535423  1
  Se  Se163  1  0.74838167  0.25038573  0.43834321  1
  Se  Se164  1  0.75809120  0.23839147  0.95689955  1
  Se  Se165  1  0.74944815  0.57921493  0.43796548  1
  Se  Se166  1  0.74917057  0.58583121  0.94556656  1
  Se  Se167  1  0.75216983  0.91518386  0.43459398  1
  Se  Se168  1  0.74980956  0.91465615  0.95497496  1
  Se  Se169  1  0.25045611  0.08733536  0.44293402  1
  Se  Se170  1  0.25586544  0.07384626  0.94415330  1
  Se  Se171  1  0.24719352  0.43529406  0.45190985  1
  Se  Se172  1  0.25824796  0.41163553  0.94314605  1
  Se  Se173  1  0.25660034  0.74230401  0.44307664  1
  Se  Se174  1  0.25736413  0.73607391  0.94589098  1
  Se  Se175  1  0.59240448  0.07437700  0.43577350  1
  Se  Se176  1  0.58804643  0.07472176  0.94475408  1
  Se  Se177  1  0.58699684  0.41292447  0.43166918  1
  Se  Se178  1  0.60791068  0.39202948  0.94315902  1
  Se  Se179  1  0.58516514  0.74559232  0.43903963  1
  Se  Se180  1  0.58746350  0.74057911  0.93886919  1
  Se  Se181  1  0.92237209  0.08120159  0.44051197  1
  Se  Se182  1  0.91639466  0.08467032  0.95053490  1
  Se  Se183  1  0.91057169  0.42107481  0.44660121  1
  Se  Se184  1  0.91802625  0.42720248  0.95228571  1
  Se  Se185  1  0.92412140  0.74232216  0.44093439  1
  Se  Se186  1  0.91187229  0.75646254  0.94448713  1
  Se  Se187  1  0.23756711  0.25667240  0.30850349  1
  Se  Se188  1  0.25305585  0.25254368  0.80216696  1
  Se  Se189  1  0.24757871  0.58623950  0.30481222  1
  Se  Se190  1  0.25067917  0.58127173  0.79955505  1
  Se  Se191  1  0.25543531  0.91244636  0.30484073  1
  Se  Se192  1  0.25033400  0.91702479  0.80444732  1
  Se  Se193  1  0.58865769  0.26041259  0.29692679  1
  Se  Se194  1  0.56827470  0.23628009  0.81011934  1
  Se  Se195  1  0.57003903  0.56736433  0.28961913  1
  Se  Se196  1  0.58308824  0.57748579  0.80333950  1
  Se  Se197  1  0.58449694  0.92479307  0.30047912  1
  Se  Se198  1  0.57415895  0.90642572  0.81151085  1
  Se  Se199  1  0.91095851  0.24112764  0.31189494  1
  Se  Se200  1  0.90564368  0.25722630  0.81935246  1
  Se  Se201  1  0.91770072  0.57984986  0.30149166  1
  Se  Se202  1  0.91827446  0.59212958  0.80519560  1
  Se  Se203  1  0.91511309  0.91231105  0.30039181  1
  Se  Se204  1  0.91424319  0.92396602  0.80594500  1
  Se  Se205  1  0.06689749  0.06166510  0.30261921  1
  Se  Se206  1  0.08349955  0.09090002  0.80391245  1
  Se  Se207  1  0.08669293  0.41778089  0.31720013  1
  Se  Se208  1  0.09187960  0.43341999  0.80535787  1
  Se  Se209  1  0.08039804  0.74451358  0.30491865  1
  Se  Se210  1  0.08407176  0.75656097  0.80034294  1
  Se  Se211  1  0.41885019  0.09481971  0.30573413  1
  Se  Se212  1  0.40899696  0.07393830  0.80236809  1
  Se  Se213  1  0.41149422  0.42433492  0.29675547  1
  Se  Se214  1  0.41686843  0.41410710  0.80258364  1
  Se  Se215  1  0.42146655  0.75421532  0.30505057  1
  Se  Se216  1  0.41179657  0.74442152  0.80338574  1
  Se  Se217  1  0.74876335  0.08272735  0.29848524  1
  Se  Se218  1  0.75029176  0.08688341  0.81423103  1
  Se  Se219  1  0.74918156  0.41651122  0.29675807  1
  Se  Se220  1  0.75874698  0.42640814  0.81117694  1
  Se  Se221  1  0.74660392  0.74529173  0.29968076  1
  Se  Se222  1  0.74644164  0.75086638  0.80364828  1
  Se  Se223  1  0.25254299  0.08695193  0.20183788  1
  Se  Se224  1  0.25099786  0.08319829  0.69661030  1
  Se  Se225  1  0.24911910  0.41435122  0.20305668  1
  Se  Se226  1  0.24703834  0.40831918  0.69128104  1
  Se  Se227  1  0.24830101  0.75120140  0.19801829  1
  Se  Se228  1  0.24813522  0.75510548  0.69541259  1
  Se  Se229  1  0.58381274  0.08485410  0.19893173  1
  Se  Se230  1  0.57531429  0.08671351  0.68599960  1
  Se  Se231  1  0.57393332  0.44337979  0.19961276  1
  Se  Se232  1  0.58036580  0.41886887  0.68581435  1
  Se  Se233  1  0.58401383  0.75357413  0.19884640  1
  Se  Se234  1  0.58125991  0.74365536  0.69771610  1
  Se  Se235  1  0.91778741  0.07857865  0.19638351  1
  Se  Se236  1  0.92113772  0.08723557  0.70364536  1
  Se  Se237  1  0.91144231  0.41590171  0.18645422  1
  Se  Se238  1  0.91119961  0.42330049  0.69110762  1
  Se  Se239  1  0.91656872  0.74733826  0.19314353  1
  Se  Se240  1  0.91538337  0.75610602  0.69894490  1
  Se  Se241  1  0.09101512  0.23450605  0.19667982  1
  Se  Se242  1  0.09162042  0.25210930  0.68738960  1
  Se  Se243  1  0.08075464  0.57985359  0.20193551  1
  Se  Se244  1  0.06837149  0.59148346  0.69622334  1
  Se  Se245  1  0.08640127  0.91176189  0.19838089  1
  Se  Se246  1  0.07952711  0.92658337  0.69613922  1
  Se  Se247  1  0.41830079  0.25670565  0.19577590  1
  Se  Se248  1  0.41363832  0.25022911  0.69645949  1
  Se  Se249  1  0.38962786  0.61046952  0.19032143  1
  Se  Se250  1  0.41578077  0.57939840  0.69380975  1
  Se  Se251  1  0.41221503  0.92110828  0.19816665  1
  Se  Se252  1  0.41680670  0.91444402  0.69514970  1
  Se  Se253  1  0.75274297  0.25546542  0.19645728  1
  Se  Se254  1  0.75573844  0.24498659  0.69942726  1
  Se  Se255  1  0.75169458  0.58762316  0.19203416  1
  Se  Se256  1  0.74554543  0.58585911  0.69759372  1
  Se  Se257  1  0.74921725  0.91672740  0.19576174  1
  Se  Se258  1  0.75333003  0.90869726  0.68700457  1
