# generated using pymatgen
data_In86Cu29Se144
_symmetry_space_group_name_H-M   'P 1'
_cell_length_a   17.58170151
_cell_length_b   17.57252659
_cell_length_c   23.43762789
_cell_angle_alpha   89.98821700
_cell_angle_beta   89.98702280
_cell_angle_gamma   90.01390724
_symmetry_Int_Tables_number   1
_chemical_formula_structural   In86Cu29Se144
_chemical_formula_sum   'In86 Cu29 Se144'
_cell_volume   7241.16983763
_cell_formula_units_Z   1
loop_
 _symmetry_equiv_pos_site_id
 _symmetry_equiv_pos_as_xyz
  1  'x, y, z'
loop_
 _atom_site_type_symbol
 _atom_site_label
 _atom_site_symmetry_multiplicity
 _atom_site_fract_x
 _atom_site_fract_y
 _atom_site_fract_z
 _atom_site_occupancy
  In  In0  1  -0.00828430  0.15379011  0.12846731  1
  In  In1  1  -0.01412337  0.15076255  0.61588756  1
  In  In2  1  -0.00222543  0.51487207  0.12240269  1
  In  In3  1  -0.02387237  0.49917753  0.62049787  1
  In  In4  1  0.00801757  0.85039543  0.11651196  1
  In  In5  1  0.00784746  0.84550865  0.62569881  1
  In  In6  1  0.32272918  0.16456196  0.13528465  1
  In  In7  1  0.32853646  0.16349457  0.62225182  1
  In  In8  1  0.32736043  0.48850211  0.12439249  1
  In  In9  1  0.33802356  0.50214934  0.63077159  1
  In  In10  1  0.33693868  0.84577034  0.12063997  1
  In  In11  1  0.33758116  0.83864789  0.63199769  1
  In  In12  1  0.70343110  0.13954294  0.15796304  1
  In  In13  1  0.67343078  0.16523214  0.60183207  1
  In  In14  1  0.66677771  0.48062363  0.12964048  1
  In  In15  1  0.68179765  0.49767154  0.62517055  1
  In  In16  1  0.67364293  0.84173261  0.11664643  1
  In  In17  1  0.65747063  0.83767198  0.61739243  1
  In  In18  1  0.18875440  0.02665122  0.34540529  1
  In  In19  1  0.16527632  0.00141916  0.87850851  1
  In  In20  1  0.16221017  0.30410930  0.36800626  1
  In  In21  1  0.16680421  0.32019774  0.87588640  1
  In  In22  1  0.15652614  0.67323832  0.37420579  1
  In  In23  1  0.18247556  0.67168516  0.87415167  1
  In  In24  1  0.50423047  0.00057524  0.38099347  1
  In  In25  1  0.48240412  0.00300854  0.87488770  1
  In  In26  1  0.49097799  0.32018079  0.37430156  1
  In  In27  1  0.49832359  0.34297326  0.87214976  1
  In  In28  1  0.51169091  0.67483768  0.37944766  1
  In  In29  1  0.51060823  0.67435900  0.86716901  1
  In  In30  1  0.83061214  -0.00119205  0.37415956  1
  In  In31  1  0.83531269  -0.00028418  0.87665183  1
  In  In32  1  0.81740180  0.32884005  0.38332417  1
  In  In33  1  0.84056072  0.32597527  0.88507721  1
  In  In34  1  0.83130273  0.69133973  0.38775923  1
  In  In35  1  0.82636171  0.67069831  0.87498912  1
  In  In36  1  0.00254522  0.15294832  0.37688576  1
  In  In37  1  0.00511774  0.16337605  0.88071368  1
  In  In38  1  -0.01250180  0.49708295  0.37792411  1
  In  In39  1  -0.00610306  0.48708631  0.87897160  1
  In  In40  1  -0.00631943  0.84963819  0.37093822  1
  In  In41  1  -0.01048296  0.84847566  0.87995402  1
  In  In42  1  0.33651165  0.16547285  0.37593696  1
  In  In43  1  0.32271288  0.15452276  0.86482247  1
  In  In44  1  0.34275359  0.49182693  0.37616128  1
  In  In45  1  0.33268663  0.50227716  0.86608056  1
  In  In46  1  0.32565350  0.85684963  0.37257595  1
  In  In47  1  0.33306012  0.83774497  0.87893532  1
  In  In48  1  0.66601648  0.15517225  0.38327488  1
  In  In49  1  0.67202087  0.17279616  0.87563129  1
  In  In50  1  0.68217857  0.50230075  0.37819918  1
  In  In51  1  0.66296242  0.50526266  0.87367315  1
  In  In52  1  0.65854090  0.85285076  0.39557030  1
  In  In53  1  0.67579786  0.82898653  0.88089579  1
  In  In54  1  0.16277926  -0.00111347  0.12934058  1
  In  In55  1  0.15503414  0.00599598  0.63170617  1
  In  In56  1  0.17894740  0.32540621  0.13101065  1
  In  In57  1  0.17756579  0.32870645  0.62490589  1
  In  In58  1  0.15478776  0.67302718  0.12186695  1
  In  In59  1  0.17250424  0.68119635  0.63175893  1
  In  In60  1  0.50781495  -0.00169853  0.12995678  1
  In  In61  1  0.49760789  -0.00473171  0.61473084  1
  In  In62  1  0.50976923  0.31447129  0.13487767  1
  In  In63  1  0.49899574  0.31797192  0.61701571  1
  In  In64  1  0.49549045  0.67589543  0.12236518  1
  In  In65  1  0.49291736  0.68047167  0.63329800  1
  In  In66  1  0.83688441  -0.00203757  0.12649901  1
  In  In67  1  0.84503625  0.00668783  0.61602330  1
  In  In68  1  0.82691898  0.31945267  0.12294755  1
  In  In69  1  0.82008761  0.32938716  0.60811247  1
  In  In70  1  0.83700788  0.67343514  0.11488753  1
  In  In71  1  0.82545979  0.65708576  0.62118344  1
  In  In72  1  -0.00047540  0.67727949  0.25468291  1
  In  In73  1  0.16158253  0.49290556  0.50344765  1
  In  In74  1  0.15712020  0.84062971  0.49765389  1
  In  In75  1  -0.00541287  0.32526157  0.25290499  1
  In  In76  1  0.16347763  0.50389433  -0.00101442  1
  In  In77  1  0.33630799  0.66823208  0.24077222  1
  In  In78  1  0.00270833  0.32539447  0.75508626  1
  In  In79  1  0.50397192  0.50179188  -0.00017431  1
  In  In80  1  0.00240760  0.67020560  0.74712517  1
  In  In81  1  0.66987078  0.66528991  0.25517104  1
  In  In82  1  0.66218597  0.00160309  0.74331961  1
  In  In83  1  0.66672570  0.32916488  0.73526829  1
  In  In84  1  0.50305707  0.16472306  0.00132192  1
  In  In85  1  0.50347372  0.50014317  0.50148281  1
  Cu  Cu86  1  0.17263848  0.84058790  0.75474366  1
  Cu  Cu87  1  0.82636508  0.49576804  0.74931486  1
  Cu  Cu88  1  0.33403131  0.32397102  0.00234779  1
  Cu  Cu89  1  0.66456555  0.67313101  0.50391884  1
  Cu  Cu90  1  0.83111099  0.84548604  0.24893161  1
  Cu  Cu91  1  0.17516637  0.49297043  0.25509044  1
  Cu  Cu92  1  0.66882680  -0.00144025  0.00742177  1
  Cu  Cu93  1  -0.00701013  0.67477376  -0.00350505  1
  Cu  Cu94  1  0.66829898  0.66656838  -0.00589486  1
  Cu  Cu95  1  0.49781918  0.83813600  0.75166881  1
  Cu  Cu96  1  0.33765016  0.67807250  -0.00156866  1
  Cu  Cu97  1  0.49634456  0.50498967  0.74925424  1
  Cu  Cu98  1  0.67968644  0.32405004  0.00810785  1
  Cu  Cu99  1  0.83370903  0.49757723  0.25118508  1
  Cu  Cu100  1  -0.00112150  0.33053459  0.00434822  1
  Cu  Cu101  1  -0.00617473  0.32573367  0.49292464  1
  Cu  Cu102  1  -0.00129726  0.00135306  0.00217082  1
  Cu  Cu103  1  0.32742173  0.31972930  0.49528187  1
  Cu  Cu104  1  0.32464760  0.00136286  0.00004345  1
  Cu  Cu105  1  0.49335804  0.16685218  0.74224146  1
  Cu  Cu106  1  0.33066146  0.00511194  0.49657178  1
  Cu  Cu107  1  0.33538863  0.67872971  0.50754179  1
  Cu  Cu108  1  0.16972277  0.16454834  0.75055969  1
  Cu  Cu109  1  0.49980508  0.48363840  0.25181610  1
  Cu  Cu110  1  0.00499301  0.00174434  0.49492707  1
  Cu  Cu111  1  0.82969037  0.83389753  0.75427096  1
  Cu  Cu112  1  0.49806721  0.16173149  0.25666658  1
  Cu  Cu113  1  0.50227638  0.83749330  0.25421707  1
  Cu  Cu114  1  0.17257744  0.50472892  0.74529459  1
  Se  Se115  1  0.08180438  0.08259734  0.05798139  1
  Se  Se116  1  0.08750977  0.08341671  0.55187528  1
  Se  Se117  1  0.08101123  0.41114381  0.06414433  1
  Se  Se118  1  0.06848408  0.40242907  0.56187971  1
  Se  Se119  1  0.07979539  0.75352335  0.04989330  1
  Se  Se120  1  0.07760220  0.74137639  0.55899288  1
  Se  Se121  1  0.40957100  0.07849925  0.06099760  1
  Se  Se122  1  0.41479360  0.08599254  0.55198368  1
  Se  Se123  1  0.41896439  0.40328150  0.05917817  1
  Se  Se124  1  0.40213175  0.40975700  0.55327119  1
  Se  Se125  1  0.42045546  0.75955764  0.05258779  1
  Se  Se126  1  0.41882072  0.76158687  0.55816461  1
  Se  Se127  1  0.74864935  0.08487335  0.06059681  1
  Se  Se128  1  0.74500283  0.06238974  0.54568261  1
  Se  Se129  1  0.75649194  0.41832885  0.05628273  1
  Se  Se130  1  0.75125748  0.42810440  0.54553546  1
  Se  Se131  1  0.74936552  0.75248211  0.04863564  1
  Se  Se132  1  0.75081173  0.75344470  0.55729707  1
  Se  Se133  1  0.25072298  0.24337984  0.05621964  1
  Se  Se134  1  0.24173752  0.24154398  0.55034926  1
  Se  Se135  1  0.25991594  0.59349558  0.05865245  1
  Se  Se136  1  0.25389201  0.59096892  0.55924108  1
  Se  Se137  1  0.24237412  0.91740904  0.05448543  1
  Se  Se138  1  0.25167595  0.92421795  0.55992293  1
  Se  Se139  1  0.59894188  0.24108127  0.06441608  1
  Se  Se140  1  0.59632814  0.26621777  0.54632110  1
  Se  Se141  1  0.59498812  0.58935332  0.06286715  1
  Se  Se142  1  0.58558399  0.59254451  0.56532321  1
  Se  Se143  1  0.57739935  0.91680004  0.05275744  1
  Se  Se144  1  0.59760035  0.93541250  0.54586824  1
  Se  Se145  1  0.91823533  0.24436492  0.05711745  1
  Se  Se146  1  0.91156979  0.24360849  0.54947850  1
  Se  Se147  1  0.91507487  0.58414339  0.04753629  1
  Se  Se148  1  0.91557901  0.58921948  0.54956251  1
  Se  Se149  1  0.90964247  0.91626773  0.05026862  1
  Se  Se150  1  0.92653073  0.91585928  0.55045707  1
  Se  Se151  1  0.08154893  0.24135738  0.44656454  1
  Se  Se152  1  0.08464154  0.25062518  0.95000928  1
  Se  Se153  1  0.07591797  0.58661848  0.44332773  1
  Se  Se154  1  0.07441473  0.59389732  0.93583760  1
  Se  Se155  1  0.09123872  0.93726630  0.42913266  1
  Se  Se156  1  0.08282939  0.91816206  0.94797744  1
  Se  Se157  1  0.42067317  0.23932061  0.45104573  1
  Se  Se158  1  0.41371026  0.25112421  0.93643767  1
  Se  Se159  1  0.40921453  0.59469236  0.44417150  1
  Se  Se160  1  0.41197963  0.58939180  0.93980322  1
  Se  Se161  1  0.41371845  0.91690115  0.44761302  1
  Se  Se162  1  0.41478188  0.92029498  0.95041678  1
  Se  Se163  1  0.73791027  0.24719203  0.45303276  1
  Se  Se164  1  0.75656562  0.23994939  0.95041616  1
  Se  Se165  1  0.74876866  0.59612166  0.44677688  1
  Se  Se166  1  0.75010521  0.57946713  0.94318676  1
  Se  Se167  1  0.78936612  0.88240901  0.43763249  1
  Se  Se168  1  0.75099231  0.92012597  0.94688170  1
  Se  Se169  1  0.24494013  0.08130772  0.43946424  1
  Se  Se170  1  0.24753157  0.08987516  0.94624198  1
  Se  Se171  1  0.24853591  0.40600622  0.43801133  1
  Se  Se172  1  0.25949869  0.41249412  0.94323354  1
  Se  Se173  1  0.25436758  0.74849689  0.44100178  1
  Se  Se174  1  0.24679510  0.75690674  0.94951693  1
  Se  Se175  1  0.59936469  0.05814172  0.45555039  1
  Se  Se176  1  0.59167695  0.07304699  0.93895728  1
  Se  Se177  1  0.58452328  0.41486191  0.43517312  1
  Se  Se178  1  0.59672477  0.40266572  0.94681875  1
  Se  Se179  1  0.57705246  0.75702719  0.45564620  1
  Se  Se180  1  0.58149304  0.75070260  0.94548743  1
  Se  Se181  1  0.91204948  0.08127310  0.44656210  1
  Se  Se182  1  0.91568088  0.08377440  0.94656501  1
  Se  Se183  1  0.90962253  0.41325300  0.44612506  1
  Se  Se184  1  0.91449338  0.41613886  0.95423419  1
  Se  Se185  1  0.94582691  0.74676987  0.44069694  1
  Se  Se186  1  0.90867048  0.75522660  0.94192300  1
  Se  Se187  1  0.25855250  0.24444762  0.30100814  1
  Se  Se188  1  0.25142415  0.25417480  0.80052618  1
  Se  Se189  1  0.24967610  0.58233083  0.31182774  1
  Se  Se190  1  0.25291085  0.58955462  0.79909286  1
  Se  Se191  1  0.25331435  0.91622853  0.28981833  1
  Se  Se192  1  0.25428980  0.92376323  0.80942969  1
  Se  Se193  1  0.58348258  0.24034282  0.31252479  1
  Se  Se194  1  0.57513443  0.24456136  0.80375674  1
  Se  Se195  1  0.57389210  0.57181711  0.30981003  1
  Se  Se196  1  0.58632008  0.58318621  0.79997192  1
  Se  Se197  1  0.58666106  0.91475640  0.31098296  1
  Se  Se198  1  0.57956381  0.91600235  0.81284518  1
  Se  Se199  1  0.90562338  0.24259802  0.31632211  1
  Se  Se200  1  0.90669549  0.23786437  0.80881862  1
  Se  Se201  1  0.90382488  0.58713771  0.31036295  1
  Se  Se202  1  0.91412149  0.57332537  0.80603410  1
  Se  Se203  1  0.91837838  0.92895930  0.29725690  1
  Se  Se204  1  0.91386145  0.92053743  0.80195598  1
  Se  Se205  1  0.07531096  0.08816605  0.29463794  1
  Se  Se206  1  0.08502854  0.08600469  0.80736518  1
  Se  Se207  1  0.08710252  0.41992448  0.31298124  1
  Se  Se208  1  0.09478644  0.42564901  0.80801107  1
  Se  Se209  1  0.09613586  0.77048241  0.30328296  1
  Se  Se210  1  0.08740237  0.75849734  0.81222131  1
  Se  Se211  1  0.41809060  0.07573625  0.31009775  1
  Se  Se212  1  0.41436065  0.08151474  0.79667471  1
  Se  Se213  1  0.41134982  0.40613299  0.30382956  1
  Se  Se214  1  0.41561061  0.41645499  0.80000874  1
  Se  Se215  1  0.42085232  0.75345258  0.31066863  1
  Se  Se216  1  0.41587448  0.75526487  0.80753439  1
  Se  Se217  1  0.73861678  0.07341899  0.30808548  1
  Se  Se218  1  0.75254222  0.08921531  0.80490739  1
  Se  Se219  1  0.75142764  0.41614644  0.30531260  1
  Se  Se220  1  0.75079443  0.41067728  0.80977203  1
  Se  Se221  1  0.75122503  0.76531319  0.31003981  1
  Se  Se222  1  0.74495129  0.74858007  0.80265271  1
  Se  Se223  1  0.26015684  0.06329568  0.19887043  1
  Se  Se224  1  0.25124101  0.08052831  0.69541529  1
  Se  Se225  1  0.25668963  0.41066054  0.20119192  1
  Se  Se226  1  0.25220939  0.41600817  0.69429576  1
  Se  Se227  1  0.24205238  0.75746277  0.18730166  1
  Se  Se228  1  0.25535886  0.75578122  0.70246317  1
  Se  Se229  1  0.58262011  0.08008499  0.20336631  1
  Se  Se230  1  0.58002349  0.09650927  0.68116634  1
  Se  Se231  1  0.58843361  0.40363852  0.20206168  1
  Se  Se232  1  0.57129481  0.42473654  0.68431457  1
  Se  Se233  1  0.58122048  0.75550914  0.19343155  1
  Se  Se234  1  0.58581041  0.75998778  0.69642353  1
  Se  Se235  1  0.89377625  0.09623767  0.19808695  1
  Se  Se236  1  0.92023243  0.07582673  0.69548924  1
  Se  Se237  1  0.91633039  0.42423215  0.18915893  1
  Se  Se238  1  0.90431126  0.40902239  0.69289905  1
  Se  Se239  1  0.90922960  0.76043360  0.18968650  1
  Se  Se240  1  0.90988561  0.75730795  0.68862835  1
  Se  Se241  1  0.08813627  0.23991131  0.19358665  1
  Se  Se242  1  0.08646029  0.24011753  0.68808897  1
  Se  Se243  1  0.09316271  0.57652884  0.19857910  1
  Se  Se244  1  0.08530753  0.57355364  0.68442353  1
  Se  Se245  1  0.06965729  0.92448134  0.19716313  1
  Se  Se246  1  0.08209821  0.91817063  0.70344515  1
  Se  Se247  1  0.41516449  0.24373100  0.19990604  1
  Se  Se248  1  0.41078708  0.25234008  0.69040280  1
  Se  Se249  1  0.42951464  0.56826997  0.18801391  1
  Se  Se250  1  0.41247981  0.59131480  0.69888525  1
  Se  Se251  1  0.42007202  0.91536560  0.19626518  1
  Se  Se252  1  0.42215384  0.92626924  0.69576893  1
  Se  Se253  1  0.74314928  0.26654857  0.20334102  1
  Se  Se254  1  0.75806971  0.23416134  0.68381526  1
  Se  Se255  1  0.75808249  0.58103850  0.18855575  1
  Se  Se256  1  0.74716666  0.58581724  0.69974053  1
  Se  Se257  1  0.74239557  0.92045900  0.19385874  1
  Se  Se258  1  0.75664132  0.91286221  0.68708679  1
