# generated using pymatgen
data_In86Cu29Se144
_symmetry_space_group_name_H-M   'P 1'
_cell_length_a   17.58104056
_cell_length_b   17.57688261
_cell_length_c   23.43704816
_cell_angle_alpha   89.98999810
_cell_angle_beta   90.01876527
_cell_angle_gamma   89.96989359
_symmetry_Int_Tables_number   1
_chemical_formula_structural   In86Cu29Se144
_chemical_formula_sum   'In86 Cu29 Se144'
_cell_volume   7242.51245262
_cell_formula_units_Z   1
loop_
 _symmetry_equiv_pos_site_id
 _symmetry_equiv_pos_as_xyz
  1  'x, y, z'
loop_
 _atom_site_type_symbol
 _atom_site_label
 _atom_site_symmetry_multiplicity
 _atom_site_fract_x
 _atom_site_fract_y
 _atom_site_fract_z
 _atom_site_occupancy
  In  In0  1  0.01779485  0.16402539  0.12228289  1
  In  In1  1  -0.00276809  0.16916535  0.62399998  1
  In  In2  1  0.00267590  0.49879015  0.12287649  1
  In  In3  1  0.00551813  0.48837349  0.63652512  1
  In  In4  1  -0.00746671  0.83259072  0.12252569  1
  In  In5  1  -0.00822000  0.83703036  0.62879025  1
  In  In6  1  0.33788359  0.18118656  0.11563033  1
  In  In7  1  0.33734301  0.17422185  0.61642916  1
  In  In8  1  0.32882513  0.49704793  0.12564149  1
  In  In9  1  0.34095822  0.50332643  0.61848154  1
  In  In10  1  0.32165349  0.82010908  0.12903587  1
  In  In11  1  0.33191499  0.81512537  0.62461742  1
  In  In12  1  0.65225026  0.18469503  0.12439587  1
  In  In13  1  0.66037679  0.16333492  0.61880554  1
  In  In14  1  0.65855569  0.48467785  0.10491981  1
  In  In15  1  0.66784036  0.51613993  0.62199883  1
  In  In16  1  0.67243458  0.82143057  0.12342668  1
  In  In17  1  0.65510822  0.80710382  0.60697656  1
  In  In18  1  0.17592345  0.00513832  0.37792081  1
  In  In19  1  0.16115940  0.01450329  0.87339473  1
  In  In20  1  0.16579888  0.33526525  0.37220404  1
  In  In21  1  0.16312691  0.34544253  0.89293997  1
  In  In22  1  0.15261042  0.66130089  0.36417006  1
  In  In23  1  0.15624257  0.65479166  0.86795071  1
  In  In24  1  0.49945716  -0.00044117  0.38397953  1
  In  In25  1  0.50941285  0.00921472  0.87303072  1
  In  In26  1  0.48699232  0.34429381  0.38399512  1
  In  In27  1  0.50105692  0.33891756  0.89003725  1
  In  In28  1  0.49404162  0.67224471  0.38602911  1
  In  In29  1  0.48959941  0.65427264  0.86263001  1
  In  In30  1  0.82924728  0.00639027  0.38402607  1
  In  In31  1  0.83004288  -0.01426751  0.87090647  1
  In  In32  1  0.82999199  0.32767075  0.37788142  1
  In  In33  1  0.84739567  0.33809463  0.87154068  1
  In  In34  1  0.84368556  0.66020883  0.37913627  1
  In  In35  1  0.83925765  0.66223623  0.87178798  1
  In  In36  1  -0.00951577  0.17860142  0.38033860  1
  In  In37  1  0.00731321  0.17994976  0.86219998  1
  In  In38  1  0.00702210  0.51014574  0.36761727  1
  In  In39  1  0.00363246  0.50009642  0.87572526  1
  In  In40  1  -0.00073378  0.81645371  0.37658616  1
  In  In41  1  -0.01346694  0.81810658  0.86276286  1
  In  In42  1  0.32130011  0.17210513  0.38051862  1
  In  In43  1  0.33117678  0.17942707  0.88345434  1
  In  In44  1  0.32898722  0.49818174  0.37350867  1
  In  In45  1  0.32549953  0.49941154  0.88848396  1
  In  In46  1  0.33906760  0.83344259  0.37621879  1
  In  In47  1  0.34207765  0.82305705  0.87239121  1
  In  In48  1  0.65826056  0.19146979  0.39852124  1
  In  In49  1  0.65863391  0.17178475  0.87681320  1
  In  In50  1  0.65486928  0.49626523  0.38327853  1
  In  In51  1  0.65967741  0.50701911  0.87648651  1
  In  In52  1  0.66670082  0.82720289  0.39201257  1
  In  In53  1  0.68372459  0.83373105  0.87364863  1
  In  In54  1  0.15869217  0.00760856  0.12225214  1
  In  In55  1  0.15297165  0.00495384  0.62587160  1
  In  In56  1  0.16486905  0.33256587  0.12622774  1
  In  In57  1  0.15949759  0.32861863  0.61850218  1
  In  In58  1  0.18039135  0.65738032  0.13708756  1
  In  In59  1  0.17675648  0.65381865  0.63089921  1
  In  In60  1  0.48766956  0.01123961  0.12753376  1
  In  In61  1  0.50707020  0.00187189  0.62127520  1
  In  In62  1  0.48505833  0.32582836  0.10622863  1
  In  In63  1  0.49881518  0.33035635  0.61485333  1
  In  In64  1  0.49180216  0.64936453  0.12339284  1
  In  In65  1  0.49719519  0.65997818  0.62204180  1
  In  In66  1  0.84472060  -0.00431919  0.12057969  1
  In  In67  1  0.83867347  -0.00056103  0.62298516  1
  In  In68  1  0.82845852  0.35170804  0.12230635  1
  In  In69  1  0.84908030  0.34331119  0.62741467  1
  In  In70  1  0.83740486  0.66617066  0.11672400  1
  In  In71  1  0.82598632  0.66746781  0.63311398  1
  In  In72  1  0.33415394  0.33592586  0.75320172  1
  In  In73  1  0.33148858  -0.00234539  0.25803067  1
  In  In74  1  0.66747605  0.34210704  0.25314953  1
  In  In75  1  0.16548971  0.83378099  0.50024306  1
  In  In76  1  0.00559915  -0.00506374  0.24778988  1
  In  In77  1  0.51130089  0.83949129  -0.00376455  1
  In  In78  1  0.67145033  -0.00446812  0.74074482  1
  In  In79  1  0.67181399  0.65995640  0.25190815  1
  In  In80  1  0.83438178  0.16873080  -0.00415675  1
  In  In81  1  0.16351965  0.83433060  0.00449432  1
  In  In82  1  0.82981312  0.50083896  0.50508029  1
  In  In83  1  0.67121017  0.00069427  0.26752143  1
  In  In84  1  0.66925378  0.33876299  0.75355787  1
  In  In85  1  0.33171406  -0.00095780  0.75697977  1
  Cu  Cu86  1  0.33572032  0.00119986  0.50118954  1
  Cu  Cu87  1  0.49987687  0.50470541  0.74810711  1
  Cu  Cu88  1  0.33292000  0.65877883  0.49941697  1
  Cu  Cu89  1  0.16874209  0.17309179  0.24976042  1
  Cu  Cu90  1  0.00336957  0.33468708  -0.00014323  1
  Cu  Cu91  1  0.00142720  0.66010537  -0.00590224  1
  Cu  Cu92  1  0.49385376  0.82081201  0.25585149  1
  Cu  Cu93  1  0.83618724  0.83103856  0.24835087  1
  Cu  Cu94  1  0.67197694  -0.00451189  0.50503762  1
  Cu  Cu95  1  0.83478963  0.16420095  0.74506373  1
  Cu  Cu96  1  0.16082094  0.16966274  0.74608759  1
  Cu  Cu97  1  0.33574797  0.01271115  -0.00090132  1
  Cu  Cu98  1  0.84060381  0.50660835  0.24453710  1
  Cu  Cu99  1  0.32689250  0.33459884  0.49693469  1
  Cu  Cu100  1  0.50182127  0.82622811  0.74344276  1
  Cu  Cu101  1  0.83560393  0.82656123  0.74672630  1
  Cu  Cu102  1  0.66741879  0.00752671  -0.00195938  1
  Cu  Cu103  1  0.00200734  0.66233589  0.50052440  1
  Cu  Cu104  1  0.49769624  0.17589032  0.24649810  1
  Cu  Cu105  1  0.00494059  0.33714940  0.50080512  1
  Cu  Cu106  1  0.83924193  0.17337908  0.25623955  1
  Cu  Cu107  1  -0.00453959  -0.00503257  -0.00665243  1
  Cu  Cu108  1  0.33138092  0.66325303  0.00110169  1
  Cu  Cu109  1  0.48901962  0.49640772  0.24870562  1
  Cu  Cu110  1  0.16946625  0.49477632  0.75687631  1
  Cu  Cu111  1  0.16446187  0.83089259  0.74384207  1
  Cu  Cu112  1  0.67476926  0.67109967  -0.00574731  1
  Cu  Cu113  1  0.16501640  0.49493182  0.24802847  1
  Cu  Cu114  1  -0.00017803  0.00785545  0.50308835  1
  Se  Se115  1  0.08052217  0.07757208  0.04493735  1
  Se  Se116  1  0.08519166  0.09131725  0.55271485  1
  Se  Se117  1  0.08719895  0.41734352  0.05398725  1
  Se  Se118  1  0.08327181  0.42405265  0.55468561  1
  Se  Se119  1  0.07905681  0.73710747  0.06094413  1
  Se  Se120  1  0.08169612  0.74265842  0.56323621  1
  Se  Se121  1  0.42290793  0.09282802  0.05095700  1
  Se  Se122  1  0.42038998  0.08330269  0.55456587  1
  Se  Se123  1  0.43567195  0.44682874  0.05845377  1
  Se  Se124  1  0.41501275  0.41514586  0.54918202  1
  Se  Se125  1  0.41384599  0.75098846  0.05464800  1
  Se  Se126  1  0.41491880  0.74579776  0.55106811  1
  Se  Se127  1  0.74468478  0.08429740  0.06424264  1
  Se  Se128  1  0.75258387  0.08211771  0.55683314  1
  Se  Se129  1  0.75671947  0.41670886  0.04163982  1
  Se  Se130  1  0.74209216  0.40775754  0.56317404  1
  Se  Se131  1  0.75592404  0.75442615  0.04910299  1
  Se  Se132  1  0.76744607  0.74882537  0.55240513  1
  Se  Se133  1  0.22035016  0.22552868  0.06104801  1
  Se  Se134  1  0.24577998  0.24892662  0.55055525  1
  Se  Se135  1  0.24671433  0.58342145  0.05575739  1
  Se  Se136  1  0.24647158  0.57789164  0.55164278  1
  Se  Se137  1  0.26204501  0.92673933  0.05956869  1
  Se  Se138  1  0.25527196  0.92254859  0.56366368  1
  Se  Se139  1  0.59048244  0.26138714  0.04569962  1
  Se  Se140  1  0.57844158  0.24266201  0.55031703  1
  Se  Se141  1  0.58950788  0.59519535  0.05225071  1
  Se  Se142  1  0.57705566  0.57906760  0.55075048  1
  Se  Se143  1  0.59170443  0.92957590  0.06598005  1
  Se  Se144  1  0.58128891  0.91331282  0.55220743  1
  Se  Se145  1  0.92324079  0.25339959  0.06112829  1
  Se  Se146  1  0.91860755  0.25644155  0.55421263  1
  Se  Se147  1  0.91809778  0.57858640  0.05132636  1
  Se  Se148  1  0.92574551  0.58378422  0.56501827  1
  Se  Se149  1  0.91492058  0.91120694  0.04750600  1
  Se  Se150  1  0.92067180  0.91695484  0.55225211  1
  Se  Se151  1  0.08527465  0.25235555  0.44462814  1
  Se  Se152  1  0.07914099  0.24433707  0.94571955  1
  Se  Se153  1  0.08555021  0.58374171  0.44438550  1
  Se  Se154  1  0.09138773  0.57685303  0.94811466  1
  Se  Se155  1  0.07404976  0.92469684  0.43931534  1
  Se  Se156  1  0.07713227  0.91396872  0.93404380  1
  Se  Se157  1  0.41244740  0.24754355  0.44705774  1
  Se  Se158  1  0.41185514  0.25752194  0.95293437  1
  Se  Se159  1  0.41595873  0.57455407  0.44533110  1
  Se  Se160  1  0.41934162  0.58748568  0.94581833  1
  Se  Se161  1  0.41554710  0.91376758  0.44914471  1
  Se  Se162  1  0.41080621  0.92721810  0.93950765  1
  Se  Se163  1  0.76672281  0.24987125  0.45684650  1
  Se  Se164  1  0.74712356  0.26127256  0.93738540  1
  Se  Se165  1  0.74026934  0.59170651  0.44357517  1
  Se  Se166  1  0.75395388  0.58408457  0.94180003  1
  Se  Se167  1  0.75618807  0.91412022  0.45100918  1
  Se  Se168  1  0.74948169  0.91937012  0.94966094  1
  Se  Se169  1  0.24790998  0.08431283  0.45244226  1
  Se  Se170  1  0.24720302  0.08665939  0.94417920  1
  Se  Se171  1  0.24413126  0.41884022  0.44380052  1
  Se  Se172  1  0.27263456  0.39508182  0.95496434  1
  Se  Se173  1  0.25093149  0.74078787  0.43974314  1
  Se  Se174  1  0.25165730  0.74459904  0.94112799  1
  Se  Se175  1  0.58959753  0.07843985  0.44837632  1
  Se  Se176  1  0.58079901  0.08905693  0.94875686  1
  Se  Se177  1  0.60049590  0.39062296  0.44529940  1
  Se  Se178  1  0.58578457  0.42639038  0.94994522  1
  Se  Se179  1  0.58172918  0.74484441  0.45481801  1
  Se  Se180  1  0.58737660  0.74377698  0.93284412  1
  Se  Se181  1  0.91552763  0.08948594  0.44862568  1
  Se  Se182  1  0.92033302  0.07936409  0.93200738  1
  Se  Se183  1  0.92405086  0.41918266  0.44013250  1
  Se  Se184  1  0.92100239  0.41763998  0.94659084  1
  Se  Se185  1  0.91614335  0.74731233  0.45156477  1
  Se  Se186  1  0.91779893  0.74830680  0.94488326  1
  Se  Se187  1  0.25393645  0.25331425  0.30349852  1
  Se  Se188  1  0.23799644  0.24817386  0.80938019  1
  Se  Se189  1  0.24599545  0.57954592  0.30330022  1
  Se  Se190  1  0.25576491  0.57663257  0.80909852  1
  Se  Se191  1  0.23643227  0.90403714  0.30887967  1
  Se  Se192  1  0.23914701  0.90583148  0.81293995  1
  Se  Se193  1  0.57831956  0.24916210  0.31108783  1
  Se  Se194  1  0.57031120  0.25239142  0.80904014  1
  Se  Se195  1  0.57258550  0.57544310  0.30828913  1
  Se  Se196  1  0.58886774  0.58630956  0.79796703  1
  Se  Se197  1  0.57548096  0.90192543  0.31378932  1
  Se  Se198  1  0.57834877  0.90757697  0.80580407  1
  Se  Se199  1  0.92064969  0.26198549  0.30433873  1
  Se  Se200  1  0.91466722  0.25334481  0.79584337  1
  Se  Se201  1  0.91919061  0.59192693  0.29983809  1
  Se  Se202  1  0.93930255  0.59645708  0.80732586  1
  Se  Se203  1  0.90862444  0.91592215  0.31081428  1
  Se  Se204  1  0.91553315  0.91688495  0.79728642  1
  Se  Se205  1  0.08880858  0.09056754  0.30940369  1
  Se  Se206  1  0.07867933  0.08158127  0.79685107  1
  Se  Se207  1  0.07960318  0.41456768  0.30245981  1
  Se  Se208  1  0.08868028  0.41004808  0.81060038  1
  Se  Se209  1  0.07851676  0.75471405  0.29881099  1
  Se  Se210  1  0.08433303  0.74649622  0.79983934  1
  Se  Se211  1  0.42504450  0.09235003  0.31074933  1
  Se  Se212  1  0.41962775  0.09637903  0.81014462  1
  Se  Se213  1  0.41062122  0.41148949  0.30405852  1
  Se  Se214  1  0.42452830  0.42544648  0.81263888  1
  Se  Se215  1  0.41086481  0.73974902  0.30866332  1
  Se  Se216  1  0.41368041  0.74644137  0.79586256  1
  Se  Se217  1  0.75247893  0.10598559  0.31818133  1
  Se  Se218  1  0.75239013  0.09049172  0.80808336  1
  Se  Se219  1  0.75977430  0.43414724  0.31131787  1
  Se  Se220  1  0.75915554  0.42983180  0.80965854  1
  Se  Se221  1  0.75477690  0.75694576  0.31188191  1
  Se  Se222  1  0.75244518  0.74631733  0.80259001  1
  Se  Se223  1  0.24809375  0.08728973  0.19215705  1
  Se  Se224  1  0.24869786  0.09115965  0.69079982  1
  Se  Se225  1  0.24982122  0.41236309  0.19560194  1
  Se  Se226  1  0.24570439  0.42032470  0.68834083  1
  Se  Se227  1  0.25029539  0.74924954  0.20613055  1
  Se  Se228  1  0.25213991  0.74441790  0.69991636  1
  Se  Se229  1  0.58255329  0.08781547  0.19802154  1
  Se  Se230  1  0.57383792  0.09263891  0.69780288  1
  Se  Se231  1  0.57637012  0.42274925  0.18856119  1
  Se  Se232  1  0.57548941  0.42000549  0.68868380  1
  Se  Se233  1  0.57599736  0.74959505  0.19213097  1
  Se  Se234  1  0.58403462  0.74263945  0.69075243  1
  Se  Se235  1  0.91183052  0.09083717  0.19300902  1
  Se  Se236  1  0.91919300  0.08057650  0.69373491  1
  Se  Se237  1  0.91860770  0.41617286  0.19416026  1
  Se  Se238  1  0.91542756  0.41748766  0.70628201  1
  Se  Se239  1  0.91331528  0.74775270  0.19179379  1
  Se  Se240  1  0.92272555  0.74291450  0.69677147  1
  Se  Se241  1  0.07913611  0.25098532  0.19778600  1
  Se  Se242  1  0.07892923  0.25482451  0.69342756  1
  Se  Se243  1  0.08136881  0.58058276  0.19584038  1
  Se  Se244  1  0.08884949  0.57853238  0.70012246  1
  Se  Se245  1  0.09577648  0.90425729  0.18904111  1
  Se  Se246  1  0.08108094  0.91768130  0.69567145  1
  Se  Se247  1  0.41733231  0.25694555  0.19039293  1
  Se  Se248  1  0.42275618  0.24630956  0.69244694  1
  Se  Se249  1  0.40735853  0.58454263  0.19842817  1
  Se  Se250  1  0.41147613  0.58370399  0.69497003  1
  Se  Se251  1  0.42246623  0.90777495  0.19406070  1
  Se  Se252  1  0.41970080  0.91265634  0.69002699  1
  Se  Se253  1  0.75688064  0.24771859  0.19233153  1
  Se  Se254  1  0.75173158  0.24530934  0.68840368  1
  Se  Se255  1  0.74944621  0.57201237  0.18269519  1
  Se  Se256  1  0.75099918  0.57660471  0.69908205  1
  Se  Se257  1  0.75338406  0.91540847  0.19363475  1
  Se  Se258  1  0.75237616  0.89933784  0.68216096  1
