# generated using pymatgen
data_In86Cu29Se144
_symmetry_space_group_name_H-M   'P 1'
_cell_length_a   17.58183016
_cell_length_b   17.58400620
_cell_length_c   23.44030768
_cell_angle_alpha   90.00367346
_cell_angle_beta   89.99718374
_cell_angle_gamma   90.00631358
_symmetry_Int_Tables_number   1
_chemical_formula_structural   In86Cu29Se144
_chemical_formula_sum   'In86 Cu29 Se144'
_cell_volume   7246.78226018
_cell_formula_units_Z   1
loop_
 _symmetry_equiv_pos_site_id
 _symmetry_equiv_pos_as_xyz
  1  'x, y, z'
loop_
 _atom_site_type_symbol
 _atom_site_label
 _atom_site_symmetry_multiplicity
 _atom_site_fract_x
 _atom_site_fract_y
 _atom_site_fract_z
 _atom_site_occupancy
  In  In0  1  -0.00592331  0.18394242  0.12410578  1
  In  In1  1  -0.00218005  0.17202995  0.62707707  1
  In  In2  1  0.00202860  0.49856694  0.12224829  1
  In  In3  1  -0.01634114  0.50155095  0.62344232  1
  In  In4  1  -0.00832016  0.81944445  0.11608495  1
  In  In5  1  0.00287537  0.83878305  0.63654202  1
  In  In6  1  0.32855894  0.15137018  0.12605909  1
  In  In7  1  0.34082634  0.17271032  0.61320331  1
  In  In8  1  0.33144501  0.51928220  0.13152702  1
  In  In9  1  0.34281464  0.49481133  0.62855995  1
  In  In10  1  0.33570484  0.83269240  0.11671540  1
  In  In11  1  0.31893736  0.82674715  0.63414300  1
  In  In12  1  0.66940282  0.15226790  0.11105766  1
  In  In13  1  0.66931521  0.16618392  0.62688378  1
  In  In14  1  0.68240430  0.49012688  0.12599277  1
  In  In15  1  0.66063650  0.48708597  0.62365424  1
  In  In16  1  0.67674553  0.85563894  0.10977240  1
  In  In17  1  0.67349284  0.84997177  0.63482054  1
  In  In18  1  0.17620345  -0.00596021  0.37398258  1
  In  In19  1  0.15050924  -0.00066342  0.87420968  1
  In  In20  1  0.14405723  0.33386800  0.37410337  1
  In  In21  1  0.15759135  0.34976068  0.87794108  1
  In  In22  1  0.16052367  0.64994655  0.35489822  1
  In  In23  1  0.17248133  0.65941202  0.87904508  1
  In  In24  1  0.50603920  0.00990355  0.36681771  1
  In  In25  1  0.52477021  -0.01614254  0.89308949  1
  In  In26  1  0.50885117  0.32641432  0.38464401  1
  In  In27  1  0.50335239  0.31457208  0.87864596  1
  In  In28  1  0.48727064  0.66512400  0.37378216  1
  In  In29  1  0.50138740  0.68161532  0.87938861  1
  In  In30  1  0.82888994  0.01795060  0.37230252  1
  In  In31  1  0.83586627  0.00166142  0.87710496  1
  In  In32  1  0.83469167  0.32875040  0.37737989  1
  In  In33  1  0.83619205  0.33665281  0.87046738  1
  In  In34  1  0.83488136  0.65275363  0.37090405  1
  In  In35  1  0.84054419  0.66272658  0.88682132  1
  In  In36  1  -0.01502060  0.17561719  0.38269459  1
  In  In37  1  -0.00815031  0.16217974  0.86718315  1
  In  In38  1  -0.01510060  0.47814722  0.34996721  1
  In  In39  1  0.01209032  0.48649473  0.88453371  1
  In  In40  1  0.01149950  0.82962867  0.37031211  1
  In  In41  1  -0.01034834  0.84217017  0.88641700  1
  In  In42  1  0.34176940  0.15891818  0.37921551  1
  In  In43  1  0.34878283  0.17019918  0.87636875  1
  In  In44  1  0.32774038  0.51429232  0.37451343  1
  In  In45  1  0.31239848  0.50055453  0.87584119  1
  In  In46  1  0.32341309  0.82437167  0.36320720  1
  In  In47  1  0.33595706  0.82530790  0.87746998  1
  In  In48  1  0.67293601  0.16413335  0.37816988  1
  In  In49  1  0.66979083  0.16512781  0.87350314  1
  In  In50  1  0.67425538  0.48860586  0.38337633  1
  In  In51  1  0.68193397  0.49613651  0.87652199  1
  In  In52  1  0.65329273  0.83824866  0.36955447  1
  In  In53  1  0.67631185  0.84310569  0.88669085  1
  In  In54  1  0.18324223  -0.00281949  0.12481483  1
  In  In55  1  0.15451622  0.00273328  0.62851113  1
  In  In56  1  0.14155768  0.33865800  0.12763474  1
  In  In57  1  0.17364947  0.32252761  0.62622976  1
  In  In58  1  0.16300326  0.66349401  0.12126768  1
  In  In59  1  0.16887713  0.67783977  0.63404117  1
  In  In60  1  0.49987715  -0.00088737  0.11785784  1
  In  In61  1  0.50323150  0.01310350  0.62515160  1
  In  In62  1  0.51417326  0.32682710  0.12378808  1
  In  In63  1  0.50537234  0.33497492  0.62308346  1
  In  In64  1  0.48928518  0.67548251  0.12759333  1
  In  In65  1  0.50039796  0.65170354  0.62811541  1
  In  In66  1  0.82670033  0.00009999  0.11474831  1
  In  In67  1  0.81899289  0.01252228  0.64189045  1
  In  In68  1  0.86362058  0.35072276  0.09710543  1
  In  In69  1  0.83237107  0.33109662  0.62637605  1
  In  In70  1  0.84349738  0.66796056  0.12452045  1
  In  In71  1  0.84295866  0.66051870  0.62339357  1
  In  In72  1  0.33119972  0.33512190  0.75128027  1
  In  In73  1  0.00079315  0.66734762  0.75447093  1
  In  In74  1  0.16742229  0.83412332  0.50312528  1
  In  In75  1  0.67796083  0.32305725  0.24852842  1
  In  In76  1  0.83229720  0.83587948  0.50976046  1
  In  In77  1  0.00079300  -0.00263099  0.25036395  1
  In  In78  1  0.66858460  0.67042343  0.24127123  1
  In  In79  1  0.32817208  0.33599426  0.25362433  1
  In  In80  1  0.16352497  0.16664430  -0.00027516  1
  In  In81  1  0.50037672  0.50132533  0.01019259  1
  In  In82  1  0.33403290  0.00016665  0.75080854  1
  In  In83  1  0.16463980  0.49822769  0.49613447  1
  In  In84  1  0.66591405  0.67004937  0.76072733  1
  In  In85  1  0.49393675  0.83054008  0.49457354  1
  Cu  Cu86  1  0.00259921  0.66554687  -0.00016198  1
  Cu  Cu87  1  0.82967034  0.49437647  0.74919675  1
  Cu  Cu88  1  0.49395636  0.49810519  0.75042699  1
  Cu  Cu89  1  -0.00305594  0.66153578  0.49615265  1
  Cu  Cu90  1  0.33568388  0.33085064  0.50007449  1
  Cu  Cu91  1  0.82886130  0.83828520  0.23979282  1
  Cu  Cu92  1  0.49665583  0.15603735  0.24512590  1
  Cu  Cu93  1  0.00045311  -0.00102012  0.00052295  1
  Cu  Cu94  1  0.66949488  0.67188495  0.00374373  1
  Cu  Cu95  1  0.17188313  0.82723240  0.24027199  1
  Cu  Cu96  1  0.16373915  0.16897227  0.75019664  1
  Cu  Cu97  1  0.33690901  -0.00148098  -0.00125437  1
  Cu  Cu98  1  0.33187971  0.66732440  0.00183557  1
  Cu  Cu99  1  0.82713588  0.17066928  0.24644190  1
  Cu  Cu100  1  0.16137469  0.16712571  0.24866243  1
  Cu  Cu101  1  0.32790359  0.33510685  0.00295886  1
  Cu  Cu102  1  0.50327151  0.83714388  0.75918522  1
  Cu  Cu103  1  -0.00459958  0.01145752  0.50571799  1
  Cu  Cu104  1  0.51294702  0.16209360  0.75245827  1
  Cu  Cu105  1  0.83460343  0.17012493  0.75051275  1
  Cu  Cu106  1  -0.00499410  0.33092217  0.50014049  1
  Cu  Cu107  1  0.66858775  0.65447455  0.50343873  1
  Cu  Cu108  1  0.67219670  0.32574217  -0.00324248  1
  Cu  Cu109  1  0.50216576  0.50281346  0.25679983  1
  Cu  Cu110  1  0.49661557  0.84586389  0.24465352  1
  Cu  Cu111  1  0.33125658  0.66348385  0.49764232  1
  Cu  Cu112  1  0.66951899  0.33052611  0.50564151  1
  Cu  Cu113  1  0.33717242  0.00552068  0.49532032  1
  Cu  Cu114  1  0.66887298  0.00550182  0.49972019  1
  Se  Se115  1  0.07808498  0.07721744  0.06568346  1
  Se  Se116  1  0.08457763  0.08968604  0.55729725  1
  Se  Se117  1  0.07476362  0.41158047  0.04863680  1
  Se  Se118  1  0.07756273  0.41006161  0.56026162  1
  Se  Se119  1  0.08804891  0.75114154  0.04961206  1
  Se  Se120  1  0.07108139  0.74282585  0.55935278  1
  Se  Se121  1  0.41446210  0.08716110  0.05136674  1
  Se  Se122  1  0.42381224  0.08425759  0.54910518  1
  Se  Se123  1  0.40830887  0.40995878  0.06865268  1
  Se  Se124  1  0.41658230  0.41452854  0.55519072  1
  Se  Se125  1  0.42209219  0.75076445  0.04763452  1
  Se  Se126  1  0.40715155  0.74440433  0.56084482  1
  Se  Se127  1  0.73858391  0.06385482  0.03863267  1
  Se  Se128  1  0.75297523  0.08153105  0.55750790  1
  Se  Se129  1  0.75080403  0.41854339  0.04556101  1
  Se  Se130  1  0.75367850  0.41733003  0.55523664  1
  Se  Se131  1  0.75604874  0.75139744  0.05783583  1
  Se  Se132  1  0.73667194  0.74271696  0.56532125  1
  Se  Se133  1  0.24909836  0.25536806  0.06599009  1
  Se  Se134  1  0.24728036  0.24839278  0.54853961  1
  Se  Se135  1  0.25031497  0.58052374  0.05236385  1
  Se  Se136  1  0.25052561  0.58818233  0.56158851  1
  Se  Se137  1  0.24972887  0.91553617  0.04806904  1
  Se  Se138  1  0.26055647  0.92645549  0.55973708  1
  Se  Se139  1  0.58608507  0.24657356  0.05030628  1
  Se  Se140  1  0.58432583  0.24610989  0.55684534  1
  Se  Se141  1  0.59453803  0.59177328  0.06817154  1
  Se  Se142  1  0.58035605  0.57587580  0.55579285  1
  Se  Se143  1  0.57515297  0.91587606  0.04554916  1
  Se  Se144  1  0.58794394  0.91926370  0.55501333  1
  Se  Se145  1  0.91042416  0.23293768  0.04265122  1
  Se  Se146  1  0.91289935  0.24824983  0.55507698  1
  Se  Se147  1  0.91677134  0.58281845  0.05265585  1
  Se  Se148  1  0.91056760  0.57912627  0.54645089  1
  Se  Se149  1  0.91621977  0.91512509  0.05319790  1
  Se  Se150  1  0.92167296  0.92756751  0.56738270  1
  Se  Se151  1  0.08078721  0.24702758  0.44950344  1
  Se  Se152  1  0.07446111  0.25278475  0.93877935  1
  Se  Se153  1  0.07585160  0.58499855  0.43437447  1
  Se  Se154  1  0.08687597  0.58092259  0.94863556  1
  Se  Se155  1  0.07243124  0.92713449  0.44587340  1
  Se  Se156  1  0.08744204  0.91601505  0.95193642  1
  Se  Se157  1  0.41950541  0.24531539  0.44824894  1
  Se  Se158  1  0.41423307  0.25211939  0.95435635  1
  Se  Se159  1  0.41798605  0.57981321  0.44839329  1
  Se  Se160  1  0.41426185  0.58452241  0.94219160  1
  Se  Se161  1  0.40592948  0.91854111  0.43277235  1
  Se  Se162  1  0.41698043  0.91154686  0.94561715  1
  Se  Se163  1  0.75086983  0.24961460  0.44691489  1
  Se  Se164  1  0.75641549  0.24906414  0.93982741  1
  Se  Se165  1  0.75529282  0.58047713  0.44654627  1
  Se  Se166  1  0.74699228  0.58409432  0.95021753  1
  Se  Se167  1  0.74409502  0.91890569  0.44040148  1
  Se  Se168  1  0.74140332  0.94172393  0.95263425  1
  Se  Se169  1  0.24615906  0.08313118  0.44468772  1
  Se  Se170  1  0.25613816  0.07878662  0.93717787  1
  Se  Se171  1  0.25622800  0.40726767  0.43640796  1
  Se  Se172  1  0.24473192  0.41810856  0.95205874  1
  Se  Se173  1  0.24548237  0.73842985  0.43806065  1
  Se  Se174  1  0.24892382  0.74954253  0.94741564  1
  Se  Se175  1  0.58301025  0.08324039  0.44393484  1
  Se  Se176  1  0.56010617  0.11165256  0.93736001  1
  Se  Se177  1  0.58550317  0.41475265  0.45195628  1
  Se  Se178  1  0.58572594  0.41262111  0.94412721  1
  Se  Se179  1  0.59195040  0.73709306  0.44215157  1
  Se  Se180  1  0.58901517  0.75398516  0.94851908  1
  Se  Se181  1  0.90732507  0.08597496  0.45018781  1
  Se  Se182  1  0.92217251  0.08423318  0.94563173  1
  Se  Se183  1  0.92251458  0.41714909  0.43932002  1
  Se  Se184  1  0.89736708  0.43482158  0.93981232  1
  Se  Se185  1  0.91957602  0.75132096  0.44110551  1
  Se  Se186  1  0.91415425  0.75286878  0.95500292  1
  Se  Se187  1  0.24153208  0.24252927  0.31380008  1
  Se  Se188  1  0.24400241  0.24420687  0.81426326  1
  Se  Se189  1  0.26684756  0.59059760  0.29423064  1
  Se  Se190  1  0.24727892  0.58409619  0.80163827  1
  Se  Se191  1  0.24677091  0.91508716  0.29698095  1
  Se  Se192  1  0.24554762  0.91364575  0.81206483  1
  Se  Se193  1  0.57551148  0.23972756  0.30464415  1
  Se  Se194  1  0.58990944  0.25383044  0.80231387  1
  Se  Se195  1  0.58856760  0.58102962  0.31329119  1
  Se  Se196  1  0.57411367  0.57427157  0.81564134  1
  Se  Se197  1  0.58506480  0.92437566  0.29726085  1
  Se  Se198  1  0.59261112  0.91473048  0.80964182  1
  Se  Se199  1  0.91245856  0.24852851  0.30301729  1
  Se  Se200  1  0.91969534  0.25569300  0.80001371  1
  Se  Se201  1  0.93066960  0.59734776  0.30089746  1
  Se  Se202  1  0.90784976  0.57554992  0.80946030  1
  Se  Se203  1  0.90617461  0.91067962  0.31141619  1
  Se  Se204  1  0.92309494  0.92288549  0.80937189  1
  Se  Se205  1  0.08330791  0.08887842  0.31427221  1
  Se  Se206  1  0.08081604  0.08217137  0.79962442  1
  Se  Se207  1  0.10843333  0.43508942  0.30122083  1
  Se  Se208  1  0.07989212  0.41873529  0.80143339  1
  Se  Se209  1  0.08486183  0.75082233  0.29649021  1
  Se  Se210  1  0.08225095  0.75476629  0.81995165  1
  Se  Se211  1  0.40920175  0.07905419  0.30016578  1
  Se  Se212  1  0.43110125  0.08076235  0.81072652  1
  Se  Se213  1  0.42642867  0.41787805  0.31496469  1
  Se  Se214  1  0.42100840  0.41924665  0.81757152  1
  Se  Se215  1  0.42303844  0.75425366  0.30016757  1
  Se  Se216  1  0.41809278  0.74897038  0.80322935  1
  Se  Se217  1  0.74332803  0.08650288  0.29861966  1
  Se  Se218  1  0.75457405  0.08429042  0.80491251  1
  Se  Se219  1  0.76018790  0.42293234  0.30484150  1
  Se  Se220  1  0.74343210  0.41121350  0.79958541  1
  Se  Se221  1  0.75548215  0.75926388  0.30860120  1
  Se  Se222  1  0.76097666  0.75510877  0.81725077  1
  Se  Se223  1  0.24756973  0.08157571  0.20236137  1
  Se  Se224  1  0.25164530  0.09686243  0.68925862  1
  Se  Se225  1  0.24364577  0.42099546  0.18811644  1
  Se  Se226  1  0.24008850  0.42579836  0.69363267  1
  Se  Se227  1  0.25521373  0.74677736  0.18544439  1
  Se  Se228  1  0.24960857  0.74693846  0.70851865  1
  Se  Se229  1  0.58362400  0.08358887  0.18683228  1
  Se  Se230  1  0.59252415  0.07673210  0.69800312  1
  Se  Se231  1  0.58089605  0.42300535  0.19703135  1
  Se  Se232  1  0.57889330  0.41506166  0.69897799  1
  Se  Se233  1  0.58237921  0.76757536  0.18568181  1
  Se  Se234  1  0.57746669  0.75573675  0.69180668  1
  Se  Se235  1  0.91049118  0.08622571  0.18969764  1
  Se  Se236  1  0.92167037  0.08634853  0.69879704  1
  Se  Se237  1  0.91941424  0.40704066  0.18730175  1
  Se  Se238  1  0.91615313  0.41449785  0.69618260  1
  Se  Se239  1  0.91738538  0.75237323  0.19785556  1
  Se  Se240  1  0.90407724  0.75617715  0.69605018  1
  Se  Se241  1  0.07474692  0.25186478  0.20225260  1
  Se  Se242  1  0.08328678  0.25431723  0.69670903  1
  Se  Se243  1  0.07293270  0.59181562  0.19001977  1
  Se  Se244  1  0.08336851  0.57721929  0.68824076  1
  Se  Se245  1  0.08596732  0.90962006  0.18533774  1
  Se  Se246  1  0.10259529  0.90440318  0.69874320  1
  Se  Se247  1  0.41975700  0.24633579  0.19126982  1
  Se  Se248  1  0.42400575  0.24031137  0.69516299  1
  Se  Se249  1  0.42353146  0.58741090  0.20186081  1
  Se  Se250  1  0.41189829  0.58453795  0.70094391  1
  Se  Se251  1  0.41110853  0.92160507  0.18766068  1
  Se  Se252  1  0.42668795  0.90956013  0.68902903  1
  Se  Se253  1  0.75724367  0.24456309  0.17538853  1
  Se  Se254  1  0.74859425  0.25106599  0.69635334  1
  Se  Se255  1  0.76449282  0.57342948  0.19614065  1
  Se  Se256  1  0.75010436  0.58094389  0.69263547  1
  Se  Se257  1  0.74818588  0.92589898  0.19188035  1
  Se  Se258  1  0.75917051  0.91154130  0.70834201  1
