# generated using pymatgen
data_In86Cu29Se144
_symmetry_space_group_name_H-M   'P 1'
_cell_length_a   17.57516960
_cell_length_b   17.57614811
_cell_length_c   23.43720132
_cell_angle_alpha   90.00854798
_cell_angle_beta   89.97542852
_cell_angle_gamma   89.98400074
_symmetry_Int_Tables_number   1
_chemical_formula_structural   In86Cu29Se144
_chemical_formula_sum   'In86 Cu29 Se144'
_cell_volume   7239.83914358
_cell_formula_units_Z   1
loop_
 _symmetry_equiv_pos_site_id
 _symmetry_equiv_pos_as_xyz
  1  'x, y, z'
loop_
 _atom_site_type_symbol
 _atom_site_label
 _atom_site_symmetry_multiplicity
 _atom_site_fract_x
 _atom_site_fract_y
 _atom_site_fract_z
 _atom_site_occupancy
  In  In0  1  -0.00127252  0.16278218  0.12745758  1
  In  In1  1  -0.01158356  0.15151838  0.63152012  1
  In  In2  1  -0.01311281  0.49947336  0.12771685  1
  In  In3  1  0.00530382  0.51847086  0.60110672  1
  In  In4  1  0.01309191  0.83479674  0.12611736  1
  In  In5  1  0.00645225  0.83868715  0.61819696  1
  In  In6  1  0.33379229  0.18251617  0.12306609  1
  In  In7  1  0.33745192  0.16016704  0.63065486  1
  In  In8  1  0.33916546  0.48869456  0.12830085  1
  In  In9  1  0.32450896  0.50945613  0.63192466  1
  In  In10  1  0.33325581  0.82755903  0.12397100  1
  In  In11  1  0.32158173  0.83394284  0.63651216  1
  In  In12  1  0.67620210  0.15903655  0.12965396  1
  In  In13  1  0.67440254  0.18196083  0.62736625  1
  In  In14  1  0.64872625  0.50168215  0.12647272  1
  In  In15  1  0.66810294  0.49832836  0.62429787  1
  In  In16  1  0.66915391  0.83779913  0.12256365  1
  In  In17  1  0.65954323  0.82329811  0.61918058  1
  In  In18  1  0.15513918  0.00429397  0.37376788  1
  In  In19  1  0.17246652  -0.00252338  0.87838638  1
  In  In20  1  0.17376535  0.34431110  0.36723010  1
  In  In21  1  0.16370147  0.31742402  0.87571178  1
  In  In22  1  0.17305219  0.65921993  0.38589346  1
  In  In23  1  0.18434873  0.67489762  0.86913119  1
  In  In24  1  0.52448103  -0.00491908  0.37471952  1
  In  In25  1  0.48079660  -0.00222517  0.87498741  1
  In  In26  1  0.49140850  0.32505918  0.36981856  1
  In  In27  1  0.50699775  0.34175313  0.86981095  1
  In  In28  1  0.48995724  0.68148327  0.36897459  1
  In  In29  1  0.50393142  0.66763123  0.87921236  1
  In  In30  1  0.82253343  -0.00900760  0.37416992  1
  In  In31  1  0.84806692  0.00381323  0.87111884  1
  In  In32  1  0.83862860  0.33721127  0.36706140  1
  In  In33  1  0.81860238  0.33094741  0.87332474  1
  In  In34  1  0.83816847  0.67033243  0.40404966  1
  In  In35  1  0.82475642  0.67022040  0.86774759  1
  In  In36  1  -0.00796768  0.16087461  0.36415530  1
  In  In37  1  0.01385635  0.15733721  0.88592464  1
  In  In38  1  0.00738958  0.50007372  0.38379542  1
  In  In39  1  -0.00539865  0.49533554  0.87345756  1
  In  In40  1  -0.00503441  0.84052886  0.38580076  1
  In  In41  1  0.00526113  0.85216858  0.87063499  1
  In  In42  1  0.33546936  0.17928247  0.37377896  1
  In  In43  1  0.32309919  0.15454407  0.86915147  1
  In  In44  1  0.32965637  0.49945244  0.37138958  1
  In  In45  1  0.34919108  0.51202341  0.86534342  1
  In  In46  1  0.34185325  0.81713637  0.37262336  1
  In  In47  1  0.33556681  0.83517222  0.87911799  1
  In  In48  1  0.65593927  0.15876794  0.37061931  1
  In  In49  1  0.66349610  0.18169456  0.87695536  1
  In  In50  1  0.68025478  0.50139545  0.37564000  1
  In  In51  1  0.65986448  0.49139445  0.86986586  1
  In  In52  1  0.67132805  0.83956653  0.38052831  1
  In  In53  1  0.66220118  0.81810030  0.87100633  1
  In  In54  1  0.16022958  -0.00920490  0.12261502  1
  In  In55  1  0.17179944  -0.01630415  0.63557269  1
  In  In56  1  0.17400820  0.32616307  0.12893799  1
  In  In57  1  0.16024245  0.34605552  0.62377598  1
  In  In58  1  0.17052388  0.68410326  0.12065494  1
  In  In59  1  0.17241567  0.67917642  0.61173992  1
  In  In60  1  0.51646309  -0.00154645  0.12533599  1
  In  In61  1  0.48372682  -0.00669846  0.62462862  1
  In  In62  1  0.49002616  0.33993329  0.13026027  1
  In  In63  1  0.50641299  0.32625121  0.62920522  1
  In  In64  1  0.49695352  0.65088419  0.11619104  1
  In  In65  1  0.49975635  0.66406925  0.63303841  1
  In  In66  1  0.82019097  0.00389806  0.13296840  1
  In  In67  1  0.84744474  0.01040713  0.62869150  1
  In  In68  1  0.84389912  0.32591228  0.13592700  1
  In  In69  1  0.82261113  0.33449383  0.62626824  1
  In  In70  1  0.82968481  0.67753673  0.12613079  1
  In  In71  1  0.82083433  0.66416047  0.60800447  1
  In  In72  1  0.16614859  0.17040718  0.49587464  1
  In  In73  1  0.66614987  0.00549141  0.74765639  1
  In  In74  1  0.82947735  0.16674025  0.50357352  1
  In  In75  1  0.82944418  0.83548549  -0.00058577  1
  In  In76  1  0.82642310  0.49678772  -0.00455812  1
  In  In77  1  0.00843364  0.65966833  0.26139567  1
  In  In78  1  -0.00901049  0.32994195  0.74546191  1
  In  In79  1  0.50150500  0.83443234  0.49543193  1
  In  In80  1  0.00698850  0.67596509  0.74306274  1
  In  In81  1  0.16847416  0.49943843  -0.00614222  1
  In  In82  1  0.33683967  0.00221011  0.24430062  1
  In  In83  1  0.50247528  0.49923658  0.50703886  1
  In  In84  1  0.66617805  0.66955196  0.25450564  1
  In  In85  1  0.49885039  0.16575176  -0.00029299  1
  Cu  Cu86  1  0.49857146  0.17217046  0.75275174  1
  Cu  Cu87  1  0.00139666  0.00386508  0.00134173  1
  Cu  Cu88  1  0.50081552  0.49721998  0.74776127  1
  Cu  Cu89  1  0.00070252  0.32197857  0.00853032  1
  Cu  Cu90  1  0.33737390  0.33657696  -0.00156218  1
  Cu  Cu91  1  0.49331771  0.82796011  0.75166150  1
  Cu  Cu92  1  0.32843664  -0.00335532  0.00070839  1
  Cu  Cu93  1  0.83840053  0.83505943  0.25634304  1
  Cu  Cu94  1  0.33200190  0.33695291  0.49507456  1
  Cu  Cu95  1  0.66517581  0.33238792  0.50119984  1
  Cu  Cu96  1  0.49498709  0.49608590  0.24924142  1
  Cu  Cu97  1  0.33682534  0.66750663  -0.00430233  1
  Cu  Cu98  1  0.82899475  0.83028413  0.74792004  1
  Cu  Cu99  1  0.33190594  0.66813268  0.50322517  1
  Cu  Cu100  1  -0.00133199  0.33576467  0.49476574  1
  Cu  Cu101  1  0.83010978  0.50276175  0.73883222  1
  Cu  Cu102  1  0.16090091  0.17122477  0.25022234  1
  Cu  Cu103  1  0.33207030  -0.00323653  0.50769013  1
  Cu  Cu104  1  0.67013585  -0.00062315  0.00157178  1
  Cu  Cu105  1  0.83372683  0.49786534  0.25541697  1
  Cu  Cu106  1  0.16729309  0.15950665  0.75336035  1
  Cu  Cu107  1  0.83178181  0.16610956  0.25033302  1
  Cu  Cu108  1  0.00462038  -0.00301980  0.50244387  1
  Cu  Cu109  1  0.16913534  0.83544034  0.24868451  1
  Cu  Cu110  1  0.16816085  0.50418668  0.25326993  1
  Cu  Cu111  1  0.50455164  0.16758464  0.24739456  1
  Cu  Cu112  1  0.00299246  0.67377042  -0.00207750  1
  Cu  Cu113  1  0.17167686  0.49757118  0.74627245  1
  Cu  Cu114  1  0.66657620  0.33441330  0.00193788  1
  Se  Se115  1  0.08534191  0.08435330  0.05733190  1
  Se  Se116  1  0.08343817  0.08027116  0.56147473  1
  Se  Se117  1  0.07706464  0.41598815  0.05995106  1
  Se  Se118  1  0.08632446  0.41796115  0.54548259  1
  Se  Se119  1  0.08573324  0.75793010  0.04871277  1
  Se  Se120  1  0.06353188  0.73595099  0.55006855  1
  Se  Se121  1  0.41016234  0.07586620  0.06256109  1
  Se  Se122  1  0.41518835  0.08545276  0.55392281  1
  Se  Se123  1  0.42060705  0.41856486  0.05146430  1
  Se  Se124  1  0.40834028  0.41084006  0.56323466  1
  Se  Se125  1  0.41759487  0.74719414  0.05484346  1
  Se  Se126  1  0.41331830  0.74881497  0.56201946  1
  Se  Se127  1  0.75292700  0.08277880  0.05326085  1
  Se  Se128  1  0.74140127  0.07591588  0.56265744  1
  Se  Se129  1  0.74736008  0.41052301  0.06571187  1
  Se  Se130  1  0.74859044  0.41579528  0.55262585  1
  Se  Se131  1  0.73787700  0.73797543  0.05132919  1
  Se  Se132  1  0.75390673  0.76776627  0.54643317  1
  Se  Se133  1  0.25051872  0.25494928  0.04958454  1
  Se  Se134  1  0.25401190  0.25719729  0.55941556  1
  Se  Se135  1  0.25529962  0.58722117  0.05788116  1
  Se  Se136  1  0.24959226  0.57913078  0.55211319  1
  Se  Se137  1  0.24921361  0.91187641  0.05700382  1
  Se  Se138  1  0.24947172  0.91140664  0.55775602  1
  Se  Se139  1  0.58635792  0.25322782  0.06340875  1
  Se  Se140  1  0.58420210  0.24828347  0.55427001  1
  Se  Se141  1  0.58780977  0.57898357  0.04727829  1
  Se  Se142  1  0.59089245  0.59778469  0.55750783  1
  Se  Se143  1  0.58556908  0.91450577  0.05019841  1
  Se  Se144  1  0.58557135  0.92777035  0.55705658  1
  Se  Se145  1  0.91090808  0.24407888  0.05873710  1
  Se  Se146  1  0.92674818  0.25600421  0.56048362  1
  Se  Se147  1  0.91924427  0.59492525  0.05420956  1
  Se  Se148  1  0.89413386  0.56988462  0.54278602  1
  Se  Se149  1  0.91993442  0.92171861  0.06186718  1
  Se  Se150  1  0.91507658  0.92201296  0.55596012  1
  Se  Se151  1  0.07460900  0.25460334  0.43281467  1
  Se  Se152  1  0.09008128  0.24624691  0.95491374  1
  Se  Se153  1  0.07888587  0.58978059  0.45169138  1
  Se  Se154  1  0.07677545  0.59231974  0.93445578  1
  Se  Se155  1  0.09188468  0.91806826  0.44935204  1
  Se  Se156  1  0.08407669  0.91873332  0.94892346  1
  Se  Se157  1  0.41788915  0.25009086  0.44897588  1
  Se  Se158  1  0.41245188  0.25278818  0.93548076  1
  Se  Se159  1  0.41444193  0.58972725  0.44295035  1
  Se  Se160  1  0.42003257  0.57981144  0.94703987  1
  Se  Se161  1  0.40967039  0.92599174  0.43668947  1
  Se  Se162  1  0.41808561  0.91505444  0.95263912  1
  Se  Se163  1  0.74564076  0.25492099  0.43763078  1
  Se  Se164  1  0.75035793  0.24988990  0.95124362  1
  Se  Se165  1  0.74312604  0.58107826  0.45336017  1
  Se  Se166  1  0.74013901  0.59012147  0.93826307  1
  Se  Se167  1  0.75999766  0.90753312  0.45173841  1
  Se  Se168  1  0.74463768  0.92317790  0.93337451  1
  Se  Se169  1  0.25931744  0.07716484  0.44010779  1
  Se  Se170  1  0.24917694  0.08580228  0.94976095  1
  Se  Se171  1  0.24818324  0.42101595  0.44434893  1
  Se  Se172  1  0.25856393  0.41221941  0.93279104  1
  Se  Se173  1  0.25388558  0.75462261  0.44786374  1
  Se  Se174  1  0.24926299  0.75216331  0.94881818  1
  Se  Se175  1  0.58494693  0.08354287  0.44838578  1
  Se  Se176  1  0.58747634  0.07516537  0.93794569  1
  Se  Se177  1  0.58457144  0.41104576  0.43923179  1
  Se  Se178  1  0.58370389  0.41540991  0.94724953  1
  Se  Se179  1  0.59036663  0.73731268  0.44080359  1
  Se  Se180  1  0.57824738  0.75887423  0.94729054  1
  Se  Se181  1  0.92263069  0.07839358  0.44330868  1
  Se  Se182  1  0.91438069  0.08423222  0.94952665  1
  Se  Se183  1  0.91186635  0.41617688  0.44281206  1
  Se  Se184  1  0.92470044  0.40209108  0.94469673  1
  Se  Se185  1  0.94082722  0.74477003  0.45981091  1
  Se  Se186  1  0.92090099  0.74844759  0.93492490  1
  Se  Se187  1  0.24937108  0.25075876  0.30184570  1
  Se  Se188  1  0.24925231  0.24892311  0.80189133  1
  Se  Se189  1  0.24931043  0.58974543  0.30579987  1
  Se  Se190  1  0.25161322  0.58264748  0.80017279  1
  Se  Se191  1  0.24903036  0.91621940  0.31027480  1
  Se  Se192  1  0.26257900  0.92471833  0.81005510  1
  Se  Se193  1  0.58499677  0.25230843  0.30268301  1
  Se  Se194  1  0.58665219  0.25495533  0.80069739  1
  Se  Se195  1  0.57369451  0.57527061  0.31223054  1
  Se  Se196  1  0.57995850  0.58166676  0.80547367  1
  Se  Se197  1  0.58410139  0.89962390  0.30514430  1
  Se  Se198  1  0.57542681  0.91443507  0.80769263  1
  Se  Se199  1  0.91827157  0.25253902  0.29798277  1
  Se  Se200  1  0.91954816  0.24513586  0.81910655  1
  Se  Se201  1  0.90509244  0.58312258  0.31802646  1
  Se  Se202  1  0.91295331  0.57848711  0.80172938  1
  Se  Se203  1  0.92093703  0.91865734  0.30952920  1
  Se  Se204  1  0.91373430  0.91474077  0.79755951  1
  Se  Se205  1  0.08057404  0.08072058  0.29801709  1
  Se  Se206  1  0.08469410  0.07865996  0.80900559  1
  Se  Se207  1  0.07990012  0.42416969  0.30473938  1
  Se  Se208  1  0.08824378  0.41965856  0.80565891  1
  Se  Se209  1  0.09247072  0.75913429  0.31567663  1
  Se  Se210  1  0.09403879  0.76339248  0.80584351  1
  Se  Se211  1  0.42497828  0.08760952  0.31004397  1
  Se  Se212  1  0.41525686  0.08321454  0.79983887  1
  Se  Se213  1  0.41076309  0.41393904  0.30406717  1
  Se  Se214  1  0.41603457  0.41287063  0.79982022  1
  Se  Se215  1  0.41334367  0.74970400  0.29183166  1
  Se  Se216  1  0.41493952  0.74640659  0.81065991  1
  Se  Se217  1  0.75021390  0.08237761  0.30627336  1
  Se  Se218  1  0.75182137  0.09210117  0.81212775  1
  Se  Se219  1  0.74447575  0.41352421  0.30117269  1
  Se  Se220  1  0.75438253  0.42118576  0.80066521  1
  Se  Se221  1  0.76672102  0.74670449  0.31653544  1
  Se  Se222  1  0.74316651  0.74535195  0.79526771  1
  Se  Se223  1  0.24292051  0.09303190  0.18795049  1
  Se  Se224  1  0.25081485  0.07879475  0.69677716  1
  Se  Se225  1  0.24745379  0.41743088  0.19715331  1
  Se  Se226  1  0.25236059  0.40978937  0.69568027  1
  Se  Se227  1  0.25150287  0.74957250  0.19833920  1
  Se  Se228  1  0.24446132  0.73784188  0.69604146  1
  Se  Se229  1  0.58890400  0.08050336  0.19896151  1
  Se  Se230  1  0.57281650  0.09155184  0.68714170  1
  Se  Se231  1  0.58224027  0.41348057  0.19928081  1
  Se  Se232  1  0.58681970  0.41616852  0.69400749  1
  Se  Se233  1  0.58057636  0.74645602  0.18468195  1
  Se  Se234  1  0.58244924  0.75217043  0.69762073  1
  Se  Se235  1  0.91387307  0.08064879  0.19664318  1
  Se  Se236  1  0.90896152  0.08826941  0.70950560  1
  Se  Se237  1  0.92072985  0.41716980  0.20341489  1
  Se  Se238  1  0.91980846  0.43069370  0.68075312  1
  Se  Se239  1  0.91881163  0.75297433  0.19741685  1
  Se  Se240  1  0.90658483  0.75177949  0.68330528  1
  Se  Se241  1  0.07896376  0.25368491  0.19430575  1
  Se  Se242  1  0.08977549  0.23963663  0.68959069  1
  Se  Se243  1  0.09179916  0.58072326  0.18576320  1
  Se  Se244  1  0.08932409  0.57625147  0.68589476  1
  Se  Se245  1  0.08159131  0.91899085  0.20092726  1
  Se  Se246  1  0.06944667  0.91896648  0.69729449  1
  Se  Se247  1  0.41499196  0.25021514  0.19962680  1
  Se  Se248  1  0.41397658  0.25235135  0.69660095  1
  Se  Se249  1  0.41591658  0.58124280  0.19384334  1
  Se  Se250  1  0.41459006  0.58392405  0.70003297  1
  Se  Se251  1  0.42821853  0.91011505  0.19008518  1
  Se  Se252  1  0.41168440  0.91560599  0.70078784  1
  Se  Se253  1  0.74737706  0.25078751  0.19876742  1
  Se  Se254  1  0.76308728  0.24572082  0.70031096  1
  Se  Se255  1  0.75783292  0.57813678  0.19209342  1
  Se  Se256  1  0.74871442  0.58990648  0.68873468  1
  Se  Se257  1  0.74935919  0.90827401  0.19959583  1
  Se  Se258  1  0.75116131  0.91234681  0.68644405  1
