# generated using pymatgen
data_In86Cu29Se144
_symmetry_space_group_name_H-M   'P 1'
_cell_length_a   17.57285356
_cell_length_b   17.57135343
_cell_length_c   23.43103709
_cell_angle_alpha   90.00904097
_cell_angle_beta   89.99226143
_cell_angle_gamma   89.99170631
_symmetry_Int_Tables_number   1
_chemical_formula_structural   In86Cu29Se144
_chemical_formula_sum   'In86 Cu29 Se144'
_cell_volume   7235.00776767
_cell_formula_units_Z   1
loop_
 _symmetry_equiv_pos_site_id
 _symmetry_equiv_pos_as_xyz
  1  'x, y, z'
loop_
 _atom_site_type_symbol
 _atom_site_label
 _atom_site_symmetry_multiplicity
 _atom_site_fract_x
 _atom_site_fract_y
 _atom_site_fract_z
 _atom_site_occupancy
  In  In0  1  0.01243083  0.16089278  0.11928453  1
  In  In1  1  -0.00384455  0.17223775  0.63188247  1
  In  In2  1  0.01479250  0.50480956  0.10739202  1
  In  In3  1  -0.01449097  0.49502553  0.62484069  1
  In  In4  1  -0.01305331  0.82901277  0.13005155  1
  In  In5  1  0.01234521  0.83849486  0.62518195  1
  In  In6  1  0.33290448  0.15566413  0.12354734  1
  In  In7  1  0.34758110  0.15460999  0.63385455  1
  In  In8  1  0.33919903  0.50337282  0.11236967  1
  In  In9  1  0.33789767  0.49806085  0.63736337  1
  In  In10  1  0.34623697  0.82662491  0.14121716  1
  In  In11  1  0.34180985  0.82799789  0.63189371  1
  In  In12  1  0.65715981  0.16194160  0.12188911  1
  In  In13  1  0.66039050  0.16999648  0.62324732  1
  In  In14  1  0.65772498  0.49724452  0.11311239  1
  In  In15  1  0.67880706  0.48988654  0.63761493  1
  In  In16  1  0.65920620  0.85087150  0.13127493  1
  In  In17  1  0.65300703  0.84755274  0.63186075  1
  In  In18  1  0.17202125  -0.00067546  0.37152599  1
  In  In19  1  0.17984070  0.01470135  0.87066916  1
  In  In20  1  0.17225066  0.34086673  0.37640879  1
  In  In21  1  0.16888925  0.32938341  0.87861173  1
  In  In22  1  0.18996185  0.70305339  0.34259439  1
  In  In23  1  0.16729078  0.65285143  0.87739979  1
  In  In24  1  0.50231910  -0.00269092  0.37046453  1
  In  In25  1  0.50090083  0.00150395  0.87605310  1
  In  In26  1  0.50032476  0.32418950  0.38031792  1
  In  In27  1  0.49887961  0.33380070  0.87202345  1
  In  In28  1  0.49711686  0.67663377  0.37431974  1
  In  In29  1  0.49864401  0.66985522  0.87625373  1
  In  In30  1  0.83440061  0.02104185  0.38360941  1
  In  In31  1  0.83293859  0.00139250  0.86275941  1
  In  In32  1  0.83098530  0.33029334  0.38859615  1
  In  In33  1  0.84071926  0.34408078  0.86783079  1
  In  In34  1  0.83528934  0.65531236  0.37680597  1
  In  In35  1  0.81789486  0.65906284  0.86906108  1
  In  In36  1  -0.01715478  0.15423148  0.37949069  1
  In  In37  1  0.01465457  0.18273939  0.86633556  1
  In  In38  1  -0.00637368  0.50247451  0.37582070  1
  In  In39  1  0.01437953  0.47457502  0.89510992  1
  In  In40  1  0.01666695  0.83349314  0.37211902  1
  In  In41  1  -0.01148649  0.83593637  0.87215903  1
  In  In42  1  0.34857368  0.16001400  0.36655668  1
  In  In43  1  0.33632993  0.16824134  0.87655406  1
  In  In44  1  0.32579412  0.50849392  0.37071552  1
  In  In45  1  0.33460947  0.50175383  0.87485141  1
  In  In46  1  0.35717737  0.85803129  0.34752747  1
  In  In47  1  0.34377993  0.84681308  0.87031882  1
  In  In48  1  0.66829509  0.16270749  0.38110368  1
  In  In49  1  0.65520651  0.15614505  0.86556460  1
  In  In50  1  0.66935685  0.50584308  0.38183591  1
  In  In51  1  0.66440261  0.50123895  0.87401216  1
  In  In52  1  0.64274613  0.83725488  0.38234674  1
  In  In53  1  0.65588626  0.82443574  0.86710996  1
  In  In54  1  0.17654611  0.01276189  0.12425607  1
  In  In55  1  0.16760327  0.00629176  0.63450446  1
  In  In56  1  0.16585932  0.32958696  0.11206899  1
  In  In57  1  0.16969683  0.33030557  0.63942296  1
  In  In58  1  0.17881376  0.66284078  0.12977050  1
  In  In59  1  0.17390658  0.67440285  0.62948527  1
  In  In60  1  0.49836530  -0.00109389  0.12532969  1
  In  In61  1  0.50117957  0.00087936  0.62329411  1
  In  In62  1  0.49272010  0.32392553  0.11226859  1
  In  In63  1  0.51898943  0.31443823  0.64269851  1
  In  In64  1  0.49401390  0.66541111  0.11982792  1
  In  In65  1  0.49584699  0.67451891  0.63141306  1
  In  In66  1  0.83123240  -0.00846928  0.12795464  1
  In  In67  1  0.82722865  0.01133280  0.62761186  1
  In  In68  1  0.82308286  0.33394662  0.11595128  1
  In  In69  1  0.82836189  0.33557816  0.62840946  1
  In  In70  1  0.83815833  0.66257998  0.12637451  1
  In  In71  1  0.83505333  0.64582097  0.62194463  1
  In  In72  1  0.82577694  0.82949676  0.00452349  1
  In  In73  1  0.82812760  0.83513632  0.51057941  1
  In  In74  1  0.65978686  0.67329662  0.25009604  1
  In  In75  1  0.17007825  0.83302392  0.00779297  1
  In  In76  1  0.00157578  0.33575092  0.23682326  1
  In  In77  1  0.83932284  0.17347125  -0.00732602  1
  In  In78  1  0.15893768  0.50632323  0.49566883  1
  In  In79  1  0.00090641  -0.00035689  0.25360419  1
  In  In80  1  0.66163898  0.33050321  0.25945306  1
  In  In81  1  0.33410222  0.32820113  0.24037910  1
  In  In82  1  -0.00129356  0.66300162  0.74861451  1
  In  In83  1  0.51040838  0.48567059  0.50676005  1
  In  In84  1  0.16015797  0.16996504  0.49994107  1
  In  In85  1  0.17474880  0.83828513  0.48967345  1
  Cu  Cu86  1  0.33999947  -0.00424100  0.49974080  1
  Cu  Cu87  1  0.16712692  0.49697472  0.75924327  1
  Cu  Cu88  1  0.49554244  0.16515764  0.75139347  1
  Cu  Cu89  1  0.01173979  0.00516549  -0.00669509  1
  Cu  Cu90  1  0.83588179  0.49702351  0.75411195  1
  Cu  Cu91  1  0.16357172  0.50913062  0.24196157  1
  Cu  Cu92  1  0.65690021  0.00068500  0.50253582  1
  Cu  Cu93  1  0.33632173  0.33452800  -0.00654869  1
  Cu  Cu94  1  0.34109882  0.32238822  0.50579767  1
  Cu  Cu95  1  0.50021871  0.50785764  0.75615234  1
  Cu  Cu96  1  0.34286681  0.00351213  -0.00293473  1
  Cu  Cu97  1  0.82716448  0.83466386  0.25505068  1
  Cu  Cu98  1  0.00373649  0.66476670  0.49162232  1
  Cu  Cu99  1  0.50033113  0.83975136  0.75148896  1
  Cu  Cu100  1  0.49294351  0.49760948  0.24223186  1
  Cu  Cu101  1  -0.00568229  0.65780707  0.00170987  1
  Cu  Cu102  1  0.16774357  0.16661481  0.75520726  1
  Cu  Cu103  1  -0.00785438  0.33309507  0.50595291  1
  Cu  Cu104  1  0.82864548  0.16841890  0.74722121  1
  Cu  Cu105  1  0.66527156  0.66277042  0.50155338  1
  Cu  Cu106  1  0.65950596  0.66694896  -0.00485645  1
  Cu  Cu107  1  0.66294034  -0.00172328  -0.00327852  1
  Cu  Cu108  1  0.82923846  0.16661286  0.25602057  1
  Cu  Cu109  1  0.83280902  0.83692887  0.74531860  1
  Cu  Cu110  1  0.83805260  0.50320546  0.24923973  1
  Cu  Cu111  1  0.33431308  0.67093088  0.00052702  1
  Cu  Cu112  1  0.66337201  0.33394821  -0.00864508  1
  Cu  Cu113  1  0.17189973  0.83579720  0.75074350  1
  Cu  Cu114  1  0.34003434  0.66650527  0.50165918  1
  Se  Se115  1  0.09496078  0.08483555  0.04785306  1
  Se  Se116  1  0.07736824  0.07829369  0.56178756  1
  Se  Se117  1  0.08542357  0.41043441  0.04369167  1
  Se  Se118  1  0.08369663  0.40844799  0.56095758  1
  Se  Se119  1  0.07079100  0.74333498  0.06073436  1
  Se  Se120  1  0.08351311  0.74234305  0.55269334  1
  Se  Se121  1  0.42465708  0.08690730  0.05291297  1
  Se  Se122  1  0.41843685  0.08430192  0.55264507  1
  Se  Se123  1  0.42178074  0.41837261  0.04638634  1
  Se  Se124  1  0.41434729  0.40548228  0.56784260  1
  Se  Se125  1  0.41208857  0.75715919  0.05624909  1
  Se  Se126  1  0.41877946  0.75227172  0.55553524  1
  Se  Se127  1  0.75327632  0.07566886  0.05268466  1
  Se  Se128  1  0.74231374  0.08257994  0.55473286  1
  Se  Se129  1  0.74487289  0.41681523  0.04660607  1
  Se  Se130  1  0.75863115  0.42834571  0.55882705  1
  Se  Se131  1  0.73393969  0.74178779  0.06544300  1
  Se  Se132  1  0.73945824  0.74188826  0.56744558  1
  Se  Se133  1  0.26220392  0.24969705  0.05413710  1
  Se  Se134  1  0.25349574  0.24994874  0.56480107  1
  Se  Se135  1  0.24744416  0.58659202  0.05004072  1
  Se  Se136  1  0.25766754  0.58671011  0.55914473  1
  Se  Se137  1  0.26541073  0.92269020  0.06075767  1
  Se  Se138  1  0.25566944  0.92252369  0.56144579  1
  Se  Se139  1  0.58786524  0.24770222  0.04883691  1
  Se  Se140  1  0.57694447  0.25288903  0.55490018  1
  Se  Se141  1  0.57471632  0.58375784  0.04938970  1
  Se  Se142  1  0.58872062  0.58454696  0.56714123  1
  Se  Se143  1  0.58095661  0.91641436  0.05238756  1
  Se  Se144  1  0.57525921  0.91169513  0.55119916  1
  Se  Se145  1  0.92846243  0.25740779  0.05789042  1
  Se  Se146  1  0.91326715  0.24959540  0.56054458  1
  Se  Se147  1  0.90611900  0.57736844  0.05263067  1
  Se  Se148  1  0.92372839  0.58118421  0.54729668  1
  Se  Se149  1  0.92726837  0.92625895  0.05239867  1
  Se  Se150  1  0.92445278  0.92505759  0.56175672  1
  Se  Se151  1  0.07117082  0.26242960  0.43795986  1
  Se  Se152  1  0.08497965  0.24790811  0.94782814  1
  Se  Se153  1  0.08948013  0.59948213  0.42689475  1
  Se  Se154  1  0.08579631  0.58100582  0.95141654  1
  Se  Se155  1  0.07385651  0.93291724  0.44505130  1
  Se  Se156  1  0.08543302  0.91617844  0.93654455  1
  Se  Se157  1  0.41563286  0.24069102  0.44578191  1
  Se  Se158  1  0.42227011  0.24925864  0.94458035  1
  Se  Se159  1  0.41740883  0.57760861  0.44545733  1
  Se  Se160  1  0.41540108  0.58674593  0.94495994  1
  Se  Se161  1  0.41556315  0.91260636  0.43969560  1
  Se  Se162  1  0.42377116  0.91481311  0.94775028  1
  Se  Se163  1  0.75781547  0.23560400  0.44956897  1
  Se  Se164  1  0.74243254  0.25221471  0.93107549  1
  Se  Se165  1  0.75369270  0.58239330  0.45203935  1
  Se  Se166  1  0.74673130  0.58344471  0.94687736  1
  Se  Se167  1  0.74239091  0.92127996  0.44354113  1
  Se  Se168  1  0.74654311  0.92012047  0.93752290  1
  Se  Se169  1  0.25690273  0.07951772  0.44350357  1
  Se  Se170  1  0.25390687  0.08659116  0.94908976  1
  Se  Se171  1  0.26479320  0.41175267  0.44933058  1
  Se  Se172  1  0.25125500  0.41938856  0.94395886  1
  Se  Se173  1  0.26384125  0.74335366  0.43620669  1
  Se  Se174  1  0.25452497  0.74980221  0.93836136  1
  Se  Se175  1  0.57596108  0.08144953  0.44402898  1
  Se  Se176  1  0.58206675  0.08670053  0.94641201  1
  Se  Se177  1  0.60117577  0.39922938  0.44362457  1
  Se  Se178  1  0.57873625  0.41994251  0.94208212  1
  Se  Se179  1  0.57694031  0.74413182  0.45262365  1
  Se  Se180  1  0.57924550  0.75651372  0.94664860  1
  Se  Se181  1  0.91467578  0.08640485  0.46094240  1
  Se  Se182  1  0.92493274  0.07778348  0.93382575  1
  Se  Se183  1  0.91802974  0.42075383  0.44820925  1
  Se  Se184  1  0.90307649  0.41656611  0.95113459  1
  Se  Se185  1  0.91932618  0.75286376  0.44143648  1
  Se  Se186  1  0.91681871  0.74015104  0.94153299  1
  Se  Se187  1  0.24600074  0.24682953  0.30987321  1
  Se  Se188  1  0.25222133  0.25040569  0.80719004  1
  Se  Se189  1  0.25433341  0.58529088  0.29421261  1
  Se  Se190  1  0.25229347  0.58613924  0.80312016  1
  Se  Se191  1  0.21990351  0.88627085  0.31271019  1
  Se  Se192  1  0.25328039  0.92223706  0.80324274  1
  Se  Se193  1  0.56981107  0.23251956  0.30716646  1
  Se  Se194  1  0.58099878  0.25132199  0.80089661  1
  Se  Se195  1  0.57475957  0.57118825  0.30762973  1
  Se  Se196  1  0.58601473  0.59152994  0.80673096  1
  Se  Se197  1  0.57927884  0.90866501  0.30146880  1
  Se  Se198  1  0.58551840  0.92323869  0.80378523  1
  Se  Se199  1  0.91305708  0.25248076  0.30739950  1
  Se  Se200  1  0.91321925  0.24902128  0.80247143  1
  Se  Se201  1  0.92007078  0.58611271  0.30189513  1
  Se  Se202  1  0.92092744  0.57302721  0.81578403  1
  Se  Se203  1  0.90722458  0.91442513  0.31682923  1
  Se  Se204  1  0.91978170  0.91770299  0.79693277  1
  Se  Se205  1  0.08762155  0.09771934  0.31050210  1
  Se  Se206  1  0.08096989  0.07972756  0.80354572  1
  Se  Se207  1  0.09046120  0.42480428  0.30345178  1
  Se  Se208  1  0.08188241  0.41269271  0.80907960  1
  Se  Se209  1  0.06236212  0.73936964  0.29660354  1
  Se  Se210  1  0.08939667  0.75452190  0.80997108  1
  Se  Se211  1  0.39859137  0.05537095  0.29961441  1
  Se  Se212  1  0.41474047  0.08126611  0.80681752  1
  Se  Se213  1  0.42068468  0.41799718  0.30943125  1
  Se  Se214  1  0.41612614  0.41972619  0.80441990  1
  Se  Se215  1  0.40845049  0.73558373  0.30041413  1
  Se  Se216  1  0.41838931  0.75357491  0.80458832  1
  Se  Se217  1  0.74743519  0.08194147  0.30709586  1
  Se  Se218  1  0.74519447  0.08098576  0.79720768  1
  Se  Se219  1  0.76038177  0.42424279  0.31078742  1
  Se  Se220  1  0.74441231  0.41656799  0.80315167  1
  Se  Se221  1  0.74945791  0.75486643  0.31776857  1
  Se  Se222  1  0.75228147  0.75346920  0.80067483  1
  Se  Se223  1  0.24935498  0.08844327  0.20009487  1
  Se  Se224  1  0.25365917  0.08404426  0.70207424  1
  Se  Se225  1  0.24286165  0.42298449  0.18473787  1
  Se  Se226  1  0.25259768  0.41631589  0.70394769  1
  Se  Se227  1  0.23754549  0.76181315  0.19633315  1
  Se  Se228  1  0.25518178  0.74856151  0.70149108  1
  Se  Se229  1  0.59901303  0.06708835  0.19067721  1
  Se  Se230  1  0.57988343  0.08532784  0.69390702  1
  Se  Se231  1  0.57588541  0.41408082  0.18850067  1
  Se  Se232  1  0.58181190  0.42136267  0.70300772  1
  Se  Se233  1  0.56794223  0.76088445  0.19272754  1
  Se  Se234  1  0.58369869  0.75275285  0.69981655  1
  Se  Se235  1  0.91141060  0.09338207  0.19102816  1
  Se  Se236  1  0.91663738  0.08325650  0.69860321  1
  Se  Se237  1  0.90831398  0.42610177  0.18168441  1
  Se  Se238  1  0.91783214  0.41259641  0.69994473  1
  Se  Se239  1  0.90579811  0.74931749  0.20073090  1
  Se  Se240  1  0.91125615  0.75386429  0.68470103  1
  Se  Se241  1  0.09860094  0.24050580  0.19163695  1
  Se  Se242  1  0.08112536  0.24947830  0.70292147  1
  Se  Se243  1  0.07581544  0.58588741  0.18771061  1
  Se  Se244  1  0.09151286  0.57171051  0.68903835  1
  Se  Se245  1  0.08452573  0.91608804  0.18544415  1
  Se  Se246  1  0.08519403  0.91750033  0.69978662  1
  Se  Se247  1  0.43153266  0.23658018  0.19183311  1
  Se  Se248  1  0.41016616  0.25344411  0.70235257  1
  Se  Se249  1  0.41218125  0.58183003  0.18969572  1
  Se  Se250  1  0.41595961  0.58972880  0.70079597  1
  Se  Se251  1  0.40239926  0.93913486  0.19967548  1
  Se  Se252  1  0.41732385  0.92195632  0.69564512  1
  Se  Se253  1  0.75353494  0.24668452  0.19307262  1
  Se  Se254  1  0.74373384  0.25122399  0.69488382  1
  Se  Se255  1  0.74442968  0.57348337  0.19205364  1
  Se  Se256  1  0.75504918  0.58553596  0.70295242  1
  Se  Se257  1  0.74850363  0.92153621  0.20249824  1
  Se  Se258  1  0.74867680  0.92206481  0.69489448  1
