# generated using pymatgen
data_In86Cu29Se144
_symmetry_space_group_name_H-M   'P 1'
_cell_length_a   17.58354516
_cell_length_b   17.58454549
_cell_length_c   23.44053129
_cell_angle_alpha   90.03106147
_cell_angle_beta   90.01463672
_cell_angle_gamma   90.00755351
_symmetry_Int_Tables_number   1
_chemical_formula_structural   In86Cu29Se144
_chemical_formula_sum   'In86 Cu29 Se144'
_cell_volume   7247.77925931
_cell_formula_units_Z   1
loop_
 _symmetry_equiv_pos_site_id
 _symmetry_equiv_pos_as_xyz
  1  'x, y, z'
loop_
 _atom_site_type_symbol
 _atom_site_label
 _atom_site_symmetry_multiplicity
 _atom_site_fract_x
 _atom_site_fract_y
 _atom_site_fract_z
 _atom_site_occupancy
  In  In0  1  0.00941504  0.17218731  0.11656988  1
  In  In1  1  -0.00080523  0.16704054  0.62746105  1
  In  In2  1  0.01227718  0.49465697  0.13382035  1
  In  In3  1  0.00506435  0.52538398  0.60552403  1
  In  In4  1  -0.00500752  0.82657484  0.12186804  1
  In  In5  1  -0.02614686  0.80657890  0.60107141  1
  In  In6  1  0.33514562  0.16814452  0.12880368  1
  In  In7  1  0.33904974  0.15042196  0.63450283  1
  In  In8  1  0.31708265  0.49545433  0.12324703  1
  In  In9  1  0.32864962  0.51313421  0.61689462  1
  In  In10  1  0.34515070  0.83933992  0.11476685  1
  In  In11  1  0.34249489  0.84444921  0.61969184  1
  In  In12  1  0.66740284  0.16450670  0.11983657  1
  In  In13  1  0.65591083  0.16625826  0.62932116  1
  In  In14  1  0.65810584  0.49375777  0.12618617  1
  In  In15  1  0.68669720  0.50676088  0.61380550  1
  In  In16  1  0.66839584  0.83804915  0.11684879  1
  In  In17  1  0.67273832  0.84291580  0.63786028  1
  In  In18  1  0.17605513  -0.01511780  0.37269542  1
  In  In19  1  0.17325759  -0.00802199  0.88099025  1
  In  In20  1  0.17229562  0.33990159  0.36862824  1
  In  In21  1  0.16481630  0.33462622  0.89038660  1
  In  In22  1  0.15287441  0.67459519  0.38202303  1
  In  In23  1  0.15585918  0.67787603  0.88624005  1
  In  In24  1  0.49925865  0.00165643  0.37955697  1
  In  In25  1  0.49347535  0.00450147  0.87186518  1
  In  In26  1  0.48816883  0.31416285  0.36086935  1
  In  In27  1  0.49027880  0.32942378  0.88105381  1
  In  In28  1  0.51254731  0.67440941  0.38058935  1
  In  In29  1  0.51926627  0.67111833  0.86786169  1
  In  In30  1  0.82369359  -0.00556485  0.37915675  1
  In  In31  1  0.82199672  0.00640447  0.87567048  1
  In  In32  1  0.84396137  0.33882136  0.36291156  1
  In  In33  1  0.82487768  0.32350708  0.87881030  1
  In  In34  1  0.85738380  0.64082822  0.40949991  1
  In  In35  1  0.84669560  0.68361293  0.85443368  1
  In  In36  1  -0.01012994  0.17376415  0.36825219  1
  In  In37  1  -0.00475709  0.16878056  0.88601699  1
  In  In38  1  0.00552339  0.50311956  0.37545608  1
  In  In39  1  -0.00242500  0.51334804  0.87404572  1
  In  In40  1  0.00768607  0.81927549  0.38963288  1
  In  In41  1  0.00403834  0.82726163  0.87774590  1
  In  In42  1  0.34648687  0.16621776  0.36199698  1
  In  In43  1  0.34808874  0.14678997  0.89296250  1
  In  In44  1  0.32703624  0.48385813  0.37451898  1
  In  In45  1  0.32826380  0.49283339  0.87865584  1
  In  In46  1  0.33517722  0.84076750  0.37423756  1
  In  In47  1  0.31757683  0.84039879  0.88254437  1
  In  In48  1  0.65071481  0.15864669  0.37091103  1
  In  In49  1  0.66799822  0.15288074  0.87649883  1
  In  In50  1  0.68239163  0.49746504  0.37911229  1
  In  In51  1  0.66700666  0.50746770  0.86956448  1
  In  In52  1  0.67474596  0.81668974  0.39354316  1
  In  In53  1  0.66866306  0.83545336  0.87283231  1
  In  In54  1  0.17698231  0.00810209  0.11946413  1
  In  In55  1  0.18120625  -0.00635731  0.63175197  1
  In  In56  1  0.16894085  0.33157082  0.12914588  1
  In  In57  1  0.15338009  0.34122083  0.62141162  1
  In  In58  1  0.16328285  0.65722282  0.11606784  1
  In  In59  1  0.15876273  0.66902644  0.61419660  1
  In  In60  1  0.49576649  -0.00227244  0.12205504  1
  In  In61  1  0.50312082  0.00492657  0.63318338  1
  In  In62  1  0.51021035  0.31447225  0.14183817  1
  In  In63  1  0.50877548  0.32244312  0.61947343  1
  In  In64  1  0.49187906  0.67934297  0.11954573  1
  In  In65  1  0.50262477  0.68976499  0.62218484  1
  In  In66  1  0.82892935  -0.00650389  0.11450520  1
  In  In67  1  0.83215769  -0.01994826  0.63829117  1
  In  In68  1  0.84313466  0.32902619  0.13135269  1
  In  In69  1  0.82031700  0.34615144  0.61878536  1
  In  In70  1  0.83854936  0.68153610  0.12394984  1
  In  In71  1  0.83259122  0.67476100  0.62872443  1
  In  In72  1  0.82699665  0.16512016  0.50200021  1
  In  In73  1  0.33480774  0.67145202  0.74991668  1
  In  In74  1  0.83433560  0.49766447  -0.00431093  1
  In  In75  1  0.67520709  0.66308674  0.25833691  1
  In  In76  1  0.49725156  0.49960590  0.49602204  1
  In  In77  1  0.66194840  -0.00352645  0.24745566  1
  In  In78  1  0.33063776  0.66172266  0.24287286  1
  In  In79  1  0.66858878  0.32937343  0.75342860  1
  In  In80  1  0.49458020  0.50114268  0.00175284  1
  In  In81  1  -0.00037385  -0.00968843  0.75028533  1
  In  In82  1  0.17465328  0.16907299  0.49578899  1
  In  In83  1  0.33074372  0.32935718  0.75275512  1
  In  In84  1  -0.00451112  0.33730064  0.75627472  1
  In  In85  1  0.00463565  0.00242277  0.24776861  1
  Cu  Cu86  1  0.34339992  -0.00280191  0.50385436  1
  Cu  Cu87  1  0.66257917  0.32276405  0.00133483  1
  Cu  Cu88  1  0.16323912  0.83091551  0.75191858  1
  Cu  Cu89  1  0.17091222  0.16487098  0.76046277  1
  Cu  Cu90  1  0.83855420  0.50645165  0.25558596  1
  Cu  Cu91  1  0.65903745  -0.00697246  0.50756400  1
  Cu  Cu92  1  0.00748862  -0.00152975  0.50231972  1
  Cu  Cu93  1  0.00298531  0.33065673  0.01009062  1
  Cu  Cu94  1  0.66405958  0.32895794  0.49305301  1
  Cu  Cu95  1  0.32930579  0.00223042  0.00184264  1
  Cu  Cu96  1  0.16382379  0.51039311  0.74486583  1
  Cu  Cu97  1  0.84241788  0.50714691  0.74083872  1
  Cu  Cu98  1  0.16933944  0.82975004  0.25272552  1
  Cu  Cu99  1  0.15896477  0.50364299  0.25016200  1
  Cu  Cu100  1  -0.00468509  0.34533410  0.49514328  1
  Cu  Cu101  1  0.83276629  0.17113050  0.24144105  1
  Cu  Cu102  1  0.49837020  0.49052118  0.25012088  1
  Cu  Cu103  1  0.50957422  0.49998657  0.74335094  1
  Cu  Cu104  1  0.16761761  0.16879395  0.24329131  1
  Cu  Cu105  1  0.32365354  0.67057687  0.49545034  1
  Cu  Cu106  1  0.49908192  0.84460831  0.74969748  1
  Cu  Cu107  1  0.65846719  -0.00119471  -0.00474284  1
  Cu  Cu108  1  0.84562692  0.82695309  0.25487070  1
  Cu  Cu109  1  0.00028936  0.66400175  -0.00180384  1
  Cu  Cu110  1  0.32993019  0.33034542  0.00825596  1
  Cu  Cu111  1  -0.00169825  -0.00891414  -0.00359309  1
  Cu  Cu112  1  0.67096510  0.67741520  -0.00498661  1
  Cu  Cu113  1  0.50463757  0.83608353  0.24854823  1
  Cu  Cu114  1  0.32993388  0.32499332  0.49363619  1
  Se  Se115  1  0.07883526  0.07476768  0.05255980  1
  Se  Se116  1  0.08509570  0.08186216  0.56068661  1
  Se  Se117  1  0.08738504  0.41726182  0.05853658  1
  Se  Se118  1  0.08343815  0.42384915  0.54797869  1
  Se  Se119  1  0.08176945  0.74840567  0.05273424  1
  Se  Se120  1  0.08702361  0.75636990  0.54363355  1
  Se  Se121  1  0.41311063  0.08436321  0.05640748  1
  Se  Se122  1  0.42085336  0.08462796  0.55794129  1
  Se  Se123  1  0.41700492  0.40749780  0.06680340  1
  Se  Se124  1  0.40803841  0.40609503  0.55829490  1
  Se  Se125  1  0.42110869  0.75379977  0.04396449  1
  Se  Se126  1  0.40909144  0.74956150  0.54996692  1
  Se  Se127  1  0.74524320  0.07923542  0.05046594  1
  Se  Se128  1  0.74497228  0.07391631  0.56531937  1
  Se  Se129  1  0.74358957  0.40877881  0.05691145  1
  Se  Se130  1  0.74952308  0.41755955  0.53829094  1
  Se  Se131  1  0.75577382  0.75551033  0.05143714  1
  Se  Se132  1  0.75308183  0.76648899  0.56525131  1
  Se  Se133  1  0.24550766  0.24522207  0.05887192  1
  Se  Se134  1  0.25697024  0.25379883  0.56723502  1
  Se  Se135  1  0.26771819  0.59499639  0.05337950  1
  Se  Se136  1  0.24287679  0.58319394  0.54618336  1
  Se  Se137  1  0.24729320  0.91379070  0.05200467  1
  Se  Se138  1  0.24973424  0.91865474  0.55169251  1
  Se  Se139  1  0.57547384  0.24688772  0.05613006  1
  Se  Se140  1  0.58747225  0.24307284  0.54808278  1
  Se  Se141  1  0.59374461  0.59400870  0.05577342  1
  Se  Se142  1  0.58182898  0.58841797  0.55919617  1
  Se  Se143  1  0.57835281  0.91575600  0.05257896  1
  Se  Se144  1  0.57921582  0.91403941  0.56620597  1
  Se  Se145  1  0.91090689  0.24774794  0.05402623  1
  Se  Se146  1  0.92278931  0.26019284  0.55735929  1
  Se  Se147  1  0.92195104  0.58342855  0.06076637  1
  Se  Se148  1  0.89031802  0.57926033  0.55240774  1
  Se  Se149  1  0.91470400  0.90857313  0.05108005  1
  Se  Se150  1  0.91420938  0.92744834  0.55539701  1
  Se  Se151  1  0.07442479  0.25586213  0.44059667  1
  Se  Se152  1  0.08328763  0.24593990  0.95401009  1
  Se  Se153  1  0.07321969  0.59017686  0.44923767  1
  Se  Se154  1  0.08437996  0.57658226  0.94922793  1
  Se  Se155  1  0.08923487  0.91856554  0.44633868  1
  Se  Se156  1  0.08645437  0.90885451  0.94654017  1
  Se  Se157  1  0.41549791  0.24389614  0.44221176  1
  Se  Se158  1  0.41621015  0.25017567  0.95464112  1
  Se  Se159  1  0.40495682  0.58970361  0.43496579  1
  Se  Se160  1  0.41938140  0.58920502  0.93185269  1
  Se  Se161  1  0.42196317  0.91205630  0.44708611  1
  Se  Se162  1  0.41073630  0.92257122  0.94316316  1
  Se  Se163  1  0.74811080  0.25122724  0.43192446  1
  Se  Se164  1  0.74682316  0.24122230  0.94745278  1
  Se  Se165  1  0.71946948  0.61157971  0.44037327  1
  Se  Se166  1  0.75053376  0.59366771  0.93723511  1
  Se  Se167  1  0.74907111  0.91796756  0.45357841  1
  Se  Se168  1  0.74767371  0.91740895  0.94553232  1
  Se  Se169  1  0.26302806  0.07506817  0.43974991  1
  Se  Se170  1  0.23975437  0.08549354  0.95202323  1
  Se  Se171  1  0.24417370  0.41284572  0.44954166  1
  Se  Se172  1  0.25143331  0.41910280  0.95498063  1
  Se  Se173  1  0.24835576  0.75788537  0.43989547  1
  Se  Se174  1  0.25715032  0.74018489  0.94892840  1
  Se  Se175  1  0.58491004  0.07998762  0.45001615  1
  Se  Se176  1  0.57446783  0.08517046  0.94577586  1
  Se  Se177  1  0.58064304  0.40718989  0.43295887  1
  Se  Se178  1  0.59254741  0.41291653  0.94101447  1
  Se  Se179  1  0.57031125  0.75830521  0.45769723  1
  Se  Se180  1  0.58182057  0.75628946  0.94469100  1
  Se  Se181  1  0.92571874  0.07798352  0.44234887  1
  Se  Se182  1  0.91307353  0.07770890  0.94709465  1
  Se  Se183  1  0.91004352  0.42171868  0.43954219  1
  Se  Se184  1  0.92797190  0.40448337  0.93943007  1
  Se  Se185  1  0.89917074  0.76870455  0.45229120  1
  Se  Se186  1  0.91485821  0.74259378  0.94244931  1
  Se  Se187  1  0.24890343  0.24769530  0.30414998  1
  Se  Se188  1  0.24676130  0.24640983  0.82085264  1
  Se  Se189  1  0.24234717  0.58114509  0.31162965  1
  Se  Se190  1  0.24481330  0.58188817  0.81003672  1
  Se  Se191  1  0.25778755  0.91544749  0.29687096  1
  Se  Se192  1  0.24657977  0.91582030  0.80308682  1
  Se  Se193  1  0.59094937  0.24996354  0.29896674  1
  Se  Se194  1  0.57458559  0.24581010  0.81265954  1
  Se  Se195  1  0.57486735  0.57277308  0.31067119  1
  Se  Se196  1  0.59124741  0.58522777  0.79498476  1
  Se  Se197  1  0.58841725  0.90208117  0.31527429  1
  Se  Se198  1  0.58269444  0.92198763  0.80736925  1
  Se  Se199  1  0.92057798  0.25292028  0.29201697  1
  Se  Se200  1  0.90723075  0.23863666  0.80742950  1
  Se  Se201  1  0.91357460  0.59033443  0.31417386  1
  Se  Se202  1  0.92776231  0.58723502  0.79509076  1
  Se  Se203  1  0.91889510  0.91538189  0.31361589  1
  Se  Se204  1  0.90814304  0.90856997  0.81320781  1
  Se  Se205  1  0.09414101  0.09092995  0.31174226  1
  Se  Se206  1  0.08315163  0.08586302  0.81438199  1
  Se  Se207  1  0.07938234  0.41600115  0.30358145  1
  Se  Se208  1  0.09518007  0.42460424  0.81018593  1
  Se  Se209  1  0.08024195  0.75399149  0.30549300  1
  Se  Se210  1  0.08312133  0.74557934  0.80465663  1
  Se  Se211  1  0.42039739  0.06837386  0.30182803  1
  Se  Se212  1  0.40770606  0.08774577  0.80491804  1
  Se  Se213  1  0.40921803  0.41222042  0.30117120  1
  Se  Se214  1  0.42703854  0.42652310  0.80502838  1
  Se  Se215  1  0.42488556  0.74877266  0.30440264  1
  Se  Se216  1  0.42088166  0.76179097  0.81129342  1
  Se  Se217  1  0.75927782  0.08868988  0.30430559  1
  Se  Se218  1  0.74603446  0.08219489  0.79945002  1
  Se  Se219  1  0.75063574  0.41968536  0.30043297  1
  Se  Se220  1  0.76668324  0.42612724  0.80541124  1
  Se  Se221  1  0.76385651  0.75191175  0.31656035  1
  Se  Se222  1  0.73039214  0.73653006  0.80371380  1
  Se  Se223  1  0.25162405  0.08078569  0.19696735  1
  Se  Se224  1  0.24969500  0.08074540  0.70531895  1
  Se  Se225  1  0.24519834  0.41924076  0.20049865  1
  Se  Se226  1  0.24488799  0.42623436  0.68986471  1
  Se  Se227  1  0.24681188  0.75687168  0.18464041  1
  Se  Se228  1  0.24524843  0.75609179  0.68649993  1
  Se  Se229  1  0.57395705  0.09014847  0.19258379  1
  Se  Se230  1  0.58289390  0.08850012  0.70313537  1
  Se  Se231  1  0.58985493  0.41223350  0.20124610  1
  Se  Se232  1  0.58821804  0.42029146  0.68336188  1
  Se  Se233  1  0.58646633  0.75243636  0.19213453  1
  Se  Se234  1  0.58070215  0.75555847  0.70054954  1
  Se  Se235  1  0.91052978  0.08445284  0.18478158  1
  Se  Se236  1  0.91126303  0.08931781  0.69452712  1
  Se  Se237  1  0.91692598  0.42113922  0.19812922  1
  Se  Se238  1  0.92082817  0.42295943  0.68282981  1
  Se  Se239  1  0.92580731  0.74449635  0.19977610  1
  Se  Se240  1  0.92300066  0.75334329  0.69475753  1
  Se  Se241  1  0.07850537  0.25010805  0.19525222  1
  Se  Se242  1  0.09300207  0.24428701  0.69838331  1
  Se  Se243  1  0.08343589  0.59386307  0.19725894  1
  Se  Se244  1  0.08194964  0.58874622  0.68813290  1
  Se  Se245  1  0.09154368  0.91047052  0.18819700  1
  Se  Se246  1  0.08443664  0.90431233  0.68529049  1
  Se  Se247  1  0.40114320  0.25929354  0.20110218  1
  Se  Se248  1  0.42784317  0.24533954  0.69587358  1
  Se  Se249  1  0.42813643  0.57379057  0.18620481  1
  Se  Se250  1  0.42561553  0.58013569  0.68738159  1
  Se  Se251  1  0.41874328  0.91340105  0.19402859  1
  Se  Se252  1  0.40999503  0.92311441  0.69802837  1
  Se  Se253  1  0.74471698  0.25070485  0.19052932  1
  Se  Se254  1  0.76150314  0.24660771  0.68943785  1
  Se  Se255  1  0.75903294  0.57749382  0.18721891  1
  Se  Se256  1  0.74824385  0.58437367  0.69454123  1
  Se  Se257  1  0.76165580  0.90456867  0.19511711  1
  Se  Se258  1  0.73480097  0.93586499  0.71239792  1
