# generated using pymatgen
data_In86Cu29Se144
_symmetry_space_group_name_H-M   'P 1'
_cell_length_a   17.58613789
_cell_length_b   17.58439086
_cell_length_c   23.44518431
_cell_angle_alpha   89.98372017
_cell_angle_beta   89.98766522
_cell_angle_gamma   90.01760045
_symmetry_Int_Tables_number   1
_chemical_formula_structural   In86Cu29Se144
_chemical_formula_sum   'In86 Cu29 Se144'
_cell_volume   7250.22368550
_cell_formula_units_Z   1
loop_
 _symmetry_equiv_pos_site_id
 _symmetry_equiv_pos_as_xyz
  1  'x, y, z'
loop_
 _atom_site_type_symbol
 _atom_site_label
 _atom_site_symmetry_multiplicity
 _atom_site_fract_x
 _atom_site_fract_y
 _atom_site_fract_z
 _atom_site_occupancy
  In  In0  1  0.00561690  0.15197652  0.12958685  1
  In  In1  1  0.00045708  0.17009435  0.62879882  1
  In  In2  1  0.00891947  0.50545685  0.11807264  1
  In  In3  1  -0.00776174  0.49107185  0.61910173  1
  In  In4  1  0.00367306  0.83589165  0.13337573  1
  In  In5  1  0.00138098  0.84654637  0.62101147  1
  In  In6  1  0.32744032  0.16305905  0.11973570  1
  In  In7  1  0.31557177  0.16297939  0.62298372  1
  In  In8  1  0.33689198  0.50265050  0.11728587  1
  In  In9  1  0.33302011  0.51217579  0.62314054  1
  In  In10  1  0.34608868  0.82862309  0.14373359  1
  In  In11  1  0.33393557  0.83187281  0.63095178  1
  In  In12  1  0.66233178  0.19005224  0.13131635  1
  In  In13  1  0.67954186  0.16897225  0.62411259  1
  In  In14  1  0.67040056  0.49785665  0.12440274  1
  In  In15  1  0.67324376  0.49351855  0.63261279  1
  In  In16  1  0.64748654  0.81652060  0.13230753  1
  In  In17  1  0.66359535  0.81983148  0.62052438  1
  In  In18  1  0.17462405  0.01919392  0.36907966  1
  In  In19  1  0.17913151  0.01377679  0.86145883  1
  In  In20  1  0.16749641  0.33270021  0.38347062  1
  In  In21  1  0.16586886  0.33263565  0.87804758  1
  In  In22  1  0.16312142  0.66582453  0.37001096  1
  In  In23  1  0.17063639  0.65144554  0.87426908  1
  In  In24  1  0.47880488  0.00096951  0.36354311  1
  In  In25  1  0.49424231  0.01626751  0.88131754  1
  In  In26  1  0.50962707  0.32852203  0.36128940  1
  In  In27  1  0.50602413  0.33028500  0.87929522  1
  In  In28  1  0.49342198  0.66178053  0.35492592  1
  In  In29  1  0.49531107  0.65868930  0.87441431  1
  In  In30  1  0.84308322  -0.00786471  0.38377550  1
  In  In31  1  0.84671194  -0.00181305  0.87154585  1
  In  In32  1  0.82833227  0.34127025  0.38277795  1
  In  In33  1  0.84424678  0.34074854  0.86766941  1
  In  In34  1  0.83434266  0.66282553  0.37552929  1
  In  In35  1  0.81841375  0.66536519  0.87308374  1
  In  In36  1  0.01156406  0.15476552  0.38229957  1
  In  In37  1  0.01491200  0.18001678  0.86003639  1
  In  In38  1  -0.00810175  0.50427234  0.38100412  1
  In  In39  1  0.00819190  0.48770243  0.88138728  1
  In  In40  1  -0.00631874  0.82775631  0.37257556  1
  In  In41  1  -0.00514872  0.84653897  0.86959842  1
  In  In42  1  0.32309015  0.15279930  0.36949577  1
  In  In43  1  0.33309261  0.16553879  0.87804242  1
  In  In44  1  0.32763648  0.50047378  0.37211277  1
  In  In45  1  0.32659282  0.50616618  0.88132342  1
  In  In46  1  0.33215433  0.83171204  0.36928970  1
  In  In47  1  0.32831682  0.82847864  0.86700339  1
  In  In48  1  0.66309984  0.18073203  0.37402845  1
  In  In49  1  0.65128033  0.16903973  0.87664905  1
  In  In50  1  0.67108020  0.50936790  0.36501617  1
  In  In51  1  0.66781185  0.50118122  0.87725019  1
  In  In52  1  0.67989697  0.82872393  0.37716672  1
  In  In53  1  0.67873352  0.83089606  0.87230152  1
  In  In54  1  0.17167314  0.00729894  0.13456762  1
  In  In55  1  0.16248059  0.01107372  0.63335384  1
  In  In56  1  0.16397582  0.32895623  0.11568042  1
  In  In57  1  0.15040782  0.32015747  0.61925495  1
  In  In58  1  0.17607822  0.65808399  0.13378492  1
  In  In59  1  0.18338329  0.66215158  0.62037160  1
  In  In60  1  0.47500440  0.00400571  0.13105052  1
  In  In61  1  0.48846241  -0.00025455  0.62651129  1
  In  In62  1  0.50732783  0.34696896  0.11765335  1
  In  In63  1  0.50573830  0.34597558  0.63034793  1
  In  In64  1  0.51956185  0.63388348  0.15578225  1
  In  In65  1  0.50108212  0.67065171  0.63105779  1
  In  In66  1  0.84089703  0.00454493  0.13153762  1
  In  In67  1  0.84272247  0.01322666  0.61035971  1
  In  In68  1  0.81989676  0.33716939  0.12608535  1
  In  In69  1  0.83640938  0.33535215  0.62779374  1
  In  In70  1  0.84449708  0.65886830  0.13143111  1
  In  In71  1  0.82585716  0.65394493  0.61446407  1
  In  In72  1  0.83358711  0.17278232  0.00351305  1
  In  In73  1  0.49994694  0.50306311  0.48911149  1
  In  In74  1  0.33184477  0.33353116  0.75421339  1
  In  In75  1  0.00331625  0.66630275  0.74729600  1
  In  In76  1  0.66823154  -0.00049460  0.75097225  1
  In  In77  1  0.83295100  0.83071596  -0.00260159  1
  In  In78  1  0.16582130  0.83144525  0.00999176  1
  In  In79  1  0.49831850  0.83204355  0.49066089  1
  In  In80  1  0.49466800  0.82880222  0.00941416  1
  In  In81  1  0.16560032  0.83811079  0.49981343  1
  In  In82  1  0.49617737  0.16975986  0.48999410  1
  In  In83  1  0.33610443  0.33514860  0.25014786  1
  In  In84  1  -0.00019780  0.32816476  0.24541039  1
  In  In85  1  0.66898858  -0.00392918  0.25040538  1
  Cu  Cu86  1  0.00056179  0.00276009  0.50103303  1
  Cu  Cu87  1  0.83956464  0.16511288  0.25523970  1
  Cu  Cu88  1  0.82850838  0.83132226  0.74121959  1
  Cu  Cu89  1  -0.00362795  0.65617074  -0.00030573  1
  Cu  Cu90  1  0.66214124  0.66119232  0.00386476  1
  Cu  Cu91  1  0.83305538  0.82637077  0.25552183  1
  Cu  Cu92  1  -0.00198138  0.33104052  0.50262796  1
  Cu  Cu93  1  0.66644075  0.00016417  0.49573669  1
  Cu  Cu94  1  0.16180288  0.50074207  0.24952721  1
  Cu  Cu95  1  0.83049609  0.50146015  0.25552926  1
  Cu  Cu96  1  0.66497938  0.34061770  -0.00046559  1
  Cu  Cu97  1  0.67045751  0.65839976  0.49701890  1
  Cu  Cu98  1  0.16003635  0.84156636  0.25629437  1
  Cu  Cu99  1  0.33314615  0.66112886  0.00659069  1
  Cu  Cu100  1  0.67492746  0.33441097  0.50280444  1
  Cu  Cu101  1  -0.00069040  0.66630242  0.49388295  1
  Cu  Cu102  1  0.50719979  0.50661596  0.75200659  1
  Cu  Cu103  1  0.32678801  0.33585833  0.49666950  1
  Cu  Cu104  1  0.83316685  0.17092893  0.74425642  1
  Cu  Cu105  1  0.16800176  0.83314987  0.74330835  1
  Cu  Cu106  1  0.66114699  0.00590704  0.00576403  1
  Cu  Cu107  1  0.49511460  0.16942554  0.75506674  1
  Cu  Cu108  1  0.33519343  0.33131231  -0.00076495  1
  Cu  Cu109  1  0.32887625  0.00147228  0.00021759  1
  Cu  Cu110  1  -0.00167345  0.33286726  -0.00439169  1
  Cu  Cu111  1  0.83372666  0.50307793  0.74840536  1
  Cu  Cu112  1  0.00973262  0.00525854  -0.00073015  1
  Cu  Cu113  1  0.17093383  0.49518867  0.75160478  1
  Cu  Cu114  1  0.50081509  0.83045663  0.75220758  1
  Se  Se115  1  0.09241274  0.08200605  0.05703267  1
  Se  Se116  1  0.08098224  0.08370728  0.55865447  1
  Se  Se117  1  0.08305277  0.41566262  0.04971047  1
  Se  Se118  1  0.08445210  0.41756511  0.55177074  1
  Se  Se119  1  0.07201913  0.73750799  0.06206192  1
  Se  Se120  1  0.07757201  0.74189798  0.55984137  1
  Se  Se121  1  0.41661387  0.08452770  0.04964720  1
  Se  Se122  1  0.40915976  0.08172495  0.55370347  1
  Se  Se123  1  0.41726908  0.41993857  0.04832715  1
  Se  Se124  1  0.41407493  0.41104786  0.55488995  1
  Se  Se125  1  0.41256334  0.73558829  0.06980547  1
  Se  Se126  1  0.41281955  0.74511008  0.55700299  1
  Se  Se127  1  0.74461624  0.08212718  0.06569024  1
  Se  Se128  1  0.74641272  0.08834174  0.54702740  1
  Se  Se129  1  0.75322650  0.42041440  0.05026150  1
  Se  Se130  1  0.75307311  0.41967934  0.55788770  1
  Se  Se131  1  0.74329874  0.74496753  0.06113543  1
  Se  Se132  1  0.74945805  0.74804962  0.54887399  1
  Se  Se133  1  0.24890184  0.24693417  0.04908712  1
  Se  Se134  1  0.24709673  0.25137044  0.55112108  1
  Se  Se135  1  0.24090140  0.57969245  0.05320600  1
  Se  Se136  1  0.25242201  0.57909274  0.54704689  1
  Se  Se137  1  0.26351837  0.91581567  0.06574908  1
  Se  Se138  1  0.25289009  0.92324237  0.56412868  1
  Se  Se139  1  0.58412847  0.25267540  0.05060537  1
  Se  Se140  1  0.58517460  0.25653648  0.55762137  1
  Se  Se141  1  0.57861228  0.58385295  0.06182965  1
  Se  Se142  1  0.58675733  0.58470888  0.55945566  1
  Se  Se143  1  0.58573402  0.92373813  0.06608334  1
  Se  Se144  1  0.58460321  0.92353371  0.55724687  1
  Se  Se145  1  0.92664110  0.25688970  0.06628249  1
  Se  Se146  1  0.91509127  0.24926957  0.55852218  1
  Se  Se147  1  0.91032175  0.57725226  0.05310650  1
  Se  Se148  1  0.91875601  0.58048258  0.54922664  1
  Se  Se149  1  0.92504007  0.92370204  0.05579750  1
  Se  Se150  1  0.91467749  0.91372855  0.54728832  1
  Se  Se151  1  0.08329721  0.24904141  0.44940086  1
  Se  Se152  1  0.08136595  0.24629501  0.94502593  1
  Se  Se153  1  0.08552991  0.58450760  0.44315263  1
  Se  Se154  1  0.08622459  0.57982611  0.94663961  1
  Se  Se155  1  0.07809050  0.92491800  0.43673353  1
  Se  Se156  1  0.08559488  0.91935385  0.94121708  1
  Se  Se157  1  0.40839076  0.26434484  0.43204232  1
  Se  Se158  1  0.41790658  0.24837974  0.94418570  1
  Se  Se159  1  0.40935326  0.59777546  0.43734245  1
  Se  Se160  1  0.41736164  0.58297236  0.94917342  1
  Se  Se161  1  0.40181617  0.92753461  0.44361127  1
  Se  Se162  1  0.40776621  0.91635376  0.94215192  1
  Se  Se163  1  0.75118395  0.24640864  0.44790099  1
  Se  Se164  1  0.74493061  0.25780348  0.93874483  1
  Se  Se165  1  0.75251098  0.57485020  0.44354685  1
  Se  Se166  1  0.74999033  0.58415325  0.94905475  1
  Se  Se167  1  0.75201317  0.91264562  0.44961830  1
  Se  Se168  1  0.74322435  0.93227877  0.94358992  1
  Se  Se169  1  0.24578959  0.09039993  0.44925873  1
  Se  Se170  1  0.24558485  0.08290365  0.94539768  1
  Se  Se171  1  0.24716153  0.42523878  0.44624167  1
  Se  Se172  1  0.24959303  0.41436476  0.94605774  1
  Se  Se173  1  0.25358336  0.74594066  0.44173019  1
  Se  Se174  1  0.25472897  0.74281267  0.94552827  1
  Se  Se175  1  0.58460045  0.07292863  0.43315730  1
  Se  Se176  1  0.57940207  0.08953523  0.95294730  1
  Se  Se177  1  0.59292194  0.40741947  0.43799979  1
  Se  Se178  1  0.58006810  0.42278147  0.94607681  1
  Se  Se179  1  0.58653706  0.73411694  0.43633427  1
  Se  Se180  1  0.59073813  0.74968101  0.94366958  1
  Se  Se181  1  0.91448634  0.08748201  0.45010031  1
  Se  Se182  1  0.92416229  0.08453720  0.94283415  1
  Se  Se183  1  0.91606685  0.41775198  0.45094598  1
  Se  Se184  1  0.91162344  0.41735120  0.94791268  1
  Se  Se185  1  0.91305091  0.75022755  0.44547079  1
  Se  Se186  1  0.92601932  0.74185181  0.93676069  1
  Se  Se187  1  0.23927461  0.24809342  0.30602225  1
  Se  Se188  1  0.23974163  0.23925328  0.80606454  1
  Se  Se189  1  0.24790048  0.58279197  0.30163311  1
  Se  Se190  1  0.25537207  0.58151013  0.80065735  1
  Se  Se191  1  0.24866381  0.92143442  0.30682514  1
  Se  Se192  1  0.25176336  0.91539746  0.79920528  1
  Se  Se193  1  0.58833238  0.24526238  0.29373622  1
  Se  Se194  1  0.58257393  0.25332898  0.80216473  1
  Se  Se195  1  0.57936164  0.57526658  0.29509716  1
  Se  Se196  1  0.58993032  0.58903256  0.80702693  1
  Se  Se197  1  0.58154458  0.91019699  0.31477449  1
  Se  Se198  1  0.57540629  0.91414327  0.81519708  1
  Se  Se199  1  0.91611486  0.24757839  0.31649602  1
  Se  Se200  1  0.91800408  0.25339367  0.79776273  1
  Se  Se201  1  0.91921813  0.58328181  0.30464607  1
  Se  Se202  1  0.91591863  0.57917890  0.81151025  1
  Se  Se203  1  0.91353354  0.91611460  0.30461600  1
  Se  Se204  1  0.91130279  0.91461405  0.79412539  1
  Se  Se205  1  0.07816970  0.08359056  0.30106925  1
  Se  Se206  1  0.05737879  0.05712394  0.81048099  1
  Se  Se207  1  0.08485832  0.41862060  0.30989286  1
  Se  Se208  1  0.08651072  0.41459343  0.80538894  1
  Se  Se209  1  0.07910941  0.74981769  0.30338738  1
  Se  Se210  1  0.09200610  0.75651504  0.81098966  1
  Se  Se211  1  0.43496440  0.11457111  0.30413588  1
  Se  Se212  1  0.41274462  0.08337349  0.80485200  1
  Se  Se213  1  0.42750702  0.43012195  0.30397267  1
  Se  Se214  1  0.42326164  0.42606129  0.81102403  1
  Se  Se215  1  0.41386066  0.75710698  0.29759094  1
  Se  Se216  1  0.41752878  0.74532377  0.80511392  1
  Se  Se217  1  0.75699417  0.08448389  0.31420624  1
  Se  Se218  1  0.75700609  0.09348426  0.81124416  1
  Se  Se219  1  0.75051916  0.41169500  0.30478489  1
  Se  Se220  1  0.75147991  0.42137837  0.80571461  1
  Se  Se221  1  0.74828436  0.74163000  0.30429314  1
  Se  Se222  1  0.74896381  0.74913973  0.79748098  1
  Se  Se223  1  0.27145831  0.07455625  0.19752757  1
  Se  Se224  1  0.25716292  0.07995384  0.70097609  1
  Se  Se225  1  0.23986462  0.41926076  0.18866378  1
  Se  Se226  1  0.24699502  0.41749662  0.68603781  1
  Se  Se227  1  0.23998450  0.75777667  0.19941725  1
  Se  Se228  1  0.25155022  0.74453293  0.69675341  1
  Se  Se229  1  0.58326064  0.08425341  0.18695411  1
  Se  Se230  1  0.57687729  0.09156146  0.69116659  1
  Se  Se231  1  0.59552610  0.40815645  0.19251824  1
  Se  Se232  1  0.58834095  0.41649416  0.70391221  1
  Se  Se233  1  0.57441413  0.74917659  0.21070090  1
  Se  Se234  1  0.58685622  0.75059822  0.69931886  1
  Se  Se235  1  0.92174164  0.07998445  0.20396456  1
  Se  Se236  1  0.91197092  0.08184966  0.69283392  1
  Se  Se237  1  0.91130741  0.42540568  0.19064828  1
  Se  Se238  1  0.91915827  0.41854170  0.69814607  1
  Se  Se239  1  0.91966421  0.75011016  0.19782242  1
  Se  Se240  1  0.91265736  0.75142006  0.68373867  1
  Se  Se241  1  0.09731366  0.23910138  0.19316197  1
  Se  Se242  1  0.08439622  0.24803740  0.69948046  1
  Se  Se243  1  0.07730170  0.58409739  0.19685180  1
  Se  Se244  1  0.09166287  0.57492407  0.68810865  1
  Se  Se245  1  0.08153022  0.92487647  0.19848152  1
  Se  Se246  1  0.08122992  0.91720273  0.69607677  1
  Se  Se247  1  0.41993151  0.25332073  0.18138420  1
  Se  Se248  1  0.42054463  0.24628997  0.68769962  1
  Se  Se249  1  0.39271996  0.58699724  0.19678364  1
  Se  Se250  1  0.41977967  0.58185400  0.69593619  1
  Se  Se251  1  0.42616980  0.91537326  0.20923849  1
  Se  Se252  1  0.41853371  0.91449818  0.69899508  1
  Se  Se253  1  0.75813315  0.24978624  0.20255205  1
  Se  Se254  1  0.74663309  0.25596963  0.69691963  1
  Se  Se255  1  0.75118423  0.58303047  0.19558165  1
  Se  Se256  1  0.75106748  0.58812158  0.69636998  1
  Se  Se257  1  0.75604833  0.90187061  0.18772529  1
  Se  Se258  1  0.75209607  0.91681104  0.68177328  1
