# generated using pymatgen
data_In86Cu29Se144
_symmetry_space_group_name_H-M   'P 1'
_cell_length_a   17.58801658
_cell_length_b   17.58368507
_cell_length_c   23.44264942
_cell_angle_alpha   90.01965623
_cell_angle_beta   90.02075463
_cell_angle_gamma   90.00860351
_symmetry_Int_Tables_number   1
_chemical_formula_structural   In86Cu29Se144
_chemical_formula_sum   'In86 Cu29 Se144'
_cell_volume   7249.92304505
_cell_formula_units_Z   1
loop_
 _symmetry_equiv_pos_site_id
 _symmetry_equiv_pos_as_xyz
  1  'x, y, z'
loop_
 _atom_site_type_symbol
 _atom_site_label
 _atom_site_symmetry_multiplicity
 _atom_site_fract_x
 _atom_site_fract_y
 _atom_site_fract_z
 _atom_site_occupancy
  In  In0  1  0.00527434  0.17653552  0.11923738  1
  In  In1  1  -0.00275494  0.17326239  0.62816481  1
  In  In2  1  -0.00554679  0.48007616  0.12233217  1
  In  In3  1  -0.00412201  0.50217167  0.63284544  1
  In  In4  1  -0.00118586  0.82890244  0.11055134  1
  In  In5  1  -0.00846196  0.83803965  0.63626522  1
  In  In6  1  0.32028875  0.15416582  0.11905775  1
  In  In7  1  0.35134793  0.18277805  0.61689561  1
  In  In8  1  0.33656025  0.50908363  0.12888206  1
  In  In9  1  0.32808259  0.47923277  0.62626139  1
  In  In10  1  0.32319006  0.84587038  0.12933689  1
  In  In11  1  0.33322558  0.83319821  0.62270439  1
  In  In12  1  0.67764513  0.17490830  0.11661883  1
  In  In13  1  0.66562015  0.16816372  0.63103421  1
  In  In14  1  0.65948352  0.49348741  0.12328344  1
  In  In15  1  0.66875435  0.48727023  0.63099637  1
  In  In16  1  0.67366522  0.82951895  0.11367013  1
  In  In17  1  0.67012591  0.83217466  0.63939897  1
  In  In18  1  0.17708223  0.00707273  0.37064485  1
  In  In19  1  0.15460851  0.01276666  0.88193075  1
  In  In20  1  0.15303979  0.32494830  0.37194414  1
  In  In21  1  0.16429224  0.33284080  0.87581686  1
  In  In22  1  0.17025979  0.65450739  0.36808718  1
  In  In23  1  0.14198653  0.68021107  0.89972055  1
  In  In24  1  0.50025371  0.01517140  0.37669077  1
  In  In25  1  0.52000156  0.01063646  0.86310866  1
  In  In26  1  0.51246904  0.32631998  0.38412326  1
  In  In27  1  0.48177560  0.31840662  0.84764771  1
  In  In28  1  0.49377873  0.66611988  0.37701070  1
  In  In29  1  0.50245742  0.66180624  0.86360060  1
  In  In30  1  0.84569182  0.00848526  0.37358896  1
  In  In31  1  0.83539192  0.00330374  0.87382899  1
  In  In32  1  0.83024731  0.33614680  0.37908696  1
  In  In33  1  0.82308639  0.32111322  0.86563033  1
  In  In34  1  0.82319146  0.66248712  0.37620536  1
  In  In35  1  0.84313289  0.67459050  0.87147348  1
  In  In36  1  -0.01199481  0.18612478  0.39144084  1
  In  In37  1  -0.00039565  0.16647776  0.87209436  1
  In  In38  1  -0.00035155  0.48305209  0.37822191  1
  In  In39  1  0.00780929  0.50560926  0.87099459  1
  In  In40  1  0.00259109  0.84666949  0.37163889  1
  In  In41  1  -0.00648933  0.83228815  0.88103943  1
  In  In42  1  0.33634251  0.16706542  0.37693402  1
  In  In43  1  0.32875422  0.17234420  0.87867432  1
  In  In44  1  0.33215107  0.51150459  0.37473215  1
  In  In45  1  0.32742757  0.48873583  0.87179119  1
  In  In46  1  0.32871438  0.83057016  0.36447099  1
  In  In47  1  0.32658131  0.82616459  0.88049707  1
  In  In48  1  0.65510215  0.17667415  0.38494629  1
  In  In49  1  0.66581229  0.17368659  0.87150354  1
  In  In50  1  0.68293628  0.48719959  0.39151785  1
  In  In51  1  0.65004950  0.49278164  0.85446926  1
  In  In52  1  0.66555463  0.82207220  0.37412756  1
  In  In53  1  0.68192522  0.84871557  0.86066674  1
  In  In54  1  0.17435789  0.01265341  0.11571006  1
  In  In55  1  0.14937183  0.01016211  0.63396695  1
  In  In56  1  0.15195130  0.31318957  0.11686331  1
  In  In57  1  0.17473166  0.32638152  0.63228040  1
  In  In58  1  0.17377931  0.67562219  0.11316326  1
  In  In59  1  0.16051155  0.65533565  0.62870108  1
  In  In60  1  0.48293103  0.00150085  0.12329399  1
  In  In61  1  0.50343058  0.01559226  0.63376159  1
  In  In62  1  0.51491811  0.33285558  0.12684092  1
  In  In63  1  0.49987363  0.33195766  0.63188546  1
  In  In64  1  0.49994848  0.65480019  0.12324389  1
  In  In65  1  0.52761106  0.64863115  0.64337907  1
  In  In66  1  0.83373944  0.00032179  0.11763069  1
  In  In67  1  0.82459494  0.01627390  0.63405722  1
  In  In68  1  0.84249764  0.32706700  0.13346323  1
  In  In69  1  0.83688721  0.32826232  0.62790837  1
  In  In70  1  0.83165893  0.67014313  0.11457523  1
  In  In71  1  0.83853194  0.65956000  0.63255966  1
  In  In72  1  0.49803675  0.49469676  -0.01032935  1
  In  In73  1  0.49889425  0.83657104  0.50225630  1
  In  In74  1  0.00309066  0.66210267  0.23586289  1
  In  In75  1  0.50004890  0.83824507  -0.00632578  1
  In  In76  1  0.33239938  0.00365079  0.75286686  1
  In  In77  1  0.17019102  0.83663626  0.49644112  1
  In  In78  1  0.16550914  0.48659560  0.50028893  1
  In  In79  1  0.83361454  0.83768753  0.49438364  1
  In  In80  1  0.00233307  0.00454845  0.24572513  1
  In  In81  1  0.66240265  0.00175252  0.24460279  1
  In  In82  1  0.33335108  0.33046112  0.25467666  1
  In  In83  1  0.32339639  0.66628153  0.75895537  1
  In  In84  1  0.66570469  0.66209681  0.24569980  1
  In  In85  1  0.83669448  0.50096049  -0.00834936  1
  Cu  Cu86  1  0.83563151  0.49379690  0.25467322  1
  Cu  Cu87  1  0.33883820  0.32724370  0.50152668  1
  Cu  Cu88  1  0.16078652  0.49866329  0.75388563  1
  Cu  Cu89  1  0.83371278  0.49925258  0.75046265  1
  Cu  Cu90  1  0.67216456  0.65415678  0.51173622  1
  Cu  Cu91  1  0.66880852  0.00580334  0.50562413  1
  Cu  Cu92  1  -0.00360758  0.00005153  -0.00340310  1
  Cu  Cu93  1  0.67058243  0.00596821  -0.00999319  1
  Cu  Cu94  1  0.84050860  0.82993632  0.75464269  1
  Cu  Cu95  1  -0.00430331  0.01571835  0.50683920  1
  Cu  Cu96  1  -0.00202061  0.66550552  0.50752766  1
  Cu  Cu97  1  0.34518434  0.66118663  0.50096544  1
  Cu  Cu98  1  0.15588603  0.83215906  0.75849356  1
  Cu  Cu99  1  0.33253638  0.00872609  0.50075020  1
  Cu  Cu100  1  0.50672167  0.49882840  0.25142996  1
  Cu  Cu101  1  0.83574543  0.16255615  0.75024036  1
  Cu  Cu102  1  0.16757570  0.83042697  0.24073052  1
  Cu  Cu103  1  0.67418241  0.66991991  -0.01333321  1
  Cu  Cu104  1  0.32915846  0.66860451  0.00433855  1
  Cu  Cu105  1  0.66841694  0.33173079  0.50979318  1
  Cu  Cu106  1  0.67007339  0.32934362  -0.00390306  1
  Cu  Cu107  1  0.17346269  0.49589437  0.24798290  1
  Cu  Cu108  1  0.49490782  0.16730835  0.25320002  1
  Cu  Cu109  1  0.82695865  0.17513813  0.25289233  1
  Cu  Cu110  1  0.49282571  0.83277123  0.24899187  1
  Cu  Cu111  1  0.33353065  0.00421509  -0.00265975  1
  Cu  Cu112  1  0.33607691  0.33035752  -0.00449677  1
  Cu  Cu113  1  -0.00153673  0.32552331  -0.00392335  1
  Cu  Cu114  1  0.16859343  0.17112634  0.75473242  1
  Se  Se115  1  0.07832555  0.08440858  0.05159612  1
  Se  Se116  1  0.08573313  0.09305768  0.55716415  1
  Se  Se117  1  0.08096484  0.40930924  0.05027387  1
  Se  Se118  1  0.07723868  0.40754971  0.56597926  1
  Se  Se119  1  0.07999600  0.74323076  0.04661013  1
  Se  Se120  1  0.07901154  0.75068692  0.56108159  1
  Se  Se121  1  0.41757358  0.08843056  0.04935050  1
  Se  Se122  1  0.42309254  0.08204396  0.55502655  1
  Se  Se123  1  0.41401975  0.41047036  0.05978848  1
  Se  Se124  1  0.41834713  0.41207213  0.55607941  1
  Se  Se125  1  0.41569413  0.74835518  0.06060219  1
  Se  Se126  1  0.42020582  0.73931323  0.56446912  1
  Se  Se127  1  0.75280914  0.08456398  0.04987309  1
  Se  Se128  1  0.75075977  0.09025276  0.55679597  1
  Se  Se129  1  0.74870391  0.41156291  0.05657926  1
  Se  Se130  1  0.75557806  0.41554851  0.55868562  1
  Se  Se131  1  0.75498788  0.75222014  0.04208456  1
  Se  Se132  1  0.74916317  0.74977746  0.56094922  1
  Se  Se133  1  0.25206011  0.24884808  0.05057425  1
  Se  Se134  1  0.24910280  0.25015498  0.55413279  1
  Se  Se135  1  0.25254747  0.57619992  0.05381845  1
  Se  Se136  1  0.25504415  0.58548556  0.55730190  1
  Se  Se137  1  0.25110545  0.91873447  0.05020695  1
  Se  Se138  1  0.25185245  0.92995157  0.56117788  1
  Se  Se139  1  0.58313720  0.25023796  0.05100728  1
  Se  Se140  1  0.58220054  0.24904831  0.56100209  1
  Se  Se141  1  0.59458576  0.58994852  0.04809637  1
  Se  Se142  1  0.58455198  0.57271595  0.56012486  1
  Se  Se143  1  0.58968650  0.93009954  0.05578958  1
  Se  Se144  1  0.59263709  0.91999240  0.56323490  1
  Se  Se145  1  0.91028414  0.25062796  0.05342113  1
  Se  Se146  1  0.90573841  0.23824058  0.55639945  1
  Se  Se147  1  0.92714616  0.58506741  0.05612097  1
  Se  Se148  1  0.91677401  0.58131686  0.55839722  1
  Se  Se149  1  0.91241473  0.91594143  0.04865029  1
  Se  Se150  1  0.91802283  0.92505080  0.56060690  1
  Se  Se151  1  0.08777352  0.25534200  0.45372459  1
  Se  Se152  1  0.08529660  0.24420076  0.94371736  1
  Se  Se153  1  0.07974989  0.58952660  0.44373046  1
  Se  Se154  1  0.08893241  0.56349969  0.95211421  1
  Se  Se155  1  0.07503048  0.93360851  0.44606700  1
  Se  Se156  1  0.08314163  0.91672904  0.94656241  1
  Se  Se157  1  0.42174520  0.24417969  0.44681707  1
  Se  Se158  1  0.42353871  0.25664189  0.93856339  1
  Se  Se159  1  0.42403744  0.57545405  0.44760498  1
  Se  Se160  1  0.40790080  0.59481668  0.93871637  1
  Se  Se161  1  0.40468140  0.92044040  0.43978610  1
  Se  Se162  1  0.41388775  0.93073889  0.93283244  1
  Se  Se163  1  0.74804000  0.25176072  0.44899630  1
  Se  Se164  1  0.75485667  0.24501732  0.94556400  1
  Se  Se165  1  0.76086234  0.58171309  0.45476593  1
  Se  Se166  1  0.74064432  0.57858121  0.92764972  1
  Se  Se167  1  0.73837230  0.92776009  0.43633875  1
  Se  Se168  1  0.75254743  0.91635431  0.94294179  1
  Se  Se169  1  0.24794598  0.08806679  0.44610809  1
  Se  Se170  1  0.24756046  0.08878901  0.94703523  1
  Se  Se171  1  0.26034757  0.40538932  0.43655895  1
  Se  Se172  1  0.24975330  0.41399676  0.94673616  1
  Se  Se173  1  0.25933129  0.73694233  0.44168880  1
  Se  Se174  1  0.24619025  0.75645933  0.95578061  1
  Se  Se175  1  0.57985192  0.08471187  0.45247924  1
  Se  Se176  1  0.58372394  0.08964074  0.94278680  1
  Se  Se177  1  0.58476442  0.41562162  0.45447770  1
  Se  Se178  1  0.58887118  0.40480894  0.93446293  1
  Se  Se179  1  0.59368566  0.73628378  0.45012778  1
  Se  Se180  1  0.58826226  0.75003388  0.93156303  1
  Se  Se181  1  0.90656872  0.09014021  0.45199334  1
  Se  Se182  1  0.91613418  0.08688287  0.94364624  1
  Se  Se183  1  0.91008383  0.42085133  0.44868676  1
  Se  Se184  1  0.92011620  0.40445937  0.93358100  1
  Se  Se185  1  0.92869527  0.74491231  0.43791672  1
  Se  Se186  1  0.91771124  0.74351525  0.94988331  1
  Se  Se187  1  0.23937228  0.23738667  0.30574096  1
  Se  Se188  1  0.25279075  0.25486662  0.80586946  1
  Se  Se189  1  0.25596411  0.58406499  0.29605965  1
  Se  Se190  1  0.23027059  0.58285553  0.81918810  1
  Se  Se191  1  0.24385211  0.91481280  0.30010777  1
  Se  Se192  1  0.24091780  0.91316446  0.81301939  1
  Se  Se193  1  0.58185213  0.24865795  0.30479782  1
  Se  Se194  1  0.60061253  0.26522438  0.79849477  1
  Se  Se195  1  0.58716077  0.57607277  0.31542356  1
  Se  Se196  1  0.58173959  0.59057758  0.78978518  1
  Se  Se197  1  0.57490238  0.90920431  0.31023970  1
  Se  Se198  1  0.58034858  0.91218516  0.79717220  1
  Se  Se199  1  0.91284021  0.25184487  0.30931478  1
  Se  Se200  1  0.91963259  0.24901876  0.80083870  1
  Se  Se201  1  0.91586624  0.58181780  0.30825442  1
  Se  Se202  1  0.91741643  0.58223554  0.80448727  1
  Se  Se203  1  0.90583578  0.90954793  0.30061754  1
  Se  Se204  1  0.92038985  0.91717278  0.80756053  1
  Se  Se205  1  0.07370765  0.09027662  0.31875350  1
  Se  Se206  1  0.08343386  0.08350103  0.80140852  1
  Se  Se207  1  0.08642062  0.41936847  0.30260539  1
  Se  Se208  1  0.07911870  0.41041967  0.80431963  1
  Se  Se209  1  0.08792696  0.75505146  0.30554921  1
  Se  Se210  1  0.07885476  0.74599919  0.81284518  1
  Se  Se211  1  0.41273054  0.08168181  0.30386956  1
  Se  Se212  1  0.42322991  0.09787409  0.80587709  1
  Se  Se213  1  0.42603107  0.42053643  0.31324281  1
  Se  Se214  1  0.43401637  0.44463420  0.80548942  1
  Se  Se215  1  0.41686673  0.74420162  0.30306413  1
  Se  Se216  1  0.41911289  0.76418399  0.80599410  1
  Se  Se217  1  0.74877727  0.08962355  0.31041385  1
  Se  Se218  1  0.74941288  0.08403584  0.80580700  1
  Se  Se219  1  0.74615091  0.41692700  0.30716281  1
  Se  Se220  1  0.74929025  0.41324745  0.79861675  1
  Se  Se221  1  0.75944965  0.75709301  0.30122703  1
  Se  Se222  1  0.75143318  0.74464007  0.80143127  1
  Se  Se223  1  0.24703290  0.08033181  0.19629380  1
  Se  Se224  1  0.24888747  0.09489112  0.68971354  1
  Se  Se225  1  0.24745150  0.41249525  0.18560013  1
  Se  Se226  1  0.24765882  0.41519027  0.70442943  1
  Se  Se227  1  0.25285733  0.74448200  0.19200025  1
  Se  Se228  1  0.23642567  0.75971330  0.69220811  1
  Se  Se229  1  0.57401374  0.09308653  0.18633617  1
  Se  Se230  1  0.59854275  0.07507772  0.70253995  1
  Se  Se231  1  0.59009209  0.41474011  0.20057638  1
  Se  Se232  1  0.58279888  0.41285929  0.70146110  1
  Se  Se233  1  0.57646630  0.75929068  0.18680662  1
  Se  Se234  1  0.57586984  0.75954095  0.70285661  1
  Se  Se235  1  0.90471395  0.09382860  0.19088972  1
  Se  Se236  1  0.92485146  0.08124831  0.69913826  1
  Se  Se237  1  0.92176804  0.41150371  0.20337739  1
  Se  Se238  1  0.91711116  0.41365104  0.69893533  1
  Se  Se239  1  0.90856553  0.75765564  0.18779940  1
  Se  Se240  1  0.92104583  0.74290616  0.70103730  1
  Se  Se241  1  0.07960458  0.24670773  0.19760749  1
  Se  Se242  1  0.08314950  0.25138345  0.69927374  1
  Se  Se243  1  0.09490359  0.57024894  0.18150356  1
  Se  Se244  1  0.07875098  0.58582001  0.70263483  1
  Se  Se245  1  0.08633297  0.91073142  0.18307154  1
  Se  Se246  1  0.07926443  0.91835975  0.70209861  1
  Se  Se247  1  0.41956796  0.24558601  0.18744771  1
  Se  Se248  1  0.41154487  0.25299558  0.70018798  1
  Se  Se249  1  0.42303180  0.58326224  0.20046904  1
  Se  Se250  1  0.40384175  0.58364141  0.68784240  1
  Se  Se251  1  0.41220462  0.92078713  0.19873585  1
  Se  Se252  1  0.41989384  0.91219625  0.69118799  1
  Se  Se253  1  0.74298217  0.25459546  0.19660827  1
  Se  Se254  1  0.75315999  0.24888299  0.69875254  1
  Se  Se255  1  0.76196447  0.57233443  0.18778461  1
  Se  Se256  1  0.74821186  0.58133185  0.69680713  1
  Se  Se257  1  0.75400909  0.90941110  0.18906883  1
  Se  Se258  1  0.76044542  0.91548488  0.69998759  1
