# generated using pymatgen
data_In86Cu29Se144
_symmetry_space_group_name_H-M   'P 1'
_cell_length_a   17.59114029
_cell_length_b   17.58862186
_cell_length_c   23.44834647
_cell_angle_alpha   90.00608416
_cell_angle_beta   90.02436324
_cell_angle_gamma   89.98630859
_symmetry_Int_Tables_number   1
_chemical_formula_structural   In86Cu29Se144
_chemical_formula_sum   'In86 Cu29 Se144'
_cell_volume   7255.00928457
_cell_formula_units_Z   1
loop_
 _symmetry_equiv_pos_site_id
 _symmetry_equiv_pos_as_xyz
  1  'x, y, z'
loop_
 _atom_site_type_symbol
 _atom_site_label
 _atom_site_symmetry_multiplicity
 _atom_site_fract_x
 _atom_site_fract_y
 _atom_site_fract_z
 _atom_site_occupancy
  In  In0  1  0.01556193  0.18218552  0.12965264  1
  In  In1  1  -0.00043173  0.16152393  0.61411886  1
  In  In2  1  0.03360419  0.48366912  0.15348929  1
  In  In3  1  -0.00068572  0.50223141  0.61553431  1
  In  In4  1  -0.00158245  0.83009964  0.12207479  1
  In  In5  1  0.01730666  0.85255204  0.60575576  1
  In  In6  1  0.33266226  0.17177147  0.12768443  1
  In  In7  1  0.32103835  0.16911188  0.62443206  1
  In  In8  1  0.32228648  0.48487732  0.12423479  1
  In  In9  1  0.32701608  0.49542452  0.61701544  1
  In  In10  1  0.33274908  0.83192150  0.11430393  1
  In  In11  1  0.33713172  0.84656649  0.63199663  1
  In  In12  1  0.66211102  0.17290580  0.13156604  1
  In  In13  1  0.67190124  0.16174067  0.61889812  1
  In  In14  1  0.65665477  0.49525427  0.12558363  1
  In  In15  1  0.67860157  0.51161267  0.61091506  1
  In  In16  1  0.67573711  0.84500044  0.11234144  1
  In  In17  1  0.66653306  0.82670435  0.62700011  1
  In  In18  1  0.14271349  0.01369021  0.39704796  1
  In  In19  1  0.16394468  -0.00106801  0.87313573  1
  In  In20  1  0.16821915  0.33517453  0.36538762  1
  In  In21  1  0.16433841  0.32941576  0.88868254  1
  In  In22  1  0.15956601  0.67132796  0.37732961  1
  In  In23  1  0.16966800  0.66186324  0.88016997  1
  In  In24  1  0.50544033  -0.00968321  0.36891372  1
  In  In25  1  0.48930002  0.01279141  0.89125739  1
  In  In26  1  0.51024724  0.33899061  0.36658919  1
  In  In27  1  0.49259914  0.33352258  0.88722702  1
  In  In28  1  0.48775229  0.65752684  0.37171422  1
  In  In29  1  0.50942668  0.65550125  0.88109698  1
  In  In30  1  0.83398075  0.00967071  0.38574401  1
  In  In31  1  0.83194225  -0.01332201  0.87382629  1
  In  In32  1  0.83499214  0.33045444  0.37433625  1
  In  In33  1  0.83525969  0.34405457  0.87672098  1
  In  In34  1  0.84399515  0.65154148  0.38082917  1
  In  In35  1  0.83525123  0.68108278  0.87063296  1
  In  In36  1  -0.00765169  0.17313109  0.37891138  1
  In  In37  1  0.01911353  0.16737588  0.87788018  1
  In  In38  1  0.00506328  0.49321882  0.36458719  1
  In  In39  1  0.00416422  0.50589383  0.87844312  1
  In  In40  1  0.00521601  0.83009880  0.38481771  1
  In  In41  1  -0.01132438  0.83864955  0.87982990  1
  In  In42  1  0.30973389  0.17343539  0.36876783  1
  In  In43  1  0.33289125  0.16288295  0.88387201  1
  In  In44  1  0.33713265  0.49372603  0.37656433  1
  In  In45  1  0.33175749  0.49921487  0.88027298  1
  In  In46  1  0.32585381  0.82444194  0.37253850  1
  In  In47  1  0.31734243  0.84480890  0.88166944  1
  In  In48  1  0.68534630  0.17841345  0.36551338  1
  In  In49  1  0.66246594  0.15074363  0.88404324  1
  In  In50  1  0.68350505  0.47224743  0.39540224  1
  In  In51  1  0.65577804  0.49768498  0.87289983  1
  In  In52  1  0.66982282  0.84670691  0.36805395  1
  In  In53  1  0.68004439  0.82854769  0.88327781  1
  In  In54  1  0.16994994  0.00674854  0.12088967  1
  In  In55  1  0.16838961  0.00259735  0.62674570  1
  In  In56  1  0.16935020  0.33830654  0.13487274  1
  In  In57  1  0.16409794  0.33174684  0.61363028  1
  In  In58  1  0.15816599  0.65961344  0.12359367  1
  In  In59  1  0.15883389  0.65964348  0.62095105  1
  In  In60  1  0.51323528  0.01423632  0.10977561  1
  In  In61  1  0.49998966  -0.00860787  0.63304776  1
  In  In62  1  0.49848207  0.33322400  0.12823901  1
  In  In63  1  0.49080611  0.33536884  0.61856889  1
  In  In64  1  0.49855548  0.66248225  0.11266382  1
  In  In65  1  0.51066886  0.67095566  0.62958900  1
  In  In66  1  0.83724523  -0.01288698  0.12386744  1
  In  In67  1  0.85405401  0.01630200  0.60547596  1
  In  In68  1  0.83628191  0.32739466  0.13558640  1
  In  In69  1  0.83566198  0.33922229  0.60529941  1
  In  In70  1  0.84255915  0.67834708  0.12454075  1
  In  In71  1  0.82992159  0.66958168  0.61600883  1
  In  In72  1  0.00084592  0.33000183  0.75269650  1
  In  In73  1  0.83707613  0.16414935  0.00956345  1
  In  In74  1  0.66679964  -0.01260019  0.75480404  1
  In  In75  1  0.33088968  0.66957165  0.76014682  1
  In  In76  1  -0.00361200  0.66997234  0.74243870  1
  In  In77  1  0.49778275  0.82951963  0.50592891  1
  In  In78  1  0.84449209  0.50287977  0.00331442  1
  In  In79  1  0.33094406  0.33065723  0.74590539  1
  In  In80  1  -0.00480466  0.00655199  0.25744885  1
  In  In81  1  0.32679253  0.66209703  0.24715447  1
  In  In82  1  0.50212263  0.17048911  0.49789963  1
  In  In83  1  0.33018180  0.00112827  0.24582168  1
  In  In84  1  0.66555399  0.66202608  0.24933925  1
  In  In85  1  0.65957975  0.32977464  0.73970640  1
  Cu  Cu86  1  0.32300983  -0.00058709  0.00106757  1
  Cu  Cu87  1  0.00421140  0.33862909  0.49024470  1
  Cu  Cu88  1  0.67267796  0.66372931  0.00284177  1
  Cu  Cu89  1  -0.00426061  0.65983917  0.49600070  1
  Cu  Cu90  1  0.00356558  0.00036690  0.00095557  1
  Cu  Cu91  1  0.82821752  0.16118407  0.25269186  1
  Cu  Cu92  1  0.50284356  0.49714983  0.25076556  1
  Cu  Cu93  1  0.82678316  0.50562196  0.73802430  1
  Cu  Cu94  1  0.49919974  0.16036776  0.76313183  1
  Cu  Cu95  1  0.32805242  -0.00169495  0.50301371  1
  Cu  Cu96  1  0.32305176  0.66332650  0.49754082  1
  Cu  Cu97  1  0.16336181  0.83995589  0.25620199  1
  Cu  Cu98  1  0.66317523  0.32962143  0.00338663  1
  Cu  Cu99  1  0.32885084  0.33446948  0.49301380  1
  Cu  Cu100  1  0.83446211  0.83215491  0.24691644  1
  Cu  Cu101  1  0.50660943  0.83748351  0.23938589  1
  Cu  Cu102  1  0.65661424  0.66882408  0.49787263  1
  Cu  Cu103  1  0.50084538  0.16318311  0.24620189  1
  Cu  Cu104  1  0.33508279  0.66413275  -0.00257323  1
  Cu  Cu105  1  0.16070365  0.83511382  0.74930195  1
  Cu  Cu106  1  0.49725676  0.83655162  0.75796984  1
  Cu  Cu107  1  0.83348340  0.83651051  0.74617200  1
  Cu  Cu108  1  0.84198364  0.16097403  0.74228962  1
  Cu  Cu109  1  0.16802878  0.15681524  0.74988991  1
  Cu  Cu110  1  0.67545488  0.00511408  0.49408486  1
  Cu  Cu111  1  0.50215598  0.50771839  0.75009601  1
  Cu  Cu112  1  0.00785526  0.66606407  0.00213765  1
  Cu  Cu113  1  0.82993980  0.49958954  0.25810768  1
  Cu  Cu114  1  0.33198616  0.33258430  0.00848208  1
  Se  Se115  1  0.07812677  0.08710591  0.05802710  1
  Se  Se116  1  0.09962850  0.09088710  0.55480172  1
  Se  Se117  1  0.09311950  0.42602176  0.06473104  1
  Se  Se118  1  0.08414125  0.42031990  0.54870560  1
  Se  Se119  1  0.08863141  0.75326190  0.05471235  1
  Se  Se120  1  0.08087755  0.74128776  0.55044015  1
  Se  Se121  1  0.40474034  0.08348383  0.05588610  1
  Se  Se122  1  0.41615435  0.07524003  0.56054804  1
  Se  Se123  1  0.41956133  0.41743333  0.05708186  1
  Se  Se124  1  0.41200874  0.41616370  0.54838028  1
  Se  Se125  1  0.41834383  0.75047905  0.04727660  1
  Se  Se126  1  0.40308359  0.74011674  0.56323481  1
  Se  Se127  1  0.74284923  0.07645253  0.06391598  1
  Se  Se128  1  0.75582565  0.09331084  0.54491885  1
  Se  Se129  1  0.74958301  0.40901523  0.05923673  1
  Se  Se130  1  0.74407277  0.41676309  0.54410576  1
  Se  Se131  1  0.75674051  0.74924776  0.05226080  1
  Se  Se132  1  0.74101802  0.75239383  0.55005592  1
  Se  Se133  1  0.24531399  0.25275930  0.06156613  1
  Se  Se134  1  0.25058872  0.24831524  0.54846598  1
  Se  Se135  1  0.25623355  0.58714256  0.06060649  1
  Se  Se136  1  0.24176803  0.57850007  0.55172001  1
  Se  Se137  1  0.24052545  0.91395608  0.05284151  1
  Se  Se138  1  0.25089054  0.91303554  0.55869561  1
  Se  Se139  1  0.58053227  0.24847742  0.05797045  1
  Se  Se140  1  0.59330371  0.26079812  0.55661205  1
  Se  Se141  1  0.58731407  0.57742442  0.04998967  1
  Se  Se142  1  0.57496662  0.58706281  0.55336854  1
  Se  Se143  1  0.56643451  0.90069897  0.05297186  1
  Se  Se144  1  0.59265020  0.92879016  0.55636373  1
  Se  Se145  1  0.92660941  0.26338274  0.05861744  1
  Se  Se146  1  0.92469761  0.25293526  0.54655258  1
  Se  Se147  1  0.93285376  0.58626824  0.06634870  1
  Se  Se148  1  0.90953076  0.57993763  0.55033375  1
  Se  Se149  1  0.91943427  0.91385180  0.05068635  1
  Se  Se150  1  0.89737345  0.89676497  0.55249818  1
  Se  Se151  1  0.08806201  0.25409143  0.43869467  1
  Se  Se152  1  0.08508775  0.24476355  0.95508883  1
  Se  Se153  1  0.07876058  0.57893996  0.43937414  1
  Se  Se154  1  0.08835641  0.57939288  0.94983042  1
  Se  Se155  1  0.08547129  0.90783284  0.45703519  1
  Se  Se156  1  0.08194658  0.91580845  0.94356013  1
  Se  Se157  1  0.41022594  0.25286213  0.43429281  1
  Se  Se158  1  0.41326582  0.24735275  0.95290140  1
  Se  Se159  1  0.41216216  0.58356557  0.44729954  1
  Se  Se160  1  0.41896544  0.57782794  0.94692720  1
  Se  Se161  1  0.40934402  0.91974071  0.44192910  1
  Se  Se162  1  0.40929529  0.91606028  0.95045113  1
  Se  Se163  1  0.75574381  0.24690678  0.44516047  1
  Se  Se164  1  0.74751091  0.25531127  0.94200575  1
  Se  Se165  1  0.74443288  0.58686251  0.44746087  1
  Se  Se166  1  0.75112739  0.58482670  0.93763088  1
  Se  Se167  1  0.75158879  0.91230138  0.44493559  1
  Se  Se168  1  0.74552951  0.92733041  0.94860735  1
  Se  Se169  1  0.25306651  0.08601388  0.44735065  1
  Se  Se170  1  0.24054169  0.08289884  0.94613159  1
  Se  Se171  1  0.24357177  0.41745238  0.44120169  1
  Se  Se172  1  0.25312397  0.41542759  0.94940614  1
  Se  Se173  1  0.24530902  0.75277035  0.44665556  1
  Se  Se174  1  0.24785331  0.74779684  0.94778037  1
  Se  Se175  1  0.58876185  0.08001326  0.43503697  1
  Se  Se176  1  0.57979104  0.08654773  0.95857169  1
  Se  Se177  1  0.56542167  0.42220705  0.44740028  1
  Se  Se178  1  0.58503961  0.41649096  0.94791644  1
  Se  Se179  1  0.58170216  0.74910440  0.43337936  1
  Se  Se180  1  0.59026869  0.74472873  0.94600241  1
  Se  Se181  1  0.94088202  0.06783148  0.44607032  1
  Se  Se182  1  0.92084783  0.07922808  0.94017202  1
  Se  Se183  1  0.91810944  0.42073020  0.43818877  1
  Se  Se184  1  0.93337720  0.40576816  0.94642383  1
  Se  Se185  1  0.91253950  0.74810055  0.44698791  1
  Se  Se186  1  0.91848309  0.74431132  0.94810847  1
  Se  Se187  1  0.26572272  0.27110627  0.29465485  1
  Se  Se188  1  0.24259426  0.24424767  0.80993373  1
  Se  Se189  1  0.24132751  0.57615094  0.31069668  1
  Se  Se190  1  0.23962510  0.56910536  0.80608685  1
  Se  Se191  1  0.24082563  0.92215169  0.31520268  1
  Se  Se192  1  0.24679526  0.91732411  0.80146135  1
  Se  Se193  1  0.58473435  0.24512053  0.30160943  1
  Se  Se194  1  0.58041974  0.24671330  0.81491375  1
  Se  Se195  1  0.58338524  0.57220185  0.31370072  1
  Se  Se196  1  0.58899973  0.58802467  0.80095239  1
  Se  Se197  1  0.58774595  0.91999737  0.29384783  1
  Se  Se198  1  0.57437595  0.91468115  0.82246817  1
  Se  Se199  1  0.91331809  0.24574255  0.30296930  1
  Se  Se200  1  0.90801920  0.24117145  0.81228452  1
  Se  Se201  1  0.91941294  0.58463085  0.30106710  1
  Se  Se202  1  0.90791280  0.57579783  0.80519176  1
  Se  Se203  1  0.90997770  0.90933963  0.31317434  1
  Se  Se204  1  0.91823793  0.91660117  0.80101154  1
  Se  Se205  1  0.09214925  0.09461725  0.31002535  1
  Se  Se206  1  0.07882463  0.07951094  0.80197975  1
  Se  Se207  1  0.06756038  0.39401447  0.29464171  1
  Se  Se208  1  0.09114560  0.41853815  0.81172107  1
  Se  Se209  1  0.08011552  0.75499754  0.30678410  1
  Se  Se210  1  0.08548231  0.75176891  0.81026118  1
  Se  Se211  1  0.41979475  0.08873180  0.31091638  1
  Se  Se212  1  0.41106344  0.08043801  0.81130264  1
  Se  Se213  1  0.41626481  0.41643770  0.30263628  1
  Se  Se214  1  0.42455635  0.42113908  0.80635163  1
  Se  Se215  1  0.42492178  0.75936747  0.29988350  1
  Se  Se216  1  0.42119734  0.75651324  0.82045145  1
  Se  Se217  1  0.75154835  0.07201703  0.30548377  1
  Se  Se218  1  0.75621682  0.09057337  0.80599052  1
  Se  Se219  1  0.74606778  0.41307728  0.30654096  1
  Se  Se220  1  0.75281129  0.42134334  0.80023737  1
  Se  Se221  1  0.75768302  0.74961209  0.30951603  1
  Se  Se222  1  0.74913872  0.75547182  0.80023661  1
  Se  Se223  1  0.23528890  0.09658277  0.19716776  1
  Se  Se224  1  0.25743655  0.07969329  0.69750035  1
  Se  Se225  1  0.25976334  0.41127227  0.20590042  1
  Se  Se226  1  0.23815511  0.41983301  0.69027050  1
  Se  Se227  1  0.24357215  0.76370793  0.19243790  1
  Se  Se228  1  0.24159137  0.75185878  0.69163626  1
  Se  Se229  1  0.58314070  0.07780338  0.19488765  1
  Se  Se230  1  0.58262605  0.09075760  0.69639955  1
  Se  Se231  1  0.58647502  0.41173878  0.19904484  1
  Se  Se232  1  0.57529213  0.42833632  0.68405657  1
  Se  Se233  1  0.58211751  0.74976335  0.18323087  1
  Se  Se234  1  0.58081635  0.75805622  0.70176721  1
  Se  Se235  1  0.91160564  0.09201139  0.18700927  1
  Se  Se236  1  0.92540136  0.08007264  0.68981866  1
  Se  Se237  1  0.91185308  0.42250089  0.19795179  1
  Se  Se238  1  0.91033631  0.41872901  0.68778326  1
  Se  Se239  1  0.92399556  0.75173032  0.19886599  1
  Se  Se240  1  0.91454224  0.76273884  0.68171873  1
  Se  Se241  1  0.07320967  0.27023495  0.20678698  1
  Se  Se242  1  0.09119466  0.24306150  0.69053879  1
  Se  Se243  1  0.08684711  0.59919881  0.20770487  1
  Se  Se244  1  0.08662154  0.56914498  0.69487543  1
  Se  Se245  1  0.08535558  0.91947628  0.19315168  1
  Se  Se246  1  0.08085052  0.91775821  0.69277200  1
  Se  Se247  1  0.41719615  0.24937264  0.19771254  1
  Se  Se248  1  0.42812461  0.23763868  0.69331367  1
  Se  Se249  1  0.42476906  0.57745779  0.18971240  1
  Se  Se250  1  0.41393016  0.58096917  0.69095128  1
  Se  Se251  1  0.42066735  0.91572905  0.18343886  1
  Se  Se252  1  0.41560598  0.92220941  0.70699053  1
  Se  Se253  1  0.74699692  0.25036949  0.20185473  1
  Se  Se254  1  0.76353577  0.24588243  0.68634689  1
  Se  Se255  1  0.75862259  0.57631646  0.18746689  1
  Se  Se256  1  0.74549015  0.59267333  0.68934100  1
  Se  Se257  1  0.74993208  0.91340052  0.19442902  1
  Se  Se258  1  0.75945796  0.92115821  0.68316439  1
