# generated using pymatgen
data_In86Cu29Se144
_symmetry_space_group_name_H-M   'P 1'
_cell_length_a   17.58152993
_cell_length_b   17.57972040
_cell_length_c   23.44664826
_cell_angle_alpha   89.98538794
_cell_angle_beta   89.98917947
_cell_angle_gamma   90.01368040
_symmetry_Int_Tables_number   1
_chemical_formula_structural   In86Cu29Se144
_chemical_formula_sum   'In86 Cu29 Se144'
_cell_volume   7246.85149847
_cell_formula_units_Z   1
loop_
 _symmetry_equiv_pos_site_id
 _symmetry_equiv_pos_as_xyz
  1  'x, y, z'
loop_
 _atom_site_type_symbol
 _atom_site_label
 _atom_site_symmetry_multiplicity
 _atom_site_fract_x
 _atom_site_fract_y
 _atom_site_fract_z
 _atom_site_occupancy
  In  In0  1  -0.01094475  0.15713040  0.11863144  1
  In  In1  1  -0.00205334  0.16211163  0.62898230  1
  In  In2  1  0.00172333  0.49902526  0.11339960  1
  In  In3  1  0.00048787  0.48768858  0.62825145  1
  In  In4  1  0.00096458  0.84965881  0.12359693  1
  In  In5  1  0.01327566  0.85293641  0.61989222  1
  In  In6  1  0.32878042  0.17643643  0.13342255  1
  In  In7  1  0.31827921  0.16519089  0.62441389  1
  In  In8  1  0.32270496  0.49158451  0.11223533  1
  In  In9  1  0.33453079  0.50391824  0.61855910  1
  In  In10  1  0.34332862  0.83934349  0.12366083  1
  In  In11  1  0.33559651  0.83723914  0.62311240  1
  In  In12  1  0.67219319  0.15635942  0.11870168  1
  In  In13  1  0.67560958  0.14731606  0.63565320  1
  In  In14  1  0.66820222  0.50354299  0.11432702  1
  In  In15  1  0.66177052  0.51301156  0.63304787  1
  In  In16  1  0.66324132  0.83594421  0.11555625  1
  In  In17  1  0.66626380  0.83167027  0.62282080  1
  In  In18  1  0.16637317  0.00239027  0.37696294  1
  In  In19  1  0.18054389  0.00830121  0.86638718  1
  In  In20  1  0.17713211  0.32250712  0.38222588  1
  In  In21  1  0.15848306  0.33442846  0.87619026  1
  In  In22  1  0.16833798  0.66610201  0.38506375  1
  In  In23  1  0.15900500  0.66571500  0.87655192  1
  In  In24  1  0.48238276  -0.00064714  0.37689849  1
  In  In25  1  0.49113720  -0.01514461  0.86750710  1
  In  In26  1  0.50056636  0.34165120  0.37613355  1
  In  In27  1  0.50243261  0.34485092  0.87663932  1
  In  In28  1  0.50005809  0.66808521  0.38312994  1
  In  In29  1  0.51176628  0.65697703  0.87925328  1
  In  In30  1  0.84883500  -0.00999496  0.38292972  1
  In  In31  1  0.83266117  0.00267198  0.86682228  1
  In  In32  1  0.82094440  0.32623854  0.37788088  1
  In  In33  1  0.84898836  0.32055688  0.88080103  1
  In  In34  1  0.84403584  0.67690523  0.37328504  1
  In  In35  1  0.82376596  0.68075040  0.87889787  1
  In  In36  1  0.01225898  0.15380679  0.38409071  1
  In  In37  1  -0.00136645  0.16624761  0.87098203  1
  In  In38  1  0.00237794  0.51344613  0.37607539  1
  In  In39  1  0.01085016  0.48656231  0.87830520  1
  In  In40  1  -0.00843504  0.85139842  0.38545737  1
  In  In41  1  -0.01104583  0.83218252  0.87226965  1
  In  In42  1  0.32552739  0.15149947  0.36221303  1
  In  In43  1  0.32799282  0.14058798  0.88199828  1
  In  In44  1  0.33943513  0.49469620  0.37785528  1
  In  In45  1  0.33661420  0.50454709  0.88542950  1
  In  In46  1  0.32381678  0.84060446  0.38369209  1
  In  In47  1  0.33555653  0.85317768  0.88158035  1
  In  In48  1  0.67362772  0.17421362  0.38267985  1
  In  In49  1  0.68712756  0.16139529  0.87100034  1
  In  In50  1  0.66086568  0.48708995  0.38088004  1
  In  In51  1  0.65725265  0.51662671  0.87688334  1
  In  In52  1  0.67243922  0.82981390  0.38426364  1
  In  In53  1  0.66837838  0.83405862  0.86961048  1
  In  In54  1  0.15625909  0.00823830  0.12919701  1
  In  In55  1  0.16127329  -0.00083118  0.63052459  1
  In  In56  1  0.17303715  0.33637561  0.12100133  1
  In  In57  1  0.15689304  0.32003191  0.61617033  1
  In  In58  1  0.18006953  0.66262110  0.11769066  1
  In  In59  1  0.17177863  0.67350740  0.61846972  1
  In  In60  1  0.49940958  -0.00382755  0.12419879  1
  In  In61  1  0.51029477  -0.01296437  0.63277383  1
  In  In62  1  0.48139171  0.32596421  0.12287833  1
  In  In63  1  0.49214470  0.33536326  0.62349110  1
  In  In64  1  0.49570829  0.67018223  0.11085892  1
  In  In65  1  0.50237352  0.66918375  0.62232517  1
  In  In66  1  0.83485287  0.00320294  0.11761646  1
  In  In67  1  0.83772806  -0.00186105  0.62516071  1
  In  In68  1  0.83070993  0.33125445  0.11439369  1
  In  In69  1  0.84913423  0.33169702  0.63188479  1
  In  In70  1  0.83921614  0.67447807  0.11312784  1
  In  In71  1  0.81704850  0.66811890  0.63048938  1
  In  In72  1  0.16638629  0.83287601  -0.00008263  1
  In  In73  1  0.33562662  0.67023635  0.24180721  1
  In  In74  1  0.32916152  0.33216281  0.75632065  1
  In  In75  1  0.66178898  0.00328016  0.24619013  1
  In  In76  1  0.50510884  0.16785373  0.00043358  1
  In  In77  1  0.66374254  0.67203522  0.25802982  1
  In  In78  1  0.00457129  0.32933373  0.25567210  1
  In  In79  1  0.65984331  0.32718966  0.25195754  1
  In  In80  1  0.66985918  0.33383500  0.75250847  1
  In  In81  1  0.83261142  0.49998358  0.50224613  1
  In  In82  1  0.33636656  0.67422648  0.74687085  1
  In  In83  1  0.00869408  0.67807167  0.23985717  1
  In  In84  1  -0.00478913  0.66986603  0.75459560  1
  In  In85  1  0.49833352  0.16647205  0.49945744  1
  Cu  Cu86  1  0.16392174  0.84406442  0.25768574  1
  Cu  Cu87  1  0.83829094  0.15633676  0.24932435  1
  Cu  Cu88  1  0.33431906  0.66592836  0.50173239  1
  Cu  Cu89  1  0.00000932  0.67065956  0.50218095  1
  Cu  Cu90  1  -0.00369132  0.00144501  -0.00484515  1
  Cu  Cu91  1  0.83301400  0.50286526  0.23880951  1
  Cu  Cu92  1  0.66430577  0.66734838  0.50349529  1
  Cu  Cu93  1  0.15913896  0.16359081  0.74604538  1
  Cu  Cu94  1  0.16882385  0.49696908  0.74800911  1
  Cu  Cu95  1  0.49786994  0.83792860  0.24935394  1
  Cu  Cu96  1  -0.00333148  0.66083085  -0.00587404  1
  Cu  Cu97  1  0.66820647  0.67268210  -0.00405984  1
  Cu  Cu98  1  0.66928903  -0.00317926  -0.00714423  1
  Cu  Cu99  1  0.00335444  0.00619769  0.50548811  1
  Cu  Cu100  1  0.00174726  0.33186298  0.50360762  1
  Cu  Cu101  1  0.49724151  0.15952074  0.75555553  1
  Cu  Cu102  1  0.32764506  0.00163273  0.50195866  1
  Cu  Cu103  1  0.50267207  0.82869297  0.74845130  1
  Cu  Cu104  1  0.33154339  0.33709880  0.49925327  1
  Cu  Cu105  1  0.83098330  0.83731450  0.74694222  1
  Cu  Cu106  1  0.32819821  0.33013607  -0.00111143  1
  Cu  Cu107  1  0.67138795  0.34167848  -0.00854176  1
  Cu  Cu108  1  0.66827552  0.33042309  0.50591211  1
  Cu  Cu109  1  0.67022353  -0.00318839  0.50747648  1
  Cu  Cu110  1  0.17762993  0.49385833  0.24711952  1
  Cu  Cu111  1  0.49264585  0.49200125  0.24768037  1
  Cu  Cu112  1  0.16444077  0.16388598  0.25153817  1
  Cu  Cu113  1  0.83219372  0.49784199  0.75585972  1
  Cu  Cu114  1  0.00345253  0.32697925  -0.00142463  1
  Se  Se115  1  0.07985529  0.08190899  0.05117786  1
  Se  Se116  1  0.08790094  0.08825235  0.55880731  1
  Se  Se117  1  0.08663589  0.41294488  0.05090275  1
  Se  Se118  1  0.08423544  0.41989221  0.55288815  1
  Se  Se119  1  0.07283749  0.74110546  0.06032801  1
  Se  Se120  1  0.08348639  0.75513121  0.55421469  1
  Se  Se121  1  0.41131216  0.08589623  0.06105006  1
  Se  Se122  1  0.41398952  0.07651620  0.56350760  1
  Se  Se123  1  0.41696442  0.41255216  0.04842252  1
  Se  Se124  1  0.41763462  0.41775462  0.55170711  1
  Se  Se125  1  0.40430933  0.75017011  0.05113611  1
  Se  Se126  1  0.41607793  0.75025392  0.55585754  1
  Se  Se127  1  0.75227918  0.08284949  0.04560311  1
  Se  Se128  1  0.75333837  0.08368233  0.55568120  1
  Se  Se129  1  0.75501864  0.42207290  0.04870603  1
  Se  Se130  1  0.74568367  0.41269838  0.56763390  1
  Se  Se131  1  0.75091903  0.75658737  0.04930918  1
  Se  Se132  1  0.75176129  0.74948072  0.55273388  1
  Se  Se133  1  0.24963484  0.24514516  0.05434715  1
  Se  Se134  1  0.25029724  0.24802959  0.54880537  1
  Se  Se135  1  0.25066478  0.58227221  0.04472013  1
  Se  Se136  1  0.24722253  0.58261406  0.55192323  1
  Se  Se137  1  0.24943748  0.92482144  0.06243326  1
  Se  Se138  1  0.24656045  0.91991170  0.55893819  1
  Se  Se139  1  0.59554473  0.26311500  0.05899452  1
  Se  Se140  1  0.59062866  0.24737326  0.56658464  1
  Se  Se141  1  0.58480127  0.58732644  0.04853813  1
  Se  Se142  1  0.58290891  0.57983896  0.55413664  1
  Se  Se143  1  0.58168648  0.92265995  0.05027707  1
  Se  Se144  1  0.58074582  0.91317284  0.55298375  1
  Se  Se145  1  0.91430958  0.24635137  0.04994730  1
  Se  Se146  1  0.91863616  0.24938195  0.55708784  1
  Se  Se147  1  0.91235367  0.57904143  0.04907942  1
  Se  Se148  1  0.92092260  0.58989277  0.56417474  1
  Se  Se149  1  0.91508363  0.91612462  0.04894596  1
  Se  Se150  1  0.91649378  0.91728366  0.55113379  1
  Se  Se151  1  0.08475077  0.24926530  0.44872184  1
  Se  Se152  1  0.08444281  0.24333075  0.94378703  1
  Se  Se153  1  0.08210188  0.58310757  0.45165400  1
  Se  Se154  1  0.08548828  0.57897031  0.94647348  1
  Se  Se155  1  0.08723102  0.92193234  0.45074404  1
  Se  Se156  1  0.07782363  0.91981784  0.93714259  1
  Se  Se157  1  0.40777210  0.25234627  0.43780199  1
  Se  Se158  1  0.40947315  0.25266142  0.93646415  1
  Se  Se159  1  0.41663914  0.58187007  0.44689125  1
  Se  Se160  1  0.42038643  0.58760911  0.94892004  1
  Se  Se161  1  0.41398382  0.91665931  0.45226495  1
  Se  Se162  1  0.41930535  0.92726577  0.95278070  1
  Se  Se163  1  0.75512087  0.24760567  0.45692440  1
  Se  Se164  1  0.75147083  0.24877025  0.94620591  1
  Se  Se165  1  0.74474006  0.59081147  0.43766223  1
  Se  Se166  1  0.75168303  0.58595167  0.94544861  1
  Se  Se167  1  0.75365160  0.91712785  0.44916643  1
  Se  Se168  1  0.75354053  0.91651302  0.93788135  1
  Se  Se169  1  0.25128728  0.08744558  0.44483609  1
  Se  Se170  1  0.23907848  0.07620375  0.95361703  1
  Se  Se171  1  0.24755085  0.42138202  0.44600338  1
  Se  Se172  1  0.24804977  0.41400397  0.94269990  1
  Se  Se173  1  0.24879935  0.75150737  0.45177050  1
  Se  Se174  1  0.25637731  0.74520384  0.93858548  1
  Se  Se175  1  0.59030889  0.07280237  0.44170059  1
  Se  Se176  1  0.58845733  0.07990602  0.93430587  1
  Se  Se177  1  0.58159108  0.41143388  0.45396432  1
  Se  Se178  1  0.58220371  0.42501199  0.94647085  1
  Se  Se179  1  0.58187808  0.75229200  0.44976088  1
  Se  Se180  1  0.58495402  0.75568431  0.94204982  1
  Se  Se181  1  0.91543929  0.08627469  0.45112166  1
  Se  Se182  1  0.91333405  0.08355737  0.93976791  1
  Se  Se183  1  0.92247386  0.40991165  0.43898644  1
  Se  Se184  1  0.92020047  0.41505603  0.94825977  1
  Se  Se185  1  0.91626822  0.75316645  0.44900054  1
  Se  Se186  1  0.91607932  0.75264097  0.94789424  1
  Se  Se187  1  0.24761027  0.25063115  0.30193359  1
  Se  Se188  1  0.24311882  0.23561998  0.81200603  1
  Se  Se189  1  0.24769687  0.58353860  0.30716144  1
  Se  Se190  1  0.24614990  0.57853144  0.80710627  1
  Se  Se191  1  0.25446677  0.92210437  0.30775640  1
  Se  Se192  1  0.25365931  0.91231961  0.80294896  1
  Se  Se193  1  0.57328802  0.23633600  0.31271894  1
  Se  Se194  1  0.57569395  0.24318075  0.81264059  1
  Se  Se195  1  0.57296691  0.57051856  0.30915449  1
  Se  Se196  1  0.58415944  0.58808765  0.79857894  1
  Se  Se197  1  0.58124602  0.90961638  0.31239104  1
  Se  Se198  1  0.58555814  0.91642582  0.79962945  1
  Se  Se199  1  0.91059796  0.23999590  0.31282731  1
  Se  Se200  1  0.92133994  0.25323452  0.80143006  1
  Se  Se201  1  0.91334102  0.58167854  0.29879706  1
  Se  Se202  1  0.91212917  0.57799191  0.81756401  1
  Se  Se203  1  0.91984698  0.91734561  0.30386307  1
  Se  Se204  1  0.91754832  0.91668629  0.79946272  1
  Se  Se205  1  0.08122256  0.08016649  0.30437938  1
  Se  Se206  1  0.08169952  0.07921347  0.80360037  1
  Se  Se207  1  0.09280898  0.42533973  0.31168163  1
  Se  Se208  1  0.08458071  0.41302955  0.79929120  1
  Se  Se209  1  0.08810495  0.75663858  0.31483576  1
  Se  Se210  1  0.09241470  0.76086331  0.80599801  1
  Se  Se211  1  0.42304912  0.08146733  0.29936776  1
  Se  Se212  1  0.40975963  0.07624828  0.80360427  1
  Se  Se213  1  0.41195071  0.41118858  0.30352916  1
  Se  Se214  1  0.42012401  0.42966823  0.80628077  1
  Se  Se215  1  0.42014606  0.75528127  0.31028146  1
  Se  Se216  1  0.42265274  0.75632929  0.81445082  1
  Se  Se217  1  0.75351956  0.08531355  0.31233636  1
  Se  Se218  1  0.74943226  0.07961180  0.79452364  1
  Se  Se219  1  0.75712365  0.42533935  0.30397956  1
  Se  Se220  1  0.75417359  0.41944812  0.81924746  1
  Se  Se221  1  0.76202915  0.76521687  0.30470096  1
  Se  Se222  1  0.74988852  0.74960897  0.79867046  1
  Se  Se223  1  0.24834859  0.08273116  0.19658636  1
  Se  Se224  1  0.24961962  0.08197031  0.69851788  1
  Se  Se225  1  0.25856169  0.41167854  0.19294190  1
  Se  Se226  1  0.24560972  0.41604407  0.68621102  1
  Se  Se227  1  0.23735319  0.76359790  0.19173172  1
  Se  Se228  1  0.23887425  0.76191150  0.69386897  1
  Se  Se229  1  0.57321959  0.09870225  0.19027037  1
  Se  Se230  1  0.58203928  0.07803483  0.70254004  1
  Se  Se231  1  0.58077753  0.42136695  0.18711344  1
  Se  Se232  1  0.57305850  0.41989558  0.69535910  1
  Se  Se233  1  0.57467639  0.75430697  0.19018901  1
  Se  Se234  1  0.58531711  0.74696783  0.69337298  1
  Se  Se235  1  0.91797394  0.07446817  0.19396399  1
  Se  Se236  1  0.92498853  0.07082507  0.69616942  1
  Se  Se237  1  0.91577312  0.41660348  0.18849160  1
  Se  Se238  1  0.91942768  0.41822778  0.70454899  1
  Se  Se239  1  0.90713165  0.76270275  0.18967227  1
  Se  Se240  1  0.91337893  0.75689644  0.68700919  1
  Se  Se241  1  0.08529984  0.24271209  0.18814597  1
  Se  Se242  1  0.08039648  0.25303234  0.69558056  1
  Se  Se243  1  0.09479756  0.57296506  0.18894429  1
  Se  Se244  1  0.08884899  0.58261375  0.69128040  1
  Se  Se245  1  0.07927265  0.92093117  0.20017938  1
  Se  Se246  1  0.07408082  0.92556618  0.70200335  1
  Se  Se247  1  0.41840059  0.25071152  0.20212281  1
  Se  Se248  1  0.42000789  0.24044202  0.69402709  1
  Se  Se249  1  0.42241778  0.57547291  0.18423663  1
  Se  Se250  1  0.42224593  0.57595625  0.69246515  1
  Se  Se251  1  0.41536529  0.92225481  0.19815219  1
  Se  Se252  1  0.41591529  0.91279261  0.69795003  1
  Se  Se253  1  0.75845641  0.24134485  0.19250812  1
  Se  Se254  1  0.76104719  0.24268096  0.69692424  1
  Se  Se255  1  0.75131787  0.58836176  0.18789674  1
  Se  Se256  1  0.74902037  0.58277798  0.70527451  1
  Se  Se257  1  0.75084277  0.91289902  0.18774222  1
  Se  Se258  1  0.74648966  0.91722608  0.69114311  1
