# generated using pymatgen
data_In86Cu29Se144
_symmetry_space_group_name_H-M   'P 1'
_cell_length_a   17.58428113
_cell_length_b   17.58680151
_cell_length_c   23.45260891
_cell_angle_alpha   90.00683935
_cell_angle_beta   89.99209176
_cell_angle_gamma   89.98170940
_symmetry_Int_Tables_number   1
_chemical_formula_structural   In86Cu29Se144
_chemical_formula_sum   'In86 Cu29 Se144'
_cell_volume   7252.74840737
_cell_formula_units_Z   1
loop_
 _symmetry_equiv_pos_site_id
 _symmetry_equiv_pos_as_xyz
  1  'x, y, z'
loop_
 _atom_site_type_symbol
 _atom_site_label
 _atom_site_symmetry_multiplicity
 _atom_site_fract_x
 _atom_site_fract_y
 _atom_site_fract_z
 _atom_site_occupancy
  In  In0  1  -0.00158182  0.17233044  0.12390205  1
  In  In1  1  -0.01094564  0.15389842  0.61902747  1
  In  In2  1  0.00072068  0.51905725  0.12233085  1
  In  In3  1  0.01521708  0.50667018  0.62578895  1
  In  In4  1  -0.01808994  0.83263191  0.12364291  1
  In  In5  1  -0.00015523  0.83378443  0.62864215  1
  In  In6  1  0.33205786  0.16417488  0.12692079  1
  In  In7  1  0.34212221  0.17899892  0.61480279  1
  In  In8  1  0.35029485  0.50255652  0.12412784  1
  In  In9  1  0.33335316  0.50421903  0.62727570  1
  In  In10  1  0.34342355  0.82809027  0.14364346  1
  In  In11  1  0.32345217  0.82584362  0.61851065  1
  In  In12  1  0.66612267  0.16922594  0.12776387  1
  In  In13  1  0.66882805  0.16643552  0.62066065  1
  In  In14  1  0.65438742  0.49970649  0.11651178  1
  In  In15  1  0.66413429  0.51042305  0.62873692  1
  In  In16  1  0.68183495  0.82872408  0.12630258  1
  In  In17  1  0.67277369  0.82318834  0.62524955  1
  In  In18  1  0.17891682  -0.01588443  0.38856353  1
  In  In19  1  0.15304765  0.01046819  0.87166640  1
  In  In20  1  0.17029909  0.33196139  0.38725040  1
  In  In21  1  0.17581404  0.32061930  0.86786730  1
  In  In22  1  0.16992067  0.67270314  0.38137197  1
  In  In23  1  0.16676997  0.66529425  0.86555709  1
  In  In24  1  0.51355037  0.00393482  0.36352193  1
  In  In25  1  0.51007498  0.00088561  0.87904577  1
  In  In26  1  0.50401745  0.33046608  0.37915857  1
  In  In27  1  0.48312562  0.34409863  0.88862416  1
  In  In28  1  0.47000198  0.67202410  0.38103664  1
  In  In29  1  0.49064773  0.64756784  0.86040805  1
  In  In30  1  0.82415450  0.00424373  0.37995829  1
  In  In31  1  0.83580641  -0.00082361  0.87795567  1
  In  In32  1  0.81639110  0.33073719  0.37315494  1
  In  In33  1  0.82947723  0.34032357  0.88479709  1
  In  In34  1  0.84896390  0.66414337  0.37611894  1
  In  In35  1  0.82865020  0.66154443  0.87173184  1
  In  In36  1  0.00030631  0.16204419  0.38458311  1
  In  In37  1  -0.00657502  0.15576917  0.86509493  1
  In  In38  1  0.00077929  0.51578437  0.37773422  1
  In  In39  1  -0.01425668  0.49999823  0.87547451  1
  In  In40  1  0.00903823  0.82472525  0.38415270  1
  In  In41  1  -0.04676811  0.80798743  0.83564243  1
  In  In42  1  0.34284697  0.15925061  0.38373194  1
  In  In43  1  0.33379665  0.17334315  0.87212755  1
  In  In44  1  0.32500007  0.51559230  0.39096161  1
  In  In45  1  0.34029158  0.49848485  0.86684931  1
  In  In46  1  0.33110434  0.82484129  0.36372586  1
  In  In47  1  0.34449088  0.82562845  0.87094331  1
  In  In48  1  0.66495837  0.16670248  0.37444678  1
  In  In49  1  0.66288635  0.16799821  0.88477317  1
  In  In50  1  0.66464562  0.48502729  0.37193054  1
  In  In51  1  0.65232457  0.51539946  0.88816793  1
  In  In52  1  0.65819335  0.84795665  0.37383105  1
  In  In53  1  0.68434469  0.82544056  0.87888181  1
  In  In54  1  0.17579718  0.00663219  0.13165345  1
  In  In55  1  0.15823695  -0.01204338  0.61196082  1
  In  In56  1  0.17270805  0.32150500  0.12692073  1
  In  In57  1  0.17570893  0.34946796  0.61565786  1
  In  In58  1  0.16454500  0.67000206  0.13392184  1
  In  In59  1  0.16929263  0.66434168  0.62689239  1
  In  In60  1  0.49340782  0.00649776  0.13749417  1
  In  In61  1  0.49248446  0.00535669  0.61939738  1
  In  In62  1  0.50813528  0.35130611  0.11713059  1
  In  In63  1  0.49842407  0.32965203  0.62327870  1
  In  In64  1  0.50382015  0.65426049  0.12494585  1
  In  In65  1  0.50126423  0.65392545  0.62626558  1
  In  In66  1  0.82440715  -0.00851607  0.11845025  1
  In  In67  1  0.84343186  0.00475898  0.62652437  1
  In  In68  1  0.82198932  0.32275783  0.11722020  1
  In  In69  1  0.84026716  0.32257811  0.62647321  1
  In  In70  1  0.82910010  0.67931926  0.11589553  1
  In  In71  1  0.83063347  0.68145998  0.63537287  1
  In  In72  1  0.51303913  0.82751330  0.00294247  1
  In  In73  1  0.67156284  -0.00676460  0.75760648  1
  In  In74  1  0.00641220  0.33673191  0.74861168  1
  In  In75  1  0.32694873  -0.00621389  0.73907418  1
  In  In76  1  0.16476945  0.49663134  -0.00614602  1
  In  In77  1  0.00270289  -0.00666617  0.25086762  1
  In  In78  1  0.49790953  0.83456523  0.49698693  1
  In  In79  1  0.66244859  0.33626101  0.74989028  1
  In  In80  1  0.16843848  0.16681694  0.00406309  1
  In  In81  1  0.15981256  0.84465142  -0.00548122  1
  In  In82  1  0.83401297  0.49540622  0.50063308  1
  In  In83  1  0.66176049  0.66909313  0.24870790  1
  In  In84  1  -0.00769134  0.34138858  0.25353731  1
  In  In85  1  0.33775817  0.34055877  0.24871061  1
  Cu  Cu86  1  0.82512180  0.16054397  0.24991221  1
  Cu  Cu87  1  0.33504034  0.33866863  0.50226089  1
  Cu  Cu88  1  0.66573209  0.00874801  0.00382845  1
  Cu  Cu89  1  0.66817691  0.66555930  0.50386054  1
  Cu  Cu90  1  0.17018560  0.50970903  0.25633826  1
  Cu  Cu91  1  -0.00190140  0.32795821  0.50303321  1
  Cu  Cu92  1  0.00399531  0.67121547  0.50459884  1
  Cu  Cu93  1  -0.01226397  0.67712819  -0.00421178  1
  Cu  Cu94  1  0.83656302  0.82934604  0.24889096  1
  Cu  Cu95  1  0.66997127  0.00413892  0.49558986  1
  Cu  Cu96  1  0.16512478  0.83686372  0.74273043  1
  Cu  Cu97  1  0.50082759  0.50174316  0.24998274  1
  Cu  Cu98  1  0.83204243  0.50694576  0.75255108  1
  Cu  Cu99  1  0.49964811  0.16675785  0.74990461  1
  Cu  Cu100  1  0.50797522  0.17272106  0.25304804  1
  Cu  Cu101  1  0.33509150  0.66129012  -0.00252391  1
  Cu  Cu102  1  0.16880494  0.17091547  0.73843841  1
  Cu  Cu103  1  0.17372855  0.50275202  0.74486202  1
  Cu  Cu104  1  0.50347710  0.81689474  0.74699183  1
  Cu  Cu105  1  0.66770801  0.33294922  0.00238332  1
  Cu  Cu106  1  0.16670199  0.82718074  0.25819646  1
  Cu  Cu107  1  0.83117658  0.50240038  0.24864444  1
  Cu  Cu108  1  0.17275400  0.16016225  0.25873185  1
  Cu  Cu109  1  -0.00504277  -0.00436921  0.50129307  1
  Cu  Cu110  1  0.33821850  0.00019398  0.00920330  1
  Cu  Cu111  1  0.66447279  0.32531860  0.50007964  1
  Cu  Cu112  1  -0.01028692  -0.00215809  -0.00598803  1
  Cu  Cu113  1  0.33670646  0.00586253  0.49618653  1
  Cu  Cu114  1  -0.00035429  0.33129391  0.00096796  1
  Se  Se115  1  0.07459160  0.06915084  0.05853286  1
  Se  Se116  1  0.08070420  0.08315032  0.54969824  1
  Se  Se117  1  0.07978856  0.40779940  0.06338929  1
  Se  Se118  1  0.07782782  0.41971835  0.54999954  1
  Se  Se119  1  0.07759802  0.74685677  0.05677463  1
  Se  Se120  1  0.08648376  0.75258697  0.56037395  1
  Se  Se121  1  0.41964889  0.08496124  0.05992525  1
  Se  Se122  1  0.42170684  0.08927716  0.54719545  1
  Se  Se123  1  0.41163513  0.41741044  0.04992574  1
  Se  Se124  1  0.41758321  0.41869868  0.55846079  1
  Se  Se125  1  0.40792536  0.74631370  0.05935519  1
  Se  Se126  1  0.41370098  0.73976555  0.55545752  1
  Se  Se127  1  0.75206702  0.08989794  0.05664440  1
  Se  Se128  1  0.75224131  0.08008440  0.55670315  1
  Se  Se129  1  0.74967943  0.41990941  0.05427135  1
  Se  Se130  1  0.74322808  0.40652531  0.56275795  1
  Se  Se131  1  0.74092609  0.75129210  0.04597778  1
  Se  Se132  1  0.75531956  0.74764535  0.55242344  1
  Se  Se133  1  0.26605918  0.26151532  0.05249226  1
  Se  Se134  1  0.24735298  0.25257119  0.55011747  1
  Se  Se135  1  0.24904786  0.58887680  0.05890756  1
  Se  Se136  1  0.23687688  0.56982252  0.55893200  1
  Se  Se137  1  0.25728245  0.91559699  0.06383287  1
  Se  Se138  1  0.25711743  0.91763287  0.54806626  1
  Se  Se139  1  0.58411042  0.25184768  0.05764447  1
  Se  Se140  1  0.57994149  0.24429509  0.55475745  1
  Se  Se141  1  0.58339326  0.59082177  0.04799646  1
  Se  Se142  1  0.58439241  0.57964264  0.55152781  1
  Se  Se143  1  0.58848769  0.92649155  0.06564647  1
  Se  Se144  1  0.59199824  0.92299127  0.55918931  1
  Se  Se145  1  0.91646101  0.24590981  0.05225567  1
  Se  Se146  1  0.91081195  0.24427029  0.55030675  1
  Se  Se147  1  0.91303976  0.58902435  0.05158341  1
  Se  Se148  1  0.91857861  0.58921632  0.56136555  1
  Se  Se149  1  0.90994385  0.91231985  0.04889308  1
  Se  Se150  1  0.91436436  0.91281710  0.55730072  1
  Se  Se151  1  0.08408093  0.24630667  0.45011905  1
  Se  Se152  1  0.07712725  0.25178163  0.93863054  1
  Se  Se153  1  0.08519415  0.58700355  0.44956477  1
  Se  Se154  1  0.07364128  0.59557076  0.94109906  1
  Se  Se155  1  0.08397761  0.91205134  0.45335268  1
  Se  Se156  1  0.06531022  0.91945720  0.93096778  1
  Se  Se157  1  0.41705818  0.25381132  0.44817899  1
  Se  Se158  1  0.42661170  0.22963022  0.94376976  1
  Se  Se159  1  0.43383710  0.57045068  0.45288083  1
  Se  Se160  1  0.41506422  0.57975457  0.94177823  1
  Se  Se161  1  0.41550840  0.92589498  0.43364401  1
  Se  Se162  1  0.41270588  0.91892172  0.94544275  1
  Se  Se163  1  0.75044401  0.24476888  0.44713403  1
  Se  Se164  1  0.75127190  0.24946064  0.94989664  1
  Se  Se165  1  0.74522992  0.58519878  0.43862821  1
  Se  Se166  1  0.76790871  0.56647711  0.94277456  1
  Se  Se167  1  0.74854848  0.91179560  0.44702900  1
  Se  Se168  1  0.74458382  0.92514549  0.94646239  1
  Se  Se169  1  0.24536093  0.08919770  0.44903029  1
  Se  Se170  1  0.25537511  0.07181438  0.94338184  1
  Se  Se171  1  0.24682985  0.42156862  0.45308373  1
  Se  Se172  1  0.25565355  0.40560710  0.93882980  1
  Se  Se173  1  0.25834801  0.75713072  0.44358287  1
  Se  Se174  1  0.25421602  0.74527104  0.94184561  1
  Se  Se175  1  0.58165013  0.08245412  0.44305485  1
  Se  Se176  1  0.57651531  0.08695156  0.95273528  1
  Se  Se177  1  0.58598056  0.41475212  0.44891118  1
  Se  Se178  1  0.58197364  0.41556522  0.95050393  1
  Se  Se179  1  0.58924536  0.74152926  0.43827414  1
  Se  Se180  1  0.58094330  0.73977222  0.93018844  1
  Se  Se181  1  0.91223636  0.08063040  0.44846353  1
  Se  Se182  1  0.91400187  0.09172184  0.94488980  1
  Se  Se183  1  0.92244576  0.40677406  0.43607857  1
  Se  Se184  1  0.91766224  0.41976166  0.95233332  1
  Se  Se185  1  0.91577586  0.74917737  0.45093202  1
  Se  Se186  1  0.91084577  0.75726473  0.93533518  1
  Se  Se187  1  0.25056228  0.24967807  0.31184966  1
  Se  Se188  1  0.25576613  0.24513570  0.79451702  1
  Se  Se189  1  0.25396160  0.58873574  0.31121962  1
  Se  Se190  1  0.25512974  0.58450233  0.80194253  1
  Se  Se191  1  0.24721651  0.91986784  0.30361676  1
  Se  Se192  1  0.24314215  0.91206845  0.81111359  1
  Se  Se193  1  0.58865634  0.25806426  0.30579968  1
  Se  Se194  1  0.57598290  0.24568362  0.81203554  1
  Se  Se195  1  0.57653345  0.58191216  0.31426829  1
  Se  Se196  1  0.59314740  0.57922117  0.80061440  1
  Se  Se197  1  0.58626535  0.91503592  0.29420423  1
  Se  Se198  1  0.57468768  0.89997798  0.81081107  1
  Se  Se199  1  0.91065307  0.23827819  0.30873480  1
  Se  Se200  1  0.90908219  0.25635409  0.80833584  1
  Se  Se201  1  0.91834564  0.58167192  0.30019437  1
  Se  Se202  1  0.92236221  0.58686268  0.80124927  1
  Se  Se203  1  0.91291275  0.90844691  0.31355643  1
  Se  Se204  1  0.92381741  0.94254530  0.79999110  1
  Se  Se205  1  0.09007969  0.08043930  0.31514827  1
  Se  Se206  1  0.08598142  0.08992283  0.79376893  1
  Se  Se207  1  0.09252107  0.42236507  0.31248815  1
  Se  Se208  1  0.09452478  0.42696805  0.81185053  1
  Se  Se209  1  0.08017226  0.74489816  0.30814900  1
  Se  Se210  1  0.08672279  0.75733747  0.80349452  1
  Se  Se211  1  0.42041405  0.09178903  0.30486171  1
  Se  Se212  1  0.42079855  0.07644873  0.80409297  1
  Se  Se213  1  0.41943771  0.42790087  0.31486242  1
  Se  Se214  1  0.41318952  0.40213347  0.80349502  1
  Se  Se215  1  0.43485741  0.76253105  0.30098822  1
  Se  Se216  1  0.41052717  0.74117466  0.79686940  1
  Se  Se217  1  0.74435978  0.07837944  0.30514976  1
  Se  Se218  1  0.75202305  0.09537782  0.81137117  1
  Se  Se219  1  0.74922676  0.41485617  0.29752508  1
  Se  Se220  1  0.75349478  0.42427201  0.81042615  1
  Se  Se221  1  0.75598666  0.75211796  0.31225097  1
  Se  Se222  1  0.75849342  0.75475255  0.80176300  1
  Se  Se223  1  0.25780323  0.08377761  0.20238396  1
  Se  Se224  1  0.24576833  0.08806805  0.67754865  1
  Se  Se225  1  0.24065742  0.42827223  0.18991157  1
  Se  Se226  1  0.25329818  0.41273357  0.69625379  1
  Se  Se227  1  0.25140816  0.74450578  0.20339225  1
  Se  Se228  1  0.25127507  0.75099114  0.69621742  1
  Se  Se229  1  0.58776832  0.08593339  0.19921037  1
  Se  Se230  1  0.57960615  0.08313485  0.69356058  1
  Se  Se231  1  0.58537375  0.42106235  0.19584530  1
  Se  Se232  1  0.57215459  0.42651878  0.69313630  1
  Se  Se233  1  0.57454208  0.75952776  0.18758670  1
  Se  Se234  1  0.58830956  0.74080435  0.69090125  1
  Se  Se235  1  0.91346193  0.08572142  0.19143390  1
  Se  Se236  1  0.91386022  0.09071517  0.69960680  1
  Se  Se237  1  0.90996325  0.42429104  0.18436505  1
  Se  Se238  1  0.91063393  0.42738471  0.68999944  1
  Se  Se239  1  0.91463793  0.74294227  0.19496804  1
  Se  Se240  1  0.92338967  0.75226455  0.70236994  1
  Se  Se241  1  0.08953674  0.24111510  0.20120535  1
  Se  Se242  1  0.08667781  0.25065638  0.67971776  1
  Se  Se243  1  0.08150687  0.58480484  0.20040018  1
  Se  Se244  1  0.08394194  0.58805403  0.70122901  1
  Se  Se245  1  0.09165657  0.90247258  0.18832128  1
  Se  Se246  1  0.08321958  0.92441477  0.69398588  1
  Se  Se247  1  0.42758056  0.25087986  0.18956559  1
  Se  Se248  1  0.41732628  0.24799913  0.69494095  1
  Se  Se249  1  0.41640398  0.58684760  0.19965442  1
  Se  Se250  1  0.41351202  0.58542411  0.69814466  1
  Se  Se251  1  0.40423611  0.93135776  0.20431058  1
  Se  Se252  1  0.42720804  0.90267734  0.68745440  1
  Se  Se253  1  0.75026942  0.25236901  0.19785665  1
  Se  Se254  1  0.75496304  0.24080777  0.69645361  1
  Se  Se255  1  0.75153952  0.58129654  0.18679773  1
  Se  Se256  1  0.74966128  0.58779390  0.69689163  1
  Se  Se257  1  0.75447729  0.91592147  0.19801950  1
  Se  Se258  1  0.75833518  0.91007579  0.69233258  1
