# generated using pymatgen
data_In86Cu29Se144
_symmetry_space_group_name_H-M   'P 1'
_cell_length_a   17.58149324
_cell_length_b   17.58639464
_cell_length_c   23.44018195
_cell_angle_alpha   89.98469280
_cell_angle_beta   90.00375869
_cell_angle_gamma   90.00405700
_symmetry_Int_Tables_number   1
_chemical_formula_structural   In86Cu29Se144
_chemical_formula_sum   'In86 Cu29 Se144'
_cell_volume   7247.58860250
_cell_formula_units_Z   1
loop_
 _symmetry_equiv_pos_site_id
 _symmetry_equiv_pos_as_xyz
  1  'x, y, z'
loop_
 _atom_site_type_symbol
 _atom_site_label
 _atom_site_symmetry_multiplicity
 _atom_site_fract_x
 _atom_site_fract_y
 _atom_site_fract_z
 _atom_site_occupancy
  In  In0  1  -0.00476708  0.17034856  0.12243508  1
  In  In1  1  0.01497408  0.16277330  0.62293790  1
  In  In2  1  0.01513804  0.48853626  0.13476028  1
  In  In3  1  -0.01081914  0.50397016  0.62288548  1
  In  In4  1  0.00029535  0.83731522  0.12666683  1
  In  In5  1  0.00820743  0.84175217  0.60402191  1
  In  In6  1  0.32734276  0.17339869  0.12972036  1
  In  In7  1  0.31721488  0.15768473  0.62211787  1
  In  In8  1  0.31900670  0.49269750  0.11914752  1
  In  In9  1  0.34712855  0.49649119  0.62543241  1
  In  In10  1  0.32654183  0.85212549  0.12392603  1
  In  In11  1  0.32503158  0.84158699  0.63404424  1
  In  In12  1  0.67608362  0.15595696  0.13771473  1
  In  In13  1  0.65791413  0.16666393  0.62706780  1
  In  In14  1  0.65192134  0.50030679  0.12123728  1
  In  In15  1  0.67193497  0.50395186  0.61544172  1
  In  In16  1  0.68007225  0.84230058  0.12193889  1
  In  In17  1  0.67701511  0.83782199  0.62278422  1
  In  In18  1  0.16461946  -0.00032315  0.37032733  1
  In  In19  1  0.17503419  -0.00462505  0.89244341  1
  In  In20  1  0.15504825  0.32123734  0.36544095  1
  In  In21  1  0.15746402  0.33890643  0.88881856  1
  In  In22  1  0.15858795  0.68522056  0.37794477  1
  In  In23  1  0.17448851  0.65930943  0.88037726  1
  In  In24  1  0.50652140  0.01162532  0.35968954  1
  In  In25  1  0.49548210  -0.00492446  0.87143305  1
  In  In26  1  0.50812596  0.33723217  0.36007479  1
  In  In27  1  0.51033461  0.33590781  0.88315693  1
  In  In28  1  0.49179823  0.65971922  0.37911470  1
  In  In29  1  0.48511266  0.67312904  0.87638448  1
  In  In30  1  0.83288595  -0.01220418  0.37515661  1
  In  In31  1  0.82881312  0.00182929  0.88341762  1
  In  In32  1  0.83729387  0.33725886  0.36425791  1
  In  In33  1  0.83776208  0.31867937  0.88203480  1
  In  In34  1  0.84660974  0.66186651  0.38576854  1
  In  In35  1  0.84921947  0.66874137  0.87707658  1
  In  In36  1  0.00586791  0.16894464  0.37028577  1
  In  In37  1  -0.00141391  0.17021823  0.88591461  1
  In  In38  1  -0.00764282  0.49337190  0.36668093  1
  In  In39  1  0.01260122  0.49663516  0.87769216  1
  In  In40  1  0.00136755  0.83528199  0.37287699  1
  In  In41  1  -0.00106691  0.83410941  0.88646788  1
  In  In42  1  0.32152671  0.15384531  0.36233773  1
  In  In43  1  0.32556457  0.15203253  0.88000371  1
  In  In44  1  0.34393988  0.49836942  0.37644092  1
  In  In45  1  0.32771625  0.50551370  0.88087787  1
  In  In46  1  0.31114675  0.84286926  0.37869024  1
  In  In47  1  0.33075934  0.83182662  0.87401114  1
  In  In48  1  0.66206272  0.16575924  0.36057951  1
  In  In49  1  0.67776909  0.16140121  0.88031942  1
  In  In50  1  0.67361668  0.49649519  0.37496164  1
  In  In51  1  0.66674797  0.48769589  0.88234775  1
  In  In52  1  0.68295088  0.85178045  0.37449727  1
  In  In53  1  0.66215069  0.84778659  0.87767087  1
  In  In54  1  0.16437505  -0.00038802  0.12201557  1
  In  In55  1  0.17012199  0.00716825  0.61882104  1
  In  In56  1  0.16130699  0.33587928  0.12409377  1
  In  In57  1  0.16666014  0.31406786  0.62319942  1
  In  In58  1  0.15582069  0.65894594  0.12187553  1
  In  In59  1  0.16595289  0.68704582  0.62455930  1
  In  In60  1  0.48944409  0.02168249  0.14648335  1
  In  In61  1  0.50186998  -0.00438031  0.63024366  1
  In  In62  1  0.48735922  0.33743864  0.13809120  1
  In  In63  1  0.49867551  0.34077056  0.62114414  1
  In  In64  1  0.50682949  0.65417592  0.11948792  1
  In  In65  1  0.50089037  0.65406212  0.62604385  1
  In  In66  1  0.83488490  0.00343175  0.12742122  1
  In  In67  1  0.83071485  -0.01095331  0.61931262  1
  In  In68  1  0.85334647  0.31656575  0.13335651  1
  In  In69  1  0.83415245  0.34359609  0.62181013  1
  In  In70  1  0.83327668  0.68591153  0.12096642  1
  In  In71  1  0.84982466  0.67293844  0.60722498  1
  In  In72  1  0.00288281  0.00224822  0.74689067  1
  In  In73  1  0.66939154  0.32805283  0.75675961  1
  In  In74  1  0.49708587  0.16567583  0.48270575  1
  In  In75  1  0.66915042  0.67270326  0.24295433  1
  In  In76  1  0.83471720  0.50230032  0.00318997  1
  In  In77  1  0.00525480  0.67057210  0.73938810  1
  In  In78  1  0.16187495  0.50165374  0.49618323  1
  In  In79  1  0.50400971  0.83304918  0.00462873  1
  In  In80  1  0.32673577  0.67111875  0.25708378  1
  In  In81  1  0.49576231  0.17229797  0.01237390  1
  In  In82  1  0.49977982  0.83210142  0.49727500  1
  In  In83  1  0.83546560  0.16272649  0.48825480  1
  In  In84  1  0.66781786  0.66829236  0.74744185  1
  In  In85  1  0.33416064  0.32636242  0.74790941  1
  Cu  Cu86  1  0.66242682  0.34129779  0.49189154  1
  Cu  Cu87  1  0.49961624  0.50317014  0.75171321  1
  Cu  Cu88  1  0.33269408  0.33713348  0.00819179  1
  Cu  Cu89  1  0.49539307  0.83772433  0.75301863  1
  Cu  Cu90  1  0.16256732  0.16604538  0.24309400  1
  Cu  Cu91  1  0.49445157  0.49970994  0.24777864  1
  Cu  Cu92  1  0.16230333  0.84019635  0.25019914  1
  Cu  Cu93  1  0.66680450  0.00352468  0.00649428  1
  Cu  Cu94  1  0.33325331  0.66430499  0.50056312  1
  Cu  Cu95  1  0.83969730  0.49709048  0.74167829  1
  Cu  Cu96  1  0.16567819  0.16163844  0.75096124  1
  Cu  Cu97  1  -0.00208692  0.33298575  0.49116335  1
  Cu  Cu98  1  0.84038495  0.83696525  0.24871451  1
  Cu  Cu99  1  0.49483972  0.15431258  0.74965774  1
  Cu  Cu100  1  0.83105153  0.83814990  0.74716020  1
  Cu  Cu101  1  -0.00073639  0.67260534  0.00394277  1
  Cu  Cu102  1  0.83193519  0.50114092  0.25026241  1
  Cu  Cu103  1  0.66668186  0.33429411  0.00710157  1
  Cu  Cu104  1  0.33026006  -0.00062501  0.49680445  1
  Cu  Cu105  1  0.49832263  0.83788336  0.25061109  1
  Cu  Cu106  1  0.33305694  0.33016963  0.49907807  1
  Cu  Cu107  1  0.66483285  0.66360035  0.49853093  1
  Cu  Cu108  1  0.33234754  0.66687295  -0.00132455  1
  Cu  Cu109  1  0.16842938  0.49709447  0.24788646  1
  Cu  Cu110  1  -0.00574428  0.00094068  0.00664588  1
  Cu  Cu111  1  0.17064768  0.83503102  0.75470581  1
  Cu  Cu112  1  0.84046208  0.16377459  0.25151459  1
  Cu  Cu113  1  0.17112393  0.49678787  0.75762063  1
  Cu  Cu114  1  0.83632467  0.16157729  0.75914256  1
  Se  Se115  1  0.07982110  0.08492585  0.05572117  1
  Se  Se116  1  0.07965923  0.07698831  0.55027575  1
  Se  Se117  1  0.09113299  0.42772011  0.05392002  1
  Se  Se118  1  0.07842478  0.40618804  0.55820387  1
  Se  Se119  1  0.08444507  0.75491631  0.05647106  1
  Se  Se120  1  0.06291181  0.72397311  0.55347105  1
  Se  Se121  1  0.40604364  0.07418402  0.06088419  1
  Se  Se122  1  0.41534916  0.07845704  0.55477482  1
  Se  Se123  1  0.42034050  0.41795151  0.05919773  1
  Se  Se124  1  0.41691681  0.41551035  0.54862375  1
  Se  Se125  1  0.40788202  0.74462916  0.06395850  1
  Se  Se126  1  0.41170645  0.74619897  0.56250642  1
  Se  Se127  1  0.75209749  0.08792562  0.05709538  1
  Se  Se128  1  0.74320042  0.08554343  0.55738786  1
  Se  Se129  1  0.75175388  0.41028860  0.06683153  1
  Se  Se130  1  0.74986027  0.41550800  0.54886663  1
  Se  Se131  1  0.73385627  0.74310910  0.05296703  1
  Se  Se132  1  0.74575653  0.74820154  0.55242993  1
  Se  Se133  1  0.24876416  0.25212961  0.05728751  1
  Se  Se134  1  0.24965371  0.24396852  0.54825190  1
  Se  Se135  1  0.24675298  0.58557512  0.05286662  1
  Se  Se136  1  0.25297508  0.58505852  0.56266716  1
  Se  Se137  1  0.24058450  0.91414084  0.04998632  1
  Se  Se138  1  0.25284838  0.91555919  0.55510617  1
  Se  Se139  1  0.59078547  0.25544650  0.07160955  1
  Se  Se140  1  0.58547065  0.25668693  0.55100418  1
  Se  Se141  1  0.58916539  0.58618239  0.04591368  1
  Se  Se142  1  0.57967405  0.58080271  0.55060283  1
  Se  Se143  1  0.57963700  0.93259280  0.06774976  1
  Se  Se144  1  0.58886617  0.92475987  0.55486323  1
  Se  Se145  1  0.91833052  0.25240697  0.04909310  1
  Se  Se146  1  0.91983117  0.25293223  0.55557350  1
  Se  Se147  1  0.92500385  0.58830260  0.06562633  1
  Se  Se148  1  0.91117072  0.56915484  0.54540707  1
  Se  Se149  1  0.91076454  0.91453453  0.05746667  1
  Se  Se150  1  0.91692503  0.92431071  0.54648408  1
  Se  Se151  1  0.08476401  0.24727555  0.44557510  1
  Se  Se152  1  0.10020993  0.23302645  0.95004260  1
  Se  Se153  1  0.07189049  0.58843137  0.43641060  1
  Se  Se154  1  0.07929311  0.58874582  0.94716203  1
  Se  Se155  1  0.11009811  0.89305997  0.43544295  1
  Se  Se156  1  0.07940475  0.91716654  0.95380062  1
  Se  Se157  1  0.40595088  0.25724452  0.42861847  1
  Se  Se158  1  0.40868798  0.25754823  0.94277473  1
  Se  Se159  1  0.41721509  0.57861272  0.45238973  1
  Se  Se160  1  0.41826075  0.58305343  0.94798091  1
  Se  Se161  1  0.41598068  0.92679973  0.43520684  1
  Se  Se162  1  0.41128047  0.92129826  0.94634264  1
  Se  Se163  1  0.74056534  0.25707337  0.43417063  1
  Se  Se164  1  0.74631460  0.24993233  0.95201613  1
  Se  Se165  1  0.74960782  0.58158784  0.44485642  1
  Se  Se166  1  0.74796976  0.59005568  0.93786551  1
  Se  Se167  1  0.75730114  0.91662702  0.45467283  1
  Se  Se168  1  0.74657354  0.91710084  0.95187523  1
  Se  Se169  1  0.24825903  0.08253531  0.44187030  1
  Se  Se170  1  0.24270717  0.09355313  0.95783182  1
  Se  Se171  1  0.25050244  0.40856493  0.43761254  1
  Se  Se172  1  0.25170335  0.41936284  0.94971031  1
  Se  Se173  1  0.24944839  0.74956592  0.45129916  1
  Se  Se174  1  0.25041373  0.75181922  0.94571527  1
  Se  Se175  1  0.59754556  0.07347268  0.43852557  1
  Se  Se176  1  0.58137958  0.07980694  0.94599561  1
  Se  Se177  1  0.57603289  0.41992926  0.43751460  1
  Se  Se178  1  0.58199302  0.41832980  0.95695441  1
  Se  Se179  1  0.59207369  0.74547835  0.43476114  1
  Se  Se180  1  0.58886972  0.74435781  0.93925247  1
  Se  Se181  1  0.93125766  0.07169701  0.43823350  1
  Se  Se182  1  0.91262199  0.08399602  0.94968173  1
  Se  Se183  1  0.91252024  0.41505005  0.44074979  1
  Se  Se184  1  0.92454123  0.41086925  0.94440250  1
  Se  Se185  1  0.90430374  0.77165295  0.44281050  1
  Se  Se186  1  0.91115615  0.75405147  0.95353037  1
  Se  Se187  1  0.24714583  0.24934573  0.29760513  1
  Se  Se188  1  0.24367853  0.24471839  0.81185549  1
  Se  Se189  1  0.23861687  0.57749319  0.31624097  1
  Se  Se190  1  0.25402079  0.58446022  0.80458502  1
  Se  Se191  1  0.25218817  0.92229240  0.29771982  1
  Se  Se192  1  0.24574673  0.92144073  0.81117883  1
  Se  Se193  1  0.58272981  0.24882002  0.29334612  1
  Se  Se194  1  0.57284843  0.23617451  0.81078514  1
  Se  Se195  1  0.57629583  0.58360322  0.30430495  1
  Se  Se196  1  0.58303440  0.57794310  0.81252529  1
  Se  Se197  1  0.58875011  0.91396026  0.30297838  1
  Se  Se198  1  0.58399210  0.91972332  0.80185319  1
  Se  Se199  1  0.92330782  0.25166391  0.30141014  1
  Se  Se200  1  0.92052055  0.24622418  0.80839308  1
  Se  Se201  1  0.91247101  0.58723744  0.30340600  1
  Se  Se202  1  0.91901442  0.57720463  0.80297335  1
  Se  Se203  1  0.92260403  0.92131443  0.30179209  1
  Se  Se204  1  0.91467365  0.91203876  0.80969420  1
  Se  Se205  1  0.08315048  0.08276976  0.30063617  1
  Se  Se206  1  0.08844237  0.08316096  0.81523096  1
  Se  Se207  1  0.08089400  0.41486286  0.30007918  1
  Se  Se208  1  0.08685817  0.41157836  0.80626189  1
  Se  Se209  1  0.08055641  0.75107088  0.29891606  1
  Se  Se210  1  0.08562910  0.75496436  0.81126331  1
  Se  Se211  1  0.41936652  0.08956416  0.29519674  1
  Se  Se212  1  0.40936166  0.07956541  0.80645577  1
  Se  Se213  1  0.40960306  0.41640786  0.29925887  1
  Se  Se214  1  0.42372815  0.41620471  0.81000237  1
  Se  Se215  1  0.42000536  0.76240913  0.31496897  1
  Se  Se216  1  0.41193159  0.75093354  0.80163669  1
  Se  Se217  1  0.75914925  0.08086838  0.30668908  1
  Se  Se218  1  0.74967077  0.07779167  0.80702898  1
  Se  Se219  1  0.74527822  0.41680060  0.29892762  1
  Se  Se220  1  0.76412491  0.42231126  0.80950527  1
  Se  Se221  1  0.75918781  0.75390708  0.30814116  1
  Se  Se222  1  0.75802065  0.75546806  0.81003749  1
  Se  Se223  1  0.24710900  0.08128567  0.19300640  1
  Se  Se224  1  0.24824856  0.07685637  0.69839443  1
  Se  Se225  1  0.25080161  0.41247433  0.19619141  1
  Se  Se226  1  0.24397618  0.41816977  0.68862595  1
  Se  Se227  1  0.24247026  0.75622902  0.19024321  1
  Se  Se228  1  0.25126983  0.74829713  0.70176114  1
  Se  Se229  1  0.59874093  0.07210929  0.20728071  1
  Se  Se230  1  0.58633999  0.07931043  0.69764181  1
  Se  Se231  1  0.58353846  0.41943253  0.19800939  1
  Se  Se232  1  0.58414478  0.42394997  0.69355549  1
  Se  Se233  1  0.57228503  0.76013585  0.18623579  1
  Se  Se234  1  0.57479866  0.75983735  0.68926478  1
  Se  Se235  1  0.92222184  0.08258829  0.19539543  1
  Se  Se236  1  0.90902149  0.08954230  0.68756995  1
  Se  Se237  1  0.91833450  0.41721479  0.19942569  1
  Se  Se238  1  0.92419738  0.41003158  0.69463310  1
  Se  Se239  1  0.91955186  0.74989735  0.19625885  1
  Se  Se240  1  0.91416096  0.76578017  0.68515498  1
  Se  Se241  1  0.07907971  0.25263097  0.19309739  1
  Se  Se242  1  0.08276923  0.24640599  0.69926639  1
  Se  Se243  1  0.08374047  0.58653558  0.20198462  1
  Se  Se244  1  0.09667269  0.57272622  0.68784683  1
  Se  Se245  1  0.07978966  0.92298484  0.19551375  1
  Se  Se246  1  0.08964212  0.90718237  0.68894327  1
  Se  Se247  1  0.42896904  0.23038393  0.19820116  1
  Se  Se248  1  0.42488320  0.23747854  0.68493160  1
  Se  Se249  1  0.41284807  0.58303219  0.19150506  1
  Se  Se250  1  0.41426303  0.58413246  0.69967585  1
  Se  Se251  1  0.41025733  0.91837797  0.20005225  1
  Se  Se252  1  0.41278405  0.92272443  0.69932860  1
  Se  Se253  1  0.75604926  0.24961506  0.20043355  1
  Se  Se254  1  0.75975675  0.24256505  0.69325305  1
  Se  Se255  1  0.75665787  0.57876277  0.18461168  1
  Se  Se256  1  0.76275277  0.58373624  0.68583759  1
  Se  Se257  1  0.75266959  0.91922488  0.19833838  1
  Se  Se258  1  0.74716239  0.92251521  0.69699784  1
