# generated using pymatgen
data_In86Cu29Se144
_symmetry_space_group_name_H-M   'P 1'
_cell_length_a   17.57751736
_cell_length_b   17.57491295
_cell_length_c   23.44345534
_cell_angle_alpha   89.99768451
_cell_angle_beta   89.96650739
_cell_angle_gamma   89.97503110
_symmetry_Int_Tables_number   1
_chemical_formula_structural   In86Cu29Se144
_chemical_formula_sum   'In86 Cu29 Se144'
_cell_volume   7242.22853460
_cell_formula_units_Z   1
loop_
 _symmetry_equiv_pos_site_id
 _symmetry_equiv_pos_as_xyz
  1  'x, y, z'
loop_
 _atom_site_type_symbol
 _atom_site_label
 _atom_site_symmetry_multiplicity
 _atom_site_fract_x
 _atom_site_fract_y
 _atom_site_fract_z
 _atom_site_occupancy
  In  In0  1  0.00336744  0.16511934  0.12668915  1
  In  In1  1  -0.00147370  0.17031689  0.62296382  1
  In  In2  1  0.00576202  0.49765234  0.13594379  1
  In  In3  1  -0.02264123  0.50301997  0.63206636  1
  In  In4  1  -0.00351978  0.83503414  0.12103640  1
  In  In5  1  -0.00586569  0.83796244  0.62388763  1
  In  In6  1  0.34492697  0.18089163  0.11773978  1
  In  In7  1  0.32870447  0.17168954  0.64207670  1
  In  In8  1  0.33180080  0.49935537  0.11587108  1
  In  In9  1  0.32692025  0.50092451  0.64665036  1
  In  In10  1  0.33383852  0.83095687  0.11122172  1
  In  In11  1  0.33841917  0.82682848  0.65244113  1
  In  In12  1  0.64575635  0.15833945  0.12897836  1
  In  In13  1  0.66526107  0.15553672  0.62413512  1
  In  In14  1  0.67012941  0.52429782  0.11933636  1
  In  In15  1  0.68182020  0.51226126  0.62835571  1
  In  In16  1  0.67512773  0.83155059  0.12246446  1
  In  In17  1  0.67765687  0.82353331  0.63956185  1
  In  In18  1  0.16238987  0.01450360  0.37318185  1
  In  In19  1  0.18476923  -0.01701933  0.88740809  1
  In  In20  1  0.16649112  0.33610697  0.36369149  1
  In  In21  1  0.16566469  0.33525210  0.87440569  1
  In  In22  1  0.15830423  0.68064115  0.37627403  1
  In  In23  1  0.17206232  0.66097412  0.87753425  1
  In  In24  1  0.50256320  -0.01505908  0.36803791  1
  In  In25  1  0.49936941  -0.00138852  0.88161994  1
  In  In26  1  0.49651733  0.34093503  0.36288656  1
  In  In27  1  0.48371717  0.34779772  0.88853278  1
  In  In28  1  0.51419219  0.65577990  0.36911887  1
  In  In29  1  0.50301986  0.67154438  0.87898965  1
  In  In30  1  0.83236884  0.00081510  0.36964952  1
  In  In31  1  0.81552220  -0.00563121  0.87040680  1
  In  In32  1  0.84375054  0.32021202  0.38066432  1
  In  In33  1  0.84326432  0.33626021  0.86431920  1
  In  In34  1  0.83138981  0.66524281  0.37765468  1
  In  In35  1  0.83409198  0.67893600  0.87817092  1
  In  In36  1  -0.00551582  0.15606103  0.36217074  1
  In  In37  1  0.00399842  0.18160157  0.87624236  1
  In  In38  1  -0.02178676  0.48475504  0.35455412  1
  In  In39  1  0.02002370  0.49722129  0.87152349  1
  In  In40  1  -0.02867878  0.80601707  0.35323421  1
  In  In41  1  0.00370538  0.82497658  0.88749191  1
  In  In42  1  0.31702607  0.17087160  0.37346202  1
  In  In43  1  0.33275975  0.16381660  0.88133423  1
  In  In44  1  0.34953568  0.49590977  0.36888195  1
  In  In45  1  0.32655507  0.50549726  0.86842371  1
  In  In46  1  0.33343215  0.83022501  0.37215053  1
  In  In47  1  0.33225473  0.83590737  0.87542016  1
  In  In48  1  0.68106355  0.17513677  0.37089096  1
  In  In49  1  0.66359779  0.15478392  0.87687908  1
  In  In50  1  0.67602490  0.51311488  0.36326115  1
  In  In51  1  0.65613957  0.50180878  0.87731171  1
  In  In52  1  0.67440598  0.83437843  0.36808145  1
  In  In53  1  0.66287734  0.83022917  0.88084319  1
  In  In54  1  0.15738674  -0.00223943  0.11245536  1
  In  In55  1  0.16715883  0.00551547  0.63420041  1
  In  In56  1  0.17035551  0.34012786  0.12273547  1
  In  In57  1  0.15821069  0.34011037  0.64677541  1
  In  In58  1  0.16517549  0.66188153  0.11346889  1
  In  In59  1  0.16828419  0.66963387  0.63646554  1
  In  In60  1  0.51027271  0.00578700  0.12288823  1
  In  In61  1  0.50849876  -0.00608088  0.64100112  1
  In  In62  1  0.48838624  0.32217776  0.11584872  1
  In  In63  1  0.49337816  0.32787450  0.63200749  1
  In  In64  1  0.52643039  0.68447470  0.09796732  1
  In  In65  1  0.50395434  0.66351869  0.63661408  1
  In  In66  1  0.84118011  -0.00759282  0.13179862  1
  In  In67  1  0.82505024  -0.01419312  0.61366837  1
  In  In68  1  0.84550972  0.34940314  0.13215470  1
  In  In69  1  0.84335416  0.34129433  0.61669419  1
  In  In70  1  0.82110660  0.67383553  0.13755958  1
  In  In71  1  0.81831513  0.66333688  0.61045428  1
  In  In72  1  0.66270402  0.33591029  0.75144458  1
  In  In73  1  0.15872129  0.50112212  0.50429038  1
  In  In74  1  0.33632788  0.00820371  0.24295115  1
  In  In75  1  0.50345614  0.16783951  0.49936391  1
  In  In76  1  0.83301069  0.50794563  0.00248356  1
  In  In77  1  0.66081050  0.32849616  0.24339658  1
  In  In78  1  0.51124966  0.83204214  0.49715623  1
  In  In79  1  0.00067174  0.66333646  0.75496066  1
  In  In80  1  0.51302828  0.49694425  0.50890708  1
  In  In81  1  0.33064361  0.65610776  0.24157552  1
  In  In82  1  0.15585505  0.84152562  0.50262416  1
  In  In83  1  0.15806731  0.17108845  0.50593302  1
  In  In84  1  0.83135715  0.16359505  0.00037262  1
  In  In85  1  0.00504275  0.00095584  0.74964541  1
  Cu  Cu86  1  -0.01027999  -0.00652309  0.48804735  1
  Cu  Cu87  1  0.50227830  0.83816833  0.76282001  1
  Cu  Cu88  1  0.49890297  0.50660755  0.75868363  1
  Cu  Cu89  1  0.34207192  0.66733648  0.50919507  1
  Cu  Cu90  1  0.00793746  0.34059802  0.00269354  1
  Cu  Cu91  1  0.33356442  -0.00026109  0.00088717  1
  Cu  Cu92  1  0.83085199  0.16510338  0.24797879  1
  Cu  Cu93  1  0.32800429  0.33378395  0.50255491  1
  Cu  Cu94  1  0.49753293  0.16752230  0.75840798  1
  Cu  Cu95  1  0.16021324  0.84299547  0.24003935  1
  Cu  Cu96  1  0.17049761  0.50308884  0.24269381  1
  Cu  Cu97  1  -0.00651179  0.33329635  0.49800505  1
  Cu  Cu98  1  -0.00013998  0.66710594  0.00214971  1
  Cu  Cu99  1  -0.00974366  0.66394180  0.49403396  1
  Cu  Cu100  1  0.49605386  0.49867644  0.23809385  1
  Cu  Cu101  1  0.33764686  -0.00009831  0.51728873  1
  Cu  Cu102  1  0.66835614  0.32623630  0.00102415  1
  Cu  Cu103  1  0.50839652  0.82365906  0.23960223  1
  Cu  Cu104  1  0.33570841  0.66286839  -0.00845969  1
  Cu  Cu105  1  0.67372688  0.00136361  0.49563926  1
  Cu  Cu106  1  0.83121863  0.83475933  0.75117335  1
  Cu  Cu107  1  0.67480115  0.34125243  0.49609026  1
  Cu  Cu108  1  0.83170118  0.83553833  0.24841526  1
  Cu  Cu109  1  0.16857700  0.17579494  0.24333072  1
  Cu  Cu110  1  0.32726115  0.33436838  -0.00450876  1
  Cu  Cu111  1  0.83060655  0.16506252  0.74760979  1
  Cu  Cu112  1  -0.00462482  0.00357985  -0.00011499  1
  Cu  Cu113  1  0.66579537  -0.00675779  0.00094640  1
  Cu  Cu114  1  0.17263366  0.15914189  0.75884245  1
  Se  Se115  1  0.07787871  0.09138446  0.04834039  1
  Se  Se116  1  0.07082547  0.06535057  0.55551754  1
  Se  Se117  1  0.08444395  0.42719497  0.05760217  1
  Se  Se118  1  0.07401754  0.40634548  0.56438381  1
  Se  Se119  1  0.08344043  0.75503391  0.05238369  1
  Se  Se120  1  0.07486377  0.73605396  0.55881015  1
  Se  Se121  1  0.41748158  0.07984623  0.05649086  1
  Se  Se122  1  0.41742834  0.08553224  0.57037828  1
  Se  Se123  1  0.41515694  0.41449125  0.04860032  1
  Se  Se124  1  0.40670595  0.41517016  0.56289249  1
  Se  Se125  1  0.41679003  0.75066597  0.04279730  1
  Se  Se126  1  0.41704802  0.75325519  0.56625839  1
  Se  Se127  1  0.74341200  0.07672103  0.06299799  1
  Se  Se128  1  0.75245770  0.08639634  0.55152786  1
  Se  Se129  1  0.74624111  0.40835326  0.05946649  1
  Se  Se130  1  0.75028819  0.42321573  0.55582170  1
  Se  Se131  1  0.74367117  0.73298823  0.05702098  1
  Se  Se132  1  0.75235508  0.77063254  0.55448131  1
  Se  Se133  1  0.24786539  0.25229249  0.05346142  1
  Se  Se134  1  0.25011941  0.25898244  0.56655126  1
  Se  Se135  1  0.25003174  0.58156499  0.04604906  1
  Se  Se136  1  0.25846558  0.58652372  0.56400196  1
  Se  Se137  1  0.24546922  0.91422446  0.04846919  1
  Se  Se138  1  0.25562851  0.91455301  0.56973912  1
  Se  Se139  1  0.58301739  0.24293116  0.05155341  1
  Se  Se140  1  0.59167119  0.26395147  0.55835694  1
  Se  Se141  1  0.57192329  0.56415287  0.04486224  1
  Se  Se142  1  0.59532227  0.60102458  0.55880787  1
  Se  Se143  1  0.58328821  0.91207620  0.05676651  1
  Se  Se144  1  0.59011335  0.92772846  0.55963467  1
  Se  Se145  1  0.91923671  0.26132196  0.05678491  1
  Se  Se146  1  0.91482009  0.24407701  0.55057222  1
  Se  Se147  1  0.92370183  0.58961616  0.06643587  1
  Se  Se148  1  0.91248139  0.57933372  0.55132940  1
  Se  Se149  1  0.91195898  0.91932783  0.05199727  1
  Se  Se150  1  0.91534168  0.90795312  0.54705318  1
  Se  Se151  1  0.07719767  0.25635100  0.43595916  1
  Se  Se152  1  0.08662911  0.25276133  0.94985951  1
  Se  Se153  1  0.07499405  0.58519485  0.43672005  1
  Se  Se154  1  0.08179529  0.58480568  0.94717163  1
  Se  Se155  1  0.07487670  0.91724146  0.42847337  1
  Se  Se156  1  0.08159141  0.91764316  0.95091285  1
  Se  Se157  1  0.40868867  0.25806959  0.44056717  1
  Se  Se158  1  0.41656177  0.24633189  0.95101944  1
  Se  Se159  1  0.41804533  0.58779404  0.44518814  1
  Se  Se160  1  0.41731594  0.57798536  0.93863832  1
  Se  Se161  1  0.40664068  0.92321688  0.44638399  1
  Se  Se162  1  0.41519570  0.91443647  0.94810739  1
  Se  Se163  1  0.75290137  0.24689201  0.45019138  1
  Se  Se164  1  0.75020251  0.25753631  0.93576683  1
  Se  Se165  1  0.74527388  0.58178220  0.44321532  1
  Se  Se166  1  0.74067685  0.59301477  0.94271326  1
  Se  Se167  1  0.75184773  0.91694595  0.43994952  1
  Se  Se168  1  0.75264221  0.91303241  0.94855856  1
  Se  Se169  1  0.25681397  0.07644249  0.45277569  1
  Se  Se170  1  0.24740725  0.08548506  0.95219206  1
  Se  Se171  1  0.25452944  0.41660900  0.43932942  1
  Se  Se172  1  0.24888081  0.42005380  0.94127680  1
  Se  Se173  1  0.25825669  0.74662927  0.44971128  1
  Se  Se174  1  0.24911694  0.75037646  0.94453093  1
  Se  Se175  1  0.58791086  0.07612830  0.43592473  1
  Se  Se176  1  0.58373409  0.08229219  0.95166894  1
  Se  Se177  1  0.58907621  0.41163931  0.43500919  1
  Se  Se178  1  0.58773579  0.41381312  0.94959860  1
  Se  Se179  1  0.59716280  0.73804461  0.43917449  1
  Se  Se180  1  0.57715353  0.75554980  0.95167575  1
  Se  Se181  1  0.91422284  0.08721722  0.43936720  1
  Se  Se182  1  0.91675589  0.07759612  0.93347592  1
  Se  Se183  1  0.91606891  0.42079027  0.44312334  1
  Se  Se184  1  0.92146410  0.41388898  0.94236673  1
  Se  Se185  1  0.91168324  0.75636294  0.44620906  1
  Se  Se186  1  0.91174078  0.75183076  0.95504717  1
  Se  Se187  1  0.25432026  0.25588765  0.29698010  1
  Se  Se188  1  0.25189127  0.24632473  0.81053066  1
  Se  Se189  1  0.24286293  0.57825615  0.31480667  1
  Se  Se190  1  0.23055666  0.57322852  0.80110086  1
  Se  Se191  1  0.24443914  0.91437676  0.30513466  1
  Se  Se192  1  0.25238880  0.91856799  0.80419338  1
  Se  Se193  1  0.57233116  0.23743918  0.30601037  1
  Se  Se194  1  0.57598533  0.25166704  0.81793443  1
  Se  Se195  1  0.58331710  0.57863982  0.29134393  1
  Se  Se196  1  0.58596991  0.58986798  0.80615500  1
  Se  Se197  1  0.58511386  0.90956696  0.29777982  1
  Se  Se198  1  0.58878786  0.92197470  0.81204265  1
  Se  Se199  1  0.91582971  0.24966289  0.29932895  1
  Se  Se200  1  0.91824563  0.24411258  0.79870679  1
  Se  Se201  1  0.93838220  0.61154630  0.31071873  1
  Se  Se202  1  0.91152046  0.57600608  0.81716187  1
  Se  Se203  1  0.91737135  0.92202098  0.29851507  1
  Se  Se204  1  0.91708584  0.90909005  0.81153393  1
  Se  Se205  1  0.08877682  0.08529324  0.29442627  1
  Se  Se206  1  0.08995091  0.08187626  0.81882494  1
  Se  Se207  1  0.08549379  0.41913838  0.29579342  1
  Se  Se208  1  0.06750012  0.39414304  0.80313360  1
  Se  Se209  1  0.08804642  0.75312073  0.29671510  1
  Se  Se210  1  0.08864924  0.75769008  0.81057174  1
  Se  Se211  1  0.41857455  0.08953849  0.31408950  1
  Se  Se212  1  0.41700593  0.08200912  0.81179643  1
  Se  Se213  1  0.41266958  0.41424510  0.28989228  1
  Se  Se214  1  0.41688033  0.41709505  0.80579411  1
  Se  Se215  1  0.42359182  0.74954948  0.30413242  1
  Se  Se216  1  0.41704426  0.75025982  0.80903846  1
  Se  Se217  1  0.74673659  0.08308659  0.30043802  1
  Se  Se218  1  0.74563914  0.08484160  0.80066832  1
  Se  Se219  1  0.75219001  0.40511261  0.31097569  1
  Se  Se220  1  0.75386467  0.42900816  0.80698960  1
  Se  Se221  1  0.75316299  0.74612402  0.30152878  1
  Se  Se222  1  0.74906710  0.75363937  0.80701928  1
  Se  Se223  1  0.24337909  0.09057042  0.18120132  1
  Se  Se224  1  0.25509141  0.07527676  0.70544125  1
  Se  Se225  1  0.25680544  0.42131483  0.19249189  1
  Se  Se226  1  0.26195670  0.40000640  0.70798359  1
  Se  Se227  1  0.24641098  0.75817644  0.18756512  1
  Se  Se228  1  0.25226091  0.73799818  0.70921383  1
  Se  Se229  1  0.57758528  0.07763477  0.20445079  1
  Se  Se230  1  0.58488440  0.09036770  0.70301630  1
  Se  Se231  1  0.58006319  0.42003019  0.17910445  1
  Se  Se232  1  0.57500746  0.43070501  0.68998295  1
  Se  Se233  1  0.59115424  0.73963820  0.18832250  1
  Se  Se234  1  0.58011112  0.75422048  0.70332880  1
  Se  Se235  1  0.91886881  0.08523088  0.19523257  1
  Se  Se236  1  0.90828248  0.08170507  0.68731265  1
  Se  Se237  1  0.91715786  0.42624425  0.20705092  1
  Se  Se238  1  0.91455561  0.40588399  0.69919860  1
  Se  Se239  1  0.91853233  0.75438380  0.19496890  1
  Se  Se240  1  0.91086659  0.75282212  0.69220517  1
  Se  Se241  1  0.08314761  0.25707027  0.19055997  1
  Se  Se242  1  0.08559658  0.23182093  0.69876520  1
  Se  Se243  1  0.09050727  0.59326978  0.19440424  1
  Se  Se244  1  0.08756106  0.56810834  0.69399793  1
  Se  Se245  1  0.07676486  0.92550902  0.18884042  1
  Se  Se246  1  0.09243559  0.90119528  0.69484175  1
  Se  Se247  1  0.42572533  0.24387514  0.19632195  1
  Se  Se248  1  0.41575538  0.25447414  0.70711939  1
  Se  Se249  1  0.42783322  0.58787703  0.17572023  1
  Se  Se250  1  0.41410352  0.59014734  0.70524145  1
  Se  Se251  1  0.42005754  0.90490116  0.18804818  1
  Se  Se252  1  0.41786823  0.92391538  0.71023959  1
  Se  Se253  1  0.75705715  0.24261704  0.18214629  1
  Se  Se254  1  0.75134331  0.24795529  0.68780891  1
  Se  Se255  1  0.76972811  0.55817275  0.19479919  1
  Se  Se256  1  0.75878296  0.59509761  0.69692888  1
  Se  Se257  1  0.74606152  0.91842327  0.19629595  1
  Se  Se258  1  0.75218294  0.92496068  0.69884238  1
