# generated using pymatgen
data_In86Cu29Se144
_symmetry_space_group_name_H-M   'P 1'
_cell_length_a   17.58710843
_cell_length_b   17.58455993
_cell_length_c   23.44258172
_cell_angle_alpha   90.01971543
_cell_angle_beta   89.99423491
_cell_angle_gamma   89.98467880
_symmetry_Int_Tables_number   1
_chemical_formula_structural   In86Cu29Se144
_chemical_formula_sum   'In86 Cu29 Se144'
_cell_volume   7249.88871720
_cell_formula_units_Z   1
loop_
 _symmetry_equiv_pos_site_id
 _symmetry_equiv_pos_as_xyz
  1  'x, y, z'
loop_
 _atom_site_type_symbol
 _atom_site_label
 _atom_site_symmetry_multiplicity
 _atom_site_fract_x
 _atom_site_fract_y
 _atom_site_fract_z
 _atom_site_occupancy
  In  In0  1  -0.00447325  0.16862010  0.13341198  1
  In  In1  1  0.01176757  0.18106306  0.60744194  1
  In  In2  1  -0.00806178  0.49225380  0.12417747  1
  In  In3  1  -0.01662474  0.49725222  0.62018983  1
  In  In4  1  0.00827839  0.84356569  0.12255789  1
  In  In5  1  0.00914239  0.82191413  0.61907830  1
  In  In6  1  0.31878369  0.15906874  0.12511590  1
  In  In7  1  0.33105078  0.16354690  0.62693881  1
  In  In8  1  0.32839832  0.51767802  0.11926481  1
  In  In9  1  0.33031920  0.50499451  0.63290092  1
  In  In10  1  0.32309404  0.83358316  0.12324513  1
  In  In11  1  0.32957168  0.84379442  0.63601391  1
  In  In12  1  0.67338028  0.14854550  0.13167916  1
  In  In13  1  0.66192160  0.15558143  0.60959336  1
  In  In14  1  0.68824674  0.50400783  0.12696120  1
  In  In15  1  0.67413506  0.50435396  0.62635073  1
  In  In16  1  0.66978212  0.82581822  0.13086068  1
  In  In17  1  0.65740985  0.84533997  0.64523067  1
  In  In18  1  0.16878949  0.00129510  0.37626442  1
  In  In19  1  0.17332333  -0.01167636  0.87858405  1
  In  In20  1  0.14269786  0.32301959  0.37304433  1
  In  In21  1  0.17272488  0.34180780  0.86362564  1
  In  In22  1  0.18155995  0.67151160  0.36488181  1
  In  In23  1  0.17695193  0.66410953  0.88853020  1
  In  In24  1  0.50559397  0.00410821  0.37314803  1
  In  In25  1  0.49831346  -0.01110706  0.85856751  1
  In  In26  1  0.48929379  0.32299490  0.38013612  1
  In  In27  1  0.49375589  0.34207046  0.87119390  1
  In  In28  1  0.50161371  0.67585380  0.36934462  1
  In  In29  1  0.49836520  0.67404312  0.86385194  1
  In  In30  1  0.83103764  0.00241556  0.36900642  1
  In  In31  1  0.83385989  0.00480674  0.88175395  1
  In  In32  1  0.84848411  0.33272028  0.38450673  1
  In  In33  1  0.84303199  0.32579651  0.87848508  1
  In  In34  1  0.82464109  0.66745220  0.37400686  1
  In  In35  1  0.82981819  0.67022078  0.88783668  1
  In  In36  1  -0.00019358  0.16750819  0.38022698  1
  In  In37  1  -0.01333217  0.16735741  0.87264324  1
  In  In38  1  -0.00478373  0.48623508  0.36881314  1
  In  In39  1  0.00819552  0.49523516  0.88026970  1
  In  In40  1  0.00737600  0.84864954  0.36499486  1
  In  In41  1  0.00786405  0.82343894  0.89199427  1
  In  In42  1  0.34343482  0.15040353  0.38472267  1
  In  In43  1  0.32790682  0.16324970  0.86473673  1
  In  In44  1  0.32394830  0.50371587  0.37121940  1
  In  In45  1  0.32600960  0.50208086  0.87016960  1
  In  In46  1  0.32543432  0.83488450  0.36748468  1
  In  In47  1  0.33025659  0.83254436  0.86989359  1
  In  In48  1  0.67451916  0.15391101  0.38840182  1
  In  In49  1  0.68011638  0.16050532  0.87377191  1
  In  In50  1  0.67425028  0.51605318  0.37516097  1
  In  In51  1  0.66638518  0.51037773  0.87750887  1
  In  In52  1  0.66839213  0.83576185  0.36751665  1
  In  In53  1  0.67304324  0.84135661  0.86843844  1
  In  In54  1  0.18356372  -0.02834362  0.15057413  1
  In  In55  1  0.17214384  0.00749012  0.61837844  1
  In  In56  1  0.14674024  0.32763926  0.12423164  1
  In  In57  1  0.17189718  0.32805743  0.63176501  1
  In  In58  1  0.18239879  0.67954353  0.10902068  1
  In  In59  1  0.17183376  0.67837434  0.62075509  1
  In  In60  1  0.49735991  -0.00311042  0.13060120  1
  In  In61  1  0.49508119  0.00353114  0.63078714  1
  In  In62  1  0.49821319  0.33848948  0.12530516  1
  In  In63  1  0.49588373  0.31924801  0.62296572  1
  In  In64  1  0.49282185  0.67762960  0.13026294  1
  In  In65  1  0.49321914  0.68308552  0.64515875  1
  In  In66  1  0.83233805  -0.00034084  0.12540273  1
  In  In67  1  0.82534446  0.00807946  0.62349238  1
  In  In68  1  0.85458337  0.34286102  0.11945622  1
  In  In69  1  0.83876512  0.33504796  0.61667666  1
  In  In70  1  0.82218473  0.65611581  0.12256865  1
  In  In71  1  0.83045235  0.65969265  0.62508361  1
  In  In72  1  0.67419070  0.33067149  0.25926402  1
  In  In73  1  0.50064046  0.50610105  -0.00887565  1
  In  In74  1  0.50734532  0.49563224  0.50575807  1
  In  In75  1  0.49989044  0.83943321  0.51119025  1
  In  In76  1  0.32885189  0.33105350  0.25334972  1
  In  In77  1  0.49550867  0.83492690  -0.00683625  1
  In  In78  1  0.15530856  0.16153565  0.00135093  1
  In  In79  1  0.15793332  0.49151990  0.49265701  1
  In  In80  1  0.00215984  0.65972848  0.75033263  1
  In  In81  1  -0.00084756  0.00101934  0.75285768  1
  In  In82  1  0.83556305  0.83608509  0.49390203  1
  In  In83  1  0.66170227  0.33223443  0.74570088  1
  In  In84  1  0.50461741  0.16343608  0.00529135  1
  In  In85  1  0.00364625  0.66882077  0.24366185  1
  Cu  Cu86  1  0.67124910  0.67041120  0.50497247  1
  Cu  Cu87  1  0.16250423  0.50143274  0.75295607  1
  Cu  Cu88  1  0.68099411  0.32647829  0.00225816  1
  Cu  Cu89  1  0.33048792  -0.00162474  0.50475337  1
  Cu  Cu90  1  0.16141360  0.15972851  0.25465247  1
  Cu  Cu91  1  0.83234212  0.16748382  0.74750283  1
  Cu  Cu92  1  0.00089002  -0.00167194  0.49151064  1
  Cu  Cu93  1  0.32748972  0.33744929  -0.00995279  1
  Cu  Cu94  1  0.83367231  0.83245840  0.75809946  1
  Cu  Cu95  1  0.50715618  0.50784374  0.24873020  1
  Cu  Cu96  1  0.83153373  0.16878917  0.25677583  1
  Cu  Cu97  1  0.66770163  0.66547575  0.00388408  1
  Cu  Cu98  1  0.00643678  0.66580350  0.49698472  1
  Cu  Cu99  1  0.67194229  0.33685743  0.50226965  1
  Cu  Cu100  1  0.83008249  0.83474332  0.24700636  1
  Cu  Cu101  1  0.49436568  0.83242860  0.25014673  1
  Cu  Cu102  1  0.17060141  0.83247295  0.75195859  1
  Cu  Cu103  1  -0.00486696  0.66605606  0.00819865  1
  Cu  Cu104  1  0.33337257  0.66732050  0.49368368  1
  Cu  Cu105  1  -0.00071101  0.00359239  0.00707215  1
  Cu  Cu106  1  0.32536224  0.32093096  0.50228252  1
  Cu  Cu107  1  0.83252439  0.49684450  0.74842763  1
  Cu  Cu108  1  0.49660373  0.16559874  0.74400809  1
  Cu  Cu109  1  0.49744810  0.15924736  0.25306167  1
  Cu  Cu110  1  0.67108694  -0.00154373  -0.00144422  1
  Cu  Cu111  1  0.48989208  0.50170036  0.75214847  1
  Cu  Cu112  1  0.16707309  0.50269007  0.24568301  1
  Cu  Cu113  1  0.16666113  0.16461652  0.74283856  1
  Cu  Cu114  1  -0.00258267  0.33477568  -0.00079818  1
  Se  Se115  1  0.08258253  0.07358510  0.07192233  1
  Se  Se116  1  0.08377753  0.07921374  0.54848248  1
  Se  Se117  1  0.08119720  0.41749643  0.05234386  1
  Se  Se118  1  0.07698015  0.40796161  0.56129927  1
  Se  Se119  1  0.08128532  0.75520533  0.05190870  1
  Se  Se120  1  0.09176823  0.75066711  0.54490369  1
  Se  Se121  1  0.40716636  0.07503568  0.05798668  1
  Se  Se122  1  0.41527468  0.08106409  0.55786649  1
  Se  Se123  1  0.41072235  0.41255888  0.05238785  1
  Se  Se124  1  0.40265694  0.41100498  0.55791039  1
  Se  Se125  1  0.40794384  0.74328490  0.05234444  1
  Se  Se126  1  0.40751377  0.74206846  0.56167562  1
  Se  Se127  1  0.75215671  0.08383929  0.05239326  1
  Se  Se128  1  0.76110763  0.08772850  0.54590902  1
  Se  Se129  1  0.75689133  0.41579854  0.05515827  1
  Se  Se130  1  0.75078730  0.42363522  0.55474610  1
  Se  Se131  1  0.74945538  0.75154271  0.05573120  1
  Se  Se132  1  0.74618602  0.75752614  0.56376736  1
  Se  Se133  1  0.25226732  0.25862248  0.05536911  1
  Se  Se134  1  0.24253953  0.24223416  0.55811119  1
  Se  Se135  1  0.24550468  0.57878091  0.04296288  1
  Se  Se136  1  0.25318042  0.58236692  0.55130733  1
  Se  Se137  1  0.24326368  0.92228005  0.05804884  1
  Se  Se138  1  0.25037085  0.91047942  0.55695538  1
  Se  Se139  1  0.59581637  0.25599276  0.06433779  1
  Se  Se140  1  0.58343147  0.25409482  0.55017113  1
  Se  Se141  1  0.58477107  0.58657204  0.06304710  1
  Se  Se142  1  0.58296191  0.59780132  0.56474299  1
  Se  Se143  1  0.58783556  0.92009326  0.05743963  1
  Se  Se144  1  0.59722968  0.92807871  0.56219755  1
  Se  Se145  1  0.92208456  0.24452086  0.05347012  1
  Se  Se146  1  0.89768345  0.23303474  0.55139459  1
  Se  Se147  1  0.91197713  0.57842232  0.05595514  1
  Se  Se148  1  0.91735452  0.59144510  0.55088676  1
  Se  Se149  1  0.91412589  0.91697439  0.05568596  1
  Se  Se150  1  0.92606655  0.92162094  0.55961923  1
  Se  Se151  1  0.07473124  0.25246107  0.45254159  1
  Se  Se152  1  0.07908084  0.25765175  0.93605070  1
  Se  Se153  1  0.08174550  0.59061711  0.42966879  1
  Se  Se154  1  0.07809211  0.58842557  0.94814667  1
  Se  Se155  1  0.08688847  0.91252553  0.44445116  1
  Se  Se156  1  0.08299333  0.92341240  0.95078990  1
  Se  Se157  1  0.41722029  0.24211320  0.45377784  1
  Se  Se158  1  0.41282457  0.25177647  0.94055148  1
  Se  Se159  1  0.41700886  0.58425644  0.44055923  1
  Se  Se160  1  0.40906873  0.59730477  0.93648675  1
  Se  Se161  1  0.41096021  0.91891194  0.44308705  1
  Se  Se162  1  0.40956894  0.93154671  0.93844836  1
  Se  Se163  1  0.75121019  0.25421349  0.44518895  1
  Se  Se164  1  0.75721137  0.24246411  0.94510227  1
  Se  Se165  1  0.75433209  0.58739673  0.45209473  1
  Se  Se166  1  0.75005920  0.57781786  0.95275723  1
  Se  Se167  1  0.73827867  0.92469409  0.44171296  1
  Se  Se168  1  0.75275505  0.91327648  0.94530415  1
  Se  Se169  1  0.24679150  0.08243920  0.45115952  1
  Se  Se170  1  0.25725354  0.08166200  0.94408287  1
  Se  Se171  1  0.25480909  0.40141637  0.43583479  1
  Se  Se172  1  0.24320223  0.42160307  0.94099737  1
  Se  Se173  1  0.25090019  0.75143679  0.44225437  1
  Se  Se174  1  0.24122245  0.77173581  0.94475658  1
  Se  Se175  1  0.56922783  0.09019734  0.44826745  1
  Se  Se176  1  0.58656118  0.07443465  0.93815437  1
  Se  Se177  1  0.59170494  0.41110431  0.43664026  1
  Se  Se178  1  0.59464872  0.40325526  0.94333234  1
  Se  Se179  1  0.58905110  0.74955036  0.44581429  1
  Se  Se180  1  0.59205845  0.74332567  0.93963283  1
  Se  Se181  1  0.91197600  0.07829692  0.44233620  1
  Se  Se182  1  0.91933938  0.08631845  0.94977957  1
  Se  Se183  1  0.92180230  0.42574567  0.45109130  1
  Se  Se184  1  0.91461363  0.41904155  0.94570273  1
  Se  Se185  1  0.92868195  0.74744453  0.43381548  1
  Se  Se186  1  0.91162720  0.75241153  0.95636787  1
  Se  Se187  1  0.24601514  0.23866824  0.31541845  1
  Se  Se188  1  0.24870834  0.24986904  0.79805701  1
  Se  Se189  1  0.25603128  0.58371293  0.29438739  1
  Se  Se190  1  0.24178602  0.58949459  0.80530528  1
  Se  Se191  1  0.25301010  0.92781659  0.30319337  1
  Se  Se192  1  0.25260010  0.92205157  0.80002626  1
  Se  Se193  1  0.57619458  0.24070034  0.31181266  1
  Se  Se194  1  0.57605151  0.24062569  0.81047090  1
  Se  Se195  1  0.58697453  0.58955286  0.30551964  1
  Se  Se196  1  0.57969083  0.57799898  0.80472980  1
  Se  Se197  1  0.57920863  0.91545920  0.30310299  1
  Se  Se198  1  0.59889736  0.92386073  0.79674754  1
  Se  Se199  1  0.91751274  0.25017459  0.30825487  1
  Se  Se200  1  0.91594692  0.25206421  0.79881540  1
  Se  Se201  1  0.91328910  0.58284738  0.30615589  1
  Se  Se202  1  0.90921932  0.57677629  0.81232461  1
  Se  Se203  1  0.91201572  0.91877443  0.29991362  1
  Se  Se204  1  0.91993738  0.90588486  0.81730226  1
  Se  Se205  1  0.07709526  0.08078263  0.31011852  1
  Se  Se206  1  0.09244165  0.08983964  0.81254349  1
  Se  Se207  1  0.08653904  0.41720283  0.29839496  1
  Se  Se208  1  0.07545276  0.41689299  0.80041659  1
  Se  Se209  1  0.09556812  0.76092253  0.29950738  1
  Se  Se210  1  0.08768385  0.75332412  0.80989983  1
  Se  Se211  1  0.41196821  0.07647837  0.30416405  1
  Se  Se212  1  0.41465947  0.08193152  0.79886418  1
  Se  Se213  1  0.42707638  0.42460698  0.30763889  1
  Se  Se214  1  0.40729874  0.41505250  0.80205226  1
  Se  Se215  1  0.41061733  0.74822810  0.30262097  1
  Se  Se216  1  0.42734887  0.76914456  0.80083543  1
  Se  Se217  1  0.74211755  0.08600025  0.30390351  1
  Se  Se218  1  0.75790798  0.07879818  0.80243991  1
  Se  Se219  1  0.76217020  0.42414403  0.31425177  1
  Se  Se220  1  0.75097251  0.41774289  0.81013980  1
  Se  Se221  1  0.74965482  0.74967246  0.30138360  1
  Se  Se222  1  0.75496602  0.74393802  0.80979411  1
  Se  Se223  1  0.25263994  0.08285897  0.20393645  1
  Se  Se224  1  0.25106381  0.07638692  0.69640920  1
  Se  Se225  1  0.24634838  0.41738097  0.18540677  1
  Se  Se226  1  0.24766360  0.41934302  0.69825494  1
  Se  Se227  1  0.25246847  0.74195368  0.19228763  1
  Se  Se228  1  0.25139082  0.74646525  0.69790854  1
  Se  Se229  1  0.58174297  0.07754570  0.19924503  1
  Se  Se230  1  0.58690812  0.08946817  0.69150743  1
  Se  Se231  1  0.58417161  0.42076303  0.19328126  1
  Se  Se232  1  0.56922494  0.42503429  0.68745529  1
  Se  Se233  1  0.58198828  0.74926753  0.19960286  1
  Se  Se234  1  0.60806585  0.73061711  0.70114696  1
  Se  Se235  1  0.90934670  0.08439974  0.19806712  1
  Se  Se236  1  0.91938400  0.09192877  0.68774301  1
  Se  Se237  1  0.92226814  0.41217955  0.20081237  1
  Se  Se238  1  0.91300298  0.41329813  0.69447658  1
  Se  Se239  1  0.90883995  0.75557307  0.18496093  1
  Se  Se240  1  0.91244272  0.75708165  0.69307358  1
  Se  Se241  1  0.08197496  0.24846383  0.20299341  1
  Se  Se242  1  0.07786837  0.24643850  0.69411845  1
  Se  Se243  1  0.09199660  0.58125871  0.18111138  1
  Se  Se244  1  0.08944997  0.57615493  0.68260063  1
  Se  Se245  1  0.06555671  0.92439413  0.20395517  1
  Se  Se246  1  0.08752719  0.90962013  0.69106808  1
  Se  Se247  1  0.42151041  0.24133110  0.19085076  1
  Se  Se248  1  0.41072960  0.25167138  0.69673860  1
  Se  Se249  1  0.41732809  0.58104370  0.19331944  1
  Se  Se250  1  0.40766649  0.58974566  0.70238603  1
  Se  Se251  1  0.41191057  0.91132183  0.19285828  1
  Se  Se252  1  0.44203248  0.89550346  0.69408014  1
  Se  Se253  1  0.75825559  0.24810414  0.18948311  1
  Se  Se254  1  0.75024041  0.24414901  0.68546602  1
  Se  Se255  1  0.74824697  0.58823834  0.20332405  1
  Se  Se256  1  0.75036414  0.58487514  0.70002525  1
  Se  Se257  1  0.74541852  0.92006009  0.19516632  1
  Se  Se258  1  0.76205061  0.92075694  0.69968199  1
