# generated using pymatgen
data_In86Cu29Se144
_symmetry_space_group_name_H-M   'P 1'
_cell_length_a   17.59084390
_cell_length_b   17.58716975
_cell_length_c   23.44655486
_cell_angle_alpha   89.99490672
_cell_angle_beta   89.99755059
_cell_angle_gamma   89.98970315
_symmetry_Int_Tables_number   1
_chemical_formula_structural   In86Cu29Se144
_chemical_formula_sum   'In86 Cu29 Se144'
_cell_volume   7253.73456168
_cell_formula_units_Z   1
loop_
 _symmetry_equiv_pos_site_id
 _symmetry_equiv_pos_as_xyz
  1  'x, y, z'
loop_
 _atom_site_type_symbol
 _atom_site_label
 _atom_site_symmetry_multiplicity
 _atom_site_fract_x
 _atom_site_fract_y
 _atom_site_fract_z
 _atom_site_occupancy
  In  In0  1  -0.02102156  0.13950973  0.09620559  1
  In  In1  1  -0.00006456  0.15300238  0.62831650  1
  In  In2  1  0.01726672  0.50246024  0.12225486  1
  In  In3  1  0.01795674  0.50587760  0.62727899  1
  In  In4  1  -0.00169021  0.83311604  0.12189657  1
  In  In5  1  0.00337911  0.83766066  0.63401359  1
  In  In6  1  0.32570201  0.17100531  0.12557508  1
  In  In7  1  0.33021033  0.16291733  0.62089351  1
  In  In8  1  0.34501063  0.50641174  0.11682943  1
  In  In9  1  0.33918311  0.51168069  0.62405954  1
  In  In10  1  0.32007820  0.82342718  0.11875011  1
  In  In11  1  0.33527061  0.81547435  0.62901598  1
  In  In12  1  0.66712932  0.14402765  0.12989592  1
  In  In13  1  0.65554289  0.16016438  0.62153217  1
  In  In14  1  0.66927101  0.52636285  0.11942556  1
  In  In15  1  0.65141939  0.51274520  0.62389749  1
  In  In16  1  0.66873654  0.82844615  0.11798355  1
  In  In17  1  0.67352809  0.84467768  0.61107142  1
  In  In18  1  0.16398112  0.00886808  0.37408712  1
  In  In19  1  0.14992926  0.00044657  0.88692935  1
  In  In20  1  0.17600720  0.32845091  0.38098199  1
  In  In21  1  0.16493558  0.33936946  0.87574023  1
  In  In22  1  0.16096434  0.66177972  0.36999364  1
  In  In23  1  0.16726266  0.66719031  0.87800734  1
  In  In24  1  0.52899068  -0.02488154  0.39988320  1
  In  In25  1  0.49696142  -0.01855805  0.87047027  1
  In  In26  1  0.49287523  0.33784594  0.38368954  1
  In  In27  1  0.50554655  0.34008490  0.87506476  1
  In  In28  1  0.49901139  0.66753361  0.37045834  1
  In  In29  1  0.49488767  0.67588214  0.87836046  1
  In  In30  1  0.81910980  -0.01889869  0.36102376  1
  In  In31  1  0.83847187  -0.00122276  0.87728477  1
  In  In32  1  0.83616370  0.32939546  0.37234489  1
  In  In33  1  0.82463655  0.32627684  0.87922116  1
  In  In34  1  0.84225779  0.68487304  0.36946379  1
  In  In35  1  0.84645780  0.66902172  0.87920477  1
  In  In36  1  0.01120595  0.16088488  0.37558059  1
  In  In37  1  0.01638114  0.14521093  0.89057922  1
  In  In38  1  0.00482994  0.51925766  0.37558414  1
  In  In39  1  0.01095551  0.52351538  0.86674404  1
  In  In40  1  -0.00753690  0.82847035  0.36905484  1
  In  In41  1  -0.00152919  0.83312583  0.88458360  1
  In  In42  1  0.33126196  0.16471159  0.38186022  1
  In  In43  1  0.31573468  0.16087093  0.87326603  1
  In  In44  1  0.32699220  0.50647390  0.37793736  1
  In  In45  1  0.32361966  0.51841327  0.87318861  1
  In  In46  1  0.34656903  0.83167937  0.37297945  1
  In  In47  1  0.34002231  0.81976027  0.88143624  1
  In  In48  1  0.67523174  0.14574729  0.37915413  1
  In  In49  1  0.68121249  0.15821662  0.87737624  1
  In  In50  1  0.64888554  0.50333488  0.37473700  1
  In  In51  1  0.65783597  0.50660322  0.88233990  1
  In  In52  1  0.67065393  0.83348665  0.37425552  1
  In  In53  1  0.65478172  0.84014947  0.88425350  1
  In  In54  1  0.14522569  -0.01860595  0.10386134  1
  In  In55  1  0.15394340  -0.00052663  0.62934816  1
  In  In56  1  0.16461737  0.32918184  0.11555974  1
  In  In57  1  0.17093926  0.33694831  0.62081188  1
  In  In58  1  0.16868172  0.66507484  0.12636982  1
  In  In59  1  0.18911969  0.65812793  0.65233942  1
  In  In60  1  0.51400801  -0.00772641  0.12841469  1
  In  In61  1  0.50899147  0.00473643  0.61553556  1
  In  In62  1  0.48663141  0.33693627  0.12764169  1
  In  In63  1  0.49639572  0.33696929  0.62100204  1
  In  In64  1  0.49874818  0.66963378  0.12221784  1
  In  In65  1  0.49116034  0.66253820  0.61733126  1
  In  In66  1  0.83630662  -0.01290453  0.11420536  1
  In  In67  1  0.84168472  -0.01050676  0.62964483  1
  In  In68  1  0.84883746  0.33154024  0.12340475  1
  In  In69  1  0.82981000  0.32728270  0.62506814  1
  In  In70  1  0.82294560  0.68645039  0.12937247  1
  In  In71  1  0.82952411  0.68499228  0.62538597  1
  In  In72  1  0.32237936  -0.01217332  0.75012575  1
  In  In73  1  0.66494548  0.32774861  0.74186138  1
  In  In74  1  -0.00114378  0.33182306  0.75515609  1
  In  In75  1  0.00517408  0.33335134  0.25015789  1
  In  In76  1  0.83637018  0.49994141  -0.00259305  1
  In  In77  1  0.66596825  0.33581571  0.25394458  1
  In  In78  1  0.16891505  0.83271038  0.51113517  1
  In  In79  1  0.33136958  0.33278811  0.25546732  1
  In  In80  1  0.83704188  0.15972776  0.50377582  1
  In  In81  1  0.66558978  0.67325651  0.75205908  1
  In  In82  1  0.83505803  0.50608722  0.49462251  1
  In  In83  1  0.33105241  0.33862727  0.75521269  1
  In  In84  1  0.33352295  0.00046286  0.25399291  1
  In  In85  1  0.49781284  0.16462250  0.00804094  1
  Cu  Cu86  1  0.66247515  0.33798724  0.50056095  1
  Cu  Cu87  1  0.17392938  0.50340612  0.24833491  1
  Cu  Cu88  1  -0.00156958  -0.00458104  0.50295073  1
  Cu  Cu89  1  0.00392013  0.66670767  0.00197551  1
  Cu  Cu90  1  0.83465525  0.83838543  0.24333313  1
  Cu  Cu91  1  0.50318771  0.15571471  0.26244151  1
  Cu  Cu92  1  0.50063294  0.15759265  0.74700714  1
  Cu  Cu93  1  0.84056611  0.14675573  0.75570433  1
  Cu  Cu94  1  0.83533128  0.83776454  0.75261106  1
  Cu  Cu95  1  0.00773546  0.67041136  0.50058672  1
  Cu  Cu96  1  0.33504867  0.33818156  -0.00712248  1
  Cu  Cu97  1  0.50303982  0.51354657  0.24409607  1
  Cu  Cu98  1  0.00226463  0.33551077  -0.00449685  1
  Cu  Cu99  1  0.15315701  0.15502607  0.24171087  1
  Cu  Cu100  1  0.01390799  0.33560993  0.49889546  1
  Cu  Cu101  1  0.66165426  0.33547726  0.00217014  1
  Cu  Cu102  1  0.33335302  0.00631878  0.50047387  1
  Cu  Cu103  1  0.33510243  -0.00728786  -0.00604265  1
  Cu  Cu104  1  0.83466318  0.51688135  0.25014094  1
  Cu  Cu105  1  0.50554781  0.83070637  0.74978848  1
  Cu  Cu106  1  0.33235608  0.66615642  0.49988818  1
  Cu  Cu107  1  0.33015621  0.33571585  0.50428491  1
  Cu  Cu108  1  0.83270252  0.49756128  0.75357803  1
  Cu  Cu109  1  0.33165734  0.66513254  0.00124761  1
  Cu  Cu110  1  0.66058082  0.67144674  0.49720178  1
  Cu  Cu111  1  0.83418361  0.15340972  0.24074461  1
  Cu  Cu112  1  0.66766970  -0.00297333  0.00037013  1
  Cu  Cu113  1  0.50436282  0.83226476  0.25076593  1
  Cu  Cu114  1  0.16223716  0.83086338  0.24256007  1
  Se  Se115  1  0.11013209  0.10856601  0.05576668  1
  Se  Se116  1  0.08203511  0.08114170  0.55312473  1
  Se  Se117  1  0.08631807  0.41777083  0.04848287  1
  Se  Se118  1  0.08953902  0.42327409  0.55311301  1
  Se  Se119  1  0.08691884  0.74875761  0.05736746  1
  Se  Se120  1  0.08487717  0.73864552  0.56973668  1
  Se  Se121  1  0.40731590  0.06966707  0.06367218  1
  Se  Se122  1  0.41923240  0.08878615  0.55280940  1
  Se  Se123  1  0.42038205  0.41480308  0.04918918  1
  Se  Se124  1  0.41363786  0.42154765  0.55524561  1
  Se  Se125  1  0.41463093  0.75190443  0.05275706  1
  Se  Se126  1  0.41568505  0.75346236  0.54895335  1
  Se  Se127  1  0.75002125  0.08130991  0.05313060  1
  Se  Se128  1  0.74583102  0.07062837  0.56010083  1
  Se  Se129  1  0.74584914  0.41275876  0.06322244  1
  Se  Se130  1  0.74462663  0.41694280  0.55957655  1
  Se  Se131  1  0.76055511  0.75865406  0.04783757  1
  Se  Se132  1  0.75105751  0.75054022  0.54658107  1
  Se  Se133  1  0.25803055  0.25316569  0.04993292  1
  Se  Se134  1  0.24763311  0.24775824  0.55383116  1
  Se  Se135  1  0.24817303  0.58073566  0.05480243  1
  Se  Se136  1  0.24718495  0.59458305  0.56141410  1
  Se  Se137  1  0.24843050  0.91021677  0.04640809  1
  Se  Se138  1  0.26095896  0.92658331  0.56661136  1
  Se  Se139  1  0.59016538  0.25386424  0.06878657  1
  Se  Se140  1  0.58289979  0.25380061  0.55599125  1
  Se  Se141  1  0.56993682  0.57863826  0.05163480  1
  Se  Se142  1  0.57778514  0.58435105  0.54645392  1
  Se  Se143  1  0.58123560  0.91380093  0.05078787  1
  Se  Se144  1  0.57370584  0.91005557  0.54697218  1
  Se  Se145  1  0.91374817  0.25386376  0.04454291  1
  Se  Se146  1  0.92912410  0.25861080  0.55752286  1
  Se  Se147  1  0.92029250  0.58762590  0.06322934  1
  Se  Se148  1  0.92107170  0.59106198  0.56033219  1
  Se  Se149  1  0.94116118  0.92998424  0.04724384  1
  Se  Se150  1  0.92116362  0.90902443  0.55739798  1
  Se  Se151  1  0.08800410  0.24549758  0.44514097  1
  Se  Se152  1  0.08868488  0.25262934  0.94500417  1
  Se  Se153  1  0.09105164  0.58435044  0.45021117  1
  Se  Se154  1  0.08646393  0.58113808  0.95032298  1
  Se  Se155  1  0.08141242  0.91641052  0.44231662  1
  Se  Se156  1  0.05985905  0.92980786  0.95781048  1
  Se  Se157  1  0.41124964  0.25189141  0.44870557  1
  Se  Se158  1  0.41289841  0.24875457  0.93701593  1
  Se  Se159  1  0.41628650  0.58654725  0.44250267  1
  Se  Se160  1  0.41538198  0.58513692  0.94480799  1
  Se  Se161  1  0.41068555  0.91616814  0.44925827  1
  Se  Se162  1  0.42275208  0.90875475  0.94747965  1
  Se  Se163  1  0.74659789  0.25762290  0.44458420  1
  Se  Se164  1  0.74331540  0.24963310  0.95133394  1
  Se  Se165  1  0.74400236  0.59368223  0.43509953  1
  Se  Se166  1  0.74419591  0.59474021  0.94502396  1
  Se  Se167  1  0.75077435  0.91834718  0.44358962  1
  Se  Se168  1  0.75192796  0.91634705  0.94579185  1
  Se  Se169  1  0.24379793  0.08364161  0.44822692  1
  Se  Se170  1  0.24866609  0.07915264  0.94834502  1
  Se  Se171  1  0.25029865  0.41937714  0.44713721  1
  Se  Se172  1  0.25230641  0.42142379  0.94021488  1
  Se  Se173  1  0.25232772  0.74812563  0.44000572  1
  Se  Se174  1  0.24688046  0.74959351  0.95004245  1
  Se  Se175  1  0.57746419  0.09613035  0.45006897  1
  Se  Se176  1  0.58184361  0.07694596  0.94135280  1
  Se  Se177  1  0.57803324  0.42203464  0.44961695  1
  Se  Se178  1  0.57984063  0.41852611  0.95018898  1
  Se  Se179  1  0.57947923  0.75230532  0.43967021  1
  Se  Se180  1  0.58652808  0.74332558  0.94796689  1
  Se  Se181  1  0.92032349  0.07253194  0.43768609  1
  Se  Se182  1  0.89847056  0.10029665  0.94477205  1
  Se  Se183  1  0.92923397  0.41027762  0.43850954  1
  Se  Se184  1  0.92613772  0.41617716  0.93162056  1
  Se  Se185  1  0.92200856  0.75193936  0.44833938  1
  Se  Se186  1  0.91477263  0.74993959  0.95553065  1
  Se  Se187  1  0.23667398  0.23299780  0.30267410  1
  Se  Se188  1  0.23428644  0.24307118  0.80252057  1
  Se  Se189  1  0.25473939  0.58729336  0.30267152  1
  Se  Se190  1  0.25063146  0.59834743  0.80071163  1
  Se  Se191  1  0.23988711  0.90620112  0.31006853  1
  Se  Se192  1  0.24353219  0.91094177  0.82423768  1
  Se  Se193  1  0.57957517  0.24613691  0.31676117  1
  Se  Se194  1  0.57927453  0.23851036  0.80881410  1
  Se  Se195  1  0.58870197  0.59120641  0.29935188  1
  Se  Se196  1  0.57538512  0.58019950  0.80703811  1
  Se  Se197  1  0.58291524  0.91747136  0.30680973  1
  Se  Se198  1  0.58955833  0.91492583  0.80057501  1
  Se  Se199  1  0.90950693  0.23568017  0.30329859  1
  Se  Se200  1  0.90913411  0.24031222  0.81237169  1
  Se  Se201  1  0.92224558  0.59333581  0.30433969  1
  Se  Se202  1  0.91228208  0.58853553  0.80034044  1
  Se  Se203  1  0.92204308  0.91826435  0.29754507  1
  Se  Se204  1  0.92056110  0.91484171  0.80931196  1
  Se  Se205  1  0.07470617  0.07384245  0.29953967  1
  Se  Se206  1  0.08336776  0.07940316  0.80744598  1
  Se  Se207  1  0.09564540  0.42230914  0.31094255  1
  Se  Se208  1  0.09345661  0.43010198  0.80134317  1
  Se  Se209  1  0.08236345  0.74968045  0.30304280  1
  Se  Se210  1  0.06023204  0.73186403  0.81855284  1
  Se  Se211  1  0.42389427  0.07679930  0.32194469  1
  Se  Se212  1  0.41669070  0.08432613  0.80877256  1
  Se  Se213  1  0.42706327  0.42804600  0.30493736  1
  Se  Se214  1  0.42350409  0.42834289  0.80976534  1
  Se  Se215  1  0.41624768  0.74862082  0.29878932  1
  Se  Se216  1  0.41805442  0.75129226  0.80157472  1
  Se  Se217  1  0.74633556  0.07875288  0.29667270  1
  Se  Se218  1  0.74643093  0.07096315  0.80408949  1
  Se  Se219  1  0.76036942  0.43027755  0.30989154  1
  Se  Se220  1  0.74722973  0.42144607  0.80964225  1
  Se  Se221  1  0.75209670  0.75607284  0.29998060  1
  Se  Se222  1  0.75584819  0.75817748  0.81430990  1
  Se  Se223  1  0.24160959  0.07752770  0.18646705  1
  Se  Se224  1  0.24212457  0.09107721  0.69509273  1
  Se  Se225  1  0.24725036  0.41775160  0.18785963  1
  Se  Se226  1  0.24572440  0.42691288  0.69156883  1
  Se  Se227  1  0.25132720  0.74687015  0.19773736  1
  Se  Se228  1  0.22875107  0.78506631  0.70029107  1
  Se  Se229  1  0.58270102  0.07564567  0.20424760  1
  Se  Se230  1  0.58539332  0.07603996  0.69568930  1
  Se  Se231  1  0.58104873  0.42445131  0.18855931  1
  Se  Se232  1  0.57172231  0.42667296  0.69547847  1
  Se  Se233  1  0.58368304  0.75217823  0.19065280  1
  Se  Se234  1  0.58241205  0.75604433  0.68245564  1
  Se  Se235  1  0.91736470  0.07624953  0.18380045  1
  Se  Se236  1  0.92566122  0.06967836  0.69990791  1
  Se  Se237  1  0.91329817  0.42996395  0.19425377  1
  Se  Se238  1  0.90959435  0.42111824  0.68927224  1
  Se  Se239  1  0.92144142  0.75153031  0.19568792  1
  Se  Se240  1  0.91508744  0.75192521  0.69860481  1
  Se  Se241  1  0.07953666  0.24182397  0.18290595  1
  Se  Se242  1  0.08625147  0.24769940  0.68909860  1
  Se  Se243  1  0.08467929  0.58418810  0.19851045  1
  Se  Se244  1  0.07414451  0.59465643  0.70177577  1
  Se  Se245  1  0.08220577  0.91831239  0.19140643  1
  Se  Se246  1  0.09596311  0.90825462  0.70259893  1
  Se  Se247  1  0.42493262  0.23516768  0.20023375  1
  Se  Se248  1  0.42051692  0.24390420  0.69362886  1
  Se  Se249  1  0.41204089  0.58930263  0.19305104  1
  Se  Se250  1  0.41123355  0.59852854  0.69541524  1
  Se  Se251  1  0.41764071  0.90853981  0.19059686  1
  Se  Se252  1  0.42506599  0.91260579  0.68899643  1
  Se  Se253  1  0.75609377  0.24717212  0.18967616  1
  Se  Se254  1  0.76180326  0.22883137  0.69347484  1
  Se  Se255  1  0.74741104  0.59452826  0.19729154  1
  Se  Se256  1  0.75478431  0.57784590  0.69038123  1
  Se  Se257  1  0.74914489  0.91632473  0.18697995  1
  Se  Se258  1  0.74864702  0.91063471  0.69356322  1
