# generated using pymatgen
data_In86Cu29Se144
_symmetry_space_group_name_H-M   'P 1'
_cell_length_a   17.56978148
_cell_length_b   17.56762627
_cell_length_c   23.42845747
_cell_angle_alpha   89.99064873
_cell_angle_beta   89.99962260
_cell_angle_gamma   90.02156690
_symmetry_Int_Tables_number   1
_chemical_formula_structural   In86Cu29Se144
_chemical_formula_sum   'In86 Cu29 Se144'
_cell_volume   7231.41195891
_cell_formula_units_Z   1
loop_
 _symmetry_equiv_pos_site_id
 _symmetry_equiv_pos_as_xyz
  1  'x, y, z'
loop_
 _atom_site_type_symbol
 _atom_site_label
 _atom_site_symmetry_multiplicity
 _atom_site_fract_x
 _atom_site_fract_y
 _atom_site_fract_z
 _atom_site_occupancy
  In  In0  1  -0.00205732  0.16974755  0.13677856  1
  In  In1  1  -0.00689500  0.15656335  0.61679149  1
  In  In2  1  0.00197426  0.49851943  0.12871068  1
  In  In3  1  0.00962952  0.49815871  0.62686125  1
  In  In4  1  -0.01620171  0.84494036  0.13981293  1
  In  In5  1  0.00975438  0.82362253  0.63234114  1
  In  In6  1  0.32547127  0.16790440  0.12964783  1
  In  In7  1  0.32168993  0.16948221  0.62243817  1
  In  In8  1  0.34191408  0.50180403  0.10363466  1
  In  In9  1  0.34126402  0.50992778  0.62022769  1
  In  In10  1  0.34510746  0.83278991  0.12320976  1
  In  In11  1  0.32813182  0.83920502  0.63040100  1
  In  In12  1  0.67006300  0.15421461  0.12107348  1
  In  In13  1  0.66843057  0.15644831  0.62679353  1
  In  In14  1  0.70454906  0.53355585  0.08313501  1
  In  In15  1  0.65666643  0.51778188  0.63186433  1
  In  In16  1  0.66189824  0.82274716  0.11266399  1
  In  In17  1  0.67164809  0.82789845  0.63271162  1
  In  In18  1  0.16542007  -0.00324676  0.37674877  1
  In  In19  1  0.16409667  -0.00090470  0.86345973  1
  In  In20  1  0.15595543  0.34372012  0.38042716  1
  In  In21  1  0.17448132  0.34509839  0.88027108  1
  In  In22  1  0.16009778  0.67600215  0.38773552  1
  In  In23  1  0.15333428  0.65792670  0.86814906  1
  In  In24  1  0.49384556  0.01442272  0.36796534  1
  In  In25  1  0.49540449  -0.01433759  0.86977881  1
  In  In26  1  0.51298361  0.34598124  0.37360220  1
  In  In27  1  0.49798946  0.35191204  0.88756837  1
  In  In28  1  0.50386090  0.65940485  0.37401368  1
  In  In29  1  0.50461654  0.67131528  0.87374044  1
  In  In30  1  0.85681517  -0.00583253  0.37228140  1
  In  In31  1  0.82930863  -0.00034813  0.87552057  1
  In  In32  1  0.83174845  0.31809553  0.37296151  1
  In  In33  1  0.81305130  0.34554169  0.90151602  1
  In  In34  1  0.83124483  0.67282411  0.35749260  1
  In  In35  1  0.82905216  0.66587450  0.88268989  1
  In  In36  1  0.00201604  0.16505907  0.37510521  1
  In  In37  1  -0.00917151  0.15550856  0.87149610  1
  In  In38  1  0.00500417  0.51102877  0.36689107  1
  In  In39  1  -0.01072806  0.50713656  0.88742330  1
  In  In40  1  0.00023426  0.83867048  0.36496683  1
  In  In41  1  -0.01239560  0.82618372  0.86889501  1
  In  In42  1  0.33144369  0.14799291  0.37392898  1
  In  In43  1  0.33920713  0.16014613  0.86966486  1
  In  In44  1  0.33489365  0.49906867  0.38059710  1
  In  In45  1  0.32241919  0.50662427  0.87801780  1
  In  In46  1  0.32112244  0.82939896  0.37723481  1
  In  In47  1  0.34339161  0.83910353  0.86763169  1
  In  In48  1  0.66739019  0.17898536  0.37593526  1
  In  In49  1  0.67963667  0.17217223  0.87669773  1
  In  In50  1  0.65855635  0.50747565  0.37318247  1
  In  In51  1  0.63809663  0.53542232  0.91201879  1
  In  In52  1  0.68182931  0.82426593  0.36913080  1
  In  In53  1  0.66418208  0.82508298  0.87825297  1
  In  In54  1  0.16380619  -0.00292104  0.13585706  1
  In  In55  1  0.16596394  -0.00212129  0.62409480  1
  In  In56  1  0.16241902  0.33187640  0.12832139  1
  In  In57  1  0.17074628  0.33565682  0.61189926  1
  In  In58  1  0.16268545  0.65404018  0.12354533  1
  In  In59  1  0.16647448  0.66703628  0.62535818  1
  In  In60  1  0.50557519  -0.00811163  0.12578263  1
  In  In61  1  0.50483344  -0.00314384  0.63468905  1
  In  In62  1  0.49829326  0.35100175  0.11873234  1
  In  In63  1  0.48824545  0.34325017  0.62428123  1
  In  In64  1  0.51432486  0.67053381  0.10480950  1
  In  In65  1  0.50843041  0.64803528  0.63799113  1
  In  In66  1  0.84046605  0.00312082  0.11877484  1
  In  In67  1  0.83197035  0.00322411  0.63239398  1
  In  In68  1  0.83954556  0.34195664  0.11536959  1
  In  In69  1  0.84448616  0.33288110  0.62357401  1
  In  In70  1  0.83817629  0.67052179  0.12532174  1
  In  In71  1  0.82901530  0.67357321  0.63633665  1
  In  In72  1  0.50219761  0.16862433  -0.00573351  1
  In  In73  1  -0.00082056  0.32943793  0.75249670  1
  In  In74  1  0.83427226  0.50089880  0.49769368  1
  In  In75  1  0.49644160  0.82579340  0.50269027  1
  In  In76  1  0.83813318  0.83166034  0.50510020  1
  In  In77  1  0.66901342  -0.00715316  0.24522510  1
  In  In78  1  0.16116967  0.17376918  0.00726109  1
  In  In79  1  0.16203029  0.82891175  -0.00243411  1
  In  In80  1  0.33383004  0.33482827  0.75465000  1
  In  In81  1  0.49650200  0.17469495  0.49831748  1
  In  In82  1  0.66591012  0.33820956  0.76296479  1
  In  In83  1  0.66741802  0.33520329  0.24451941  1
  In  In84  1  0.33033794  0.66828640  0.24581170  1
  In  In85  1  0.33201587  0.33283172  0.24685916  1
  Cu  Cu86  1  0.32852406  -0.00458056  0.50217306  1
  Cu  Cu87  1  0.67567394  0.00232162  0.50493738  1
  Cu  Cu88  1  0.00724540  0.00023054  0.49660288  1
  Cu  Cu89  1  0.50710725  0.51135142  0.24211688  1
  Cu  Cu90  1  0.16593037  0.50011952  0.25099892  1
  Cu  Cu91  1  0.83747649  0.15951824  0.25078549  1
  Cu  Cu92  1  0.50389492  0.15801471  0.75385022  1
  Cu  Cu93  1  0.32964915  0.33688981  0.49743521  1
  Cu  Cu94  1  0.16242123  0.16020257  0.74189556  1
  Cu  Cu95  1  0.66945073  -0.00943846  -0.00219151  1
  Cu  Cu96  1  0.17050195  0.83398899  0.74860655  1
  Cu  Cu97  1  0.16183660  0.83386466  0.25680192  1
  Cu  Cu98  1  -0.00041729  0.32771247  0.49805331  1
  Cu  Cu99  1  0.16608716  0.16274560  0.25446997  1
  Cu  Cu100  1  0.00180991  0.66758587  0.50086264  1
  Cu  Cu101  1  0.50130515  0.83393009  0.24093657  1
  Cu  Cu102  1  0.16556987  0.50663148  0.74858734  1
  Cu  Cu103  1  0.33149320  0.66048591  0.50411810  1
  Cu  Cu104  1  0.33496632  0.67076678  -0.00588357  1
  Cu  Cu105  1  0.83318086  0.16654676  0.75314897  1
  Cu  Cu106  1  -0.00861258  -0.00282893  -0.00015496  1
  Cu  Cu107  1  0.83292058  0.51193904  0.76183164  1
  Cu  Cu108  1  0.83290371  0.49785425  0.23908510  1
  Cu  Cu109  1  0.67009526  0.33970362  0.49788138  1
  Cu  Cu110  1  0.33212870  0.00201286  -0.00441090  1
  Cu  Cu111  1  0.50384242  0.82670282  0.75106842  1
  Cu  Cu112  1  0.00405761  0.33185286  0.00850273  1
  Cu  Cu113  1  0.83313019  0.83823961  0.75678659  1
  Cu  Cu114  1  -0.00227868  0.66547497  0.00165646  1
  Se  Se115  1  0.07563068  0.07334618  0.06078044  1
  Se  Se116  1  0.08865720  0.08407471  0.55233039  1
  Se  Se117  1  0.08802150  0.41773450  0.05796966  1
  Se  Se118  1  0.07800705  0.41712121  0.55032674  1
  Se  Se119  1  0.07362403  0.74840070  0.06403170  1
  Se  Se120  1  0.08508993  0.75134508  0.55402743  1
  Se  Se121  1  0.41057483  0.08082036  0.05854103  1
  Se  Se122  1  0.41546242  0.07546106  0.55909813  1
  Se  Se123  1  0.42246960  0.41543756  0.03897027  1
  Se  Se124  1  0.41519513  0.42019570  0.54884702  1
  Se  Se125  1  0.41693684  0.75441532  0.04785004  1
  Se  Se126  1  0.41098700  0.73941618  0.56663763  1
  Se  Se127  1  0.75078456  0.07750032  0.04945089  1
  Se  Se128  1  0.75829540  0.08611842  0.55651316  1
  Se  Se129  1  0.73737169  0.39736360  0.04933332  1
  Se  Se130  1  0.74492037  0.41686898  0.56472559  1
  Se  Se131  1  0.74218806  0.73038151  0.05193446  1
  Se  Se132  1  0.74206535  0.73926819  0.55642929  1
  Se  Se133  1  0.26129124  0.26300375  0.05707450  1
  Se  Se134  1  0.24951436  0.24595037  0.54550965  1
  Se  Se135  1  0.24956055  0.59038316  0.04806965  1
  Se  Se136  1  0.24318491  0.57863554  0.55493126  1
  Se  Se137  1  0.25126699  0.92353197  0.05781195  1
  Se  Se138  1  0.24667886  0.91139859  0.55476391  1
  Se  Se139  1  0.58796336  0.25179922  0.06074003  1
  Se  Se140  1  0.58984382  0.26005588  0.56186425  1
  Se  Se141  1  0.56933322  0.56218336  0.04314347  1
  Se  Se142  1  0.57912527  0.58422658  0.55396941  1
  Se  Se143  1  0.57840049  0.91493496  0.05009083  1
  Se  Se144  1  0.59202057  0.92007762  0.55910363  1
  Se  Se145  1  0.92313152  0.24325461  0.05905468  1
  Se  Se146  1  0.91341550  0.24748754  0.55095187  1
  Se  Se147  1  0.91998199  0.57979878  0.05836245  1
  Se  Se148  1  0.91920413  0.59152174  0.56247328  1
  Se  Se149  1  0.91552558  0.90751213  0.05320036  1
  Se  Se150  1  0.92828509  0.92344732  0.56237887  1
  Se  Se151  1  0.08554310  0.24612501  0.44534287  1
  Se  Se152  1  0.07380371  0.25569286  0.93721082  1
  Se  Se153  1  0.08087374  0.57857927  0.44803007  1
  Se  Se154  1  0.08601519  0.58425597  0.95009558  1
  Se  Se155  1  0.08062631  0.90935944  0.44202476  1
  Se  Se156  1  0.07665145  0.92399356  0.93839168  1
  Se  Se157  1  0.40991521  0.26191122  0.43294519  1
  Se  Se158  1  0.40151230  0.25704838  0.94119307  1
  Se  Se159  1  0.41764576  0.58643271  0.44542225  1
  Se  Se160  1  0.41596689  0.58643229  0.94049485  1
  Se  Se161  1  0.41474053  0.92391321  0.44060931  1
  Se  Se162  1  0.41512501  0.91508323  0.94705953  1
  Se  Se163  1  0.75035935  0.24931054  0.45055215  1
  Se  Se164  1  0.75871476  0.23089403  0.95682800  1
  Se  Se165  1  0.75048302  0.59415611  0.43691685  1
  Se  Se166  1  0.76377397  0.57799641  0.95903893  1
  Se  Se167  1  0.74911519  0.92183546  0.44111031  1
  Se  Se168  1  0.75369879  0.90962131  0.94366092  1
  Se  Se169  1  0.24725240  0.08027956  0.44824411  1
  Se  Se170  1  0.24695634  0.08154271  0.94124287  1
  Se  Se171  1  0.24522437  0.42266671  0.44707392  1
  Se  Se172  1  0.25035473  0.42216055  0.95192941  1
  Se  Se173  1  0.25180627  0.75128154  0.45447801  1
  Se  Se174  1  0.25216960  0.74699447  0.93288400  1
  Se  Se175  1  0.59061281  0.07781004  0.44380434  1
  Se  Se176  1  0.58881297  0.07244861  0.93676105  1
  Se  Se177  1  0.58547248  0.42502897  0.44868462  1
  Se  Se178  1  0.61701471  0.39347803  0.94122566  1
  Se  Se179  1  0.59276017  0.74601967  0.44128032  1
  Se  Se180  1  0.58204279  0.74767193  0.94949396  1
  Se  Se181  1  0.91868716  0.08248138  0.44659580  1
  Se  Se182  1  0.91137239  0.08383191  0.94723356  1
  Se  Se183  1  0.92151761  0.41010146  0.43620565  1
  Se  Se184  1  0.91885029  0.41676078  0.95722757  1
  Se  Se185  1  0.91971235  0.74198486  0.43836353  1
  Se  Se186  1  0.91756581  0.75161158  0.94817971  1
  Se  Se187  1  0.24457959  0.24854451  0.31325090  1
  Se  Se188  1  0.23578170  0.24118809  0.80800213  1
  Se  Se189  1  0.24485968  0.58145206  0.31174749  1
  Se  Se190  1  0.25046127  0.58764490  0.80191987  1
  Se  Se191  1  0.25101150  0.91610771  0.30563182  1
  Se  Se192  1  0.25455846  0.91906118  0.80048551  1
  Se  Se193  1  0.57242335  0.24397678  0.30365726  1
  Se  Se194  1  0.56927510  0.24480604  0.81727644  1
  Se  Se195  1  0.58882552  0.59202766  0.29812182  1
  Se  Se196  1  0.59243266  0.58004786  0.81430766  1
  Se  Se197  1  0.57591218  0.90869213  0.31101254  1
  Se  Se198  1  0.58780195  0.91050468  0.80449053  1
  Se  Se199  1  0.91922392  0.24661190  0.30271738  1
  Se  Se200  1  0.90144111  0.25457035  0.81570159  1
  Se  Se201  1  0.91360875  0.58030547  0.29718467  1
  Se  Se202  1  0.92205154  0.59147815  0.81196446  1
  Se  Se203  1  0.89660100  0.89547246  0.29887725  1
  Se  Se204  1  0.91870335  0.92525225  0.80433608  1
  Se  Se205  1  0.08192628  0.07827789  0.30685021  1
  Se  Se206  1  0.07769239  0.08426454  0.79944169  1
  Se  Se207  1  0.08108178  0.41583775  0.30173859  1
  Se  Se208  1  0.08596671  0.42569968  0.81014548  1
  Se  Se209  1  0.08441273  0.74215125  0.30686430  1
  Se  Se210  1  0.08344402  0.75490875  0.80296726  1
  Se  Se211  1  0.41398733  0.08847740  0.29593447  1
  Se  Se212  1  0.41492845  0.07439362  0.80153825  1
  Se  Se213  1  0.42628596  0.43028113  0.30204019  1
  Se  Se214  1  0.42284462  0.42843762  0.80948738  1
  Se  Se215  1  0.42218954  0.75709110  0.30730070  1
  Se  Se216  1  0.41603616  0.74538701  0.80156650  1
  Se  Se217  1  0.75276179  0.08511065  0.31193959  1
  Se  Se218  1  0.74705051  0.08324882  0.80406453  1
  Se  Se219  1  0.75742495  0.42374850  0.30949562  1
  Se  Se220  1  0.75479274  0.42909390  0.81961015  1
  Se  Se221  1  0.74186525  0.74654411  0.28953274  1
  Se  Se222  1  0.75354255  0.74853661  0.80830938  1
  Se  Se223  1  0.25034559  0.08266082  0.19955690  1
  Se  Se224  1  0.25321943  0.08039305  0.69334985  1
  Se  Se225  1  0.25226363  0.43224721  0.18722915  1
  Se  Se226  1  0.24243029  0.41924405  0.69054872  1
  Se  Se227  1  0.23866058  0.76058161  0.18767632  1
  Se  Se228  1  0.25066435  0.74698481  0.69574488  1
  Se  Se229  1  0.57580652  0.09078907  0.19511439  1
  Se  Se230  1  0.59112583  0.07947378  0.70078831  1
  Se  Se231  1  0.58850281  0.43131499  0.18426204  1
  Se  Se232  1  0.57531045  0.41957515  0.69620667  1
  Se  Se233  1  0.57856958  0.74754764  0.18710371  1
  Se  Se234  1  0.58826240  0.74380380  0.69865762  1
  Se  Se235  1  0.91884391  0.07363090  0.19789566  1
  Se  Se236  1  0.91879899  0.08813976  0.69784299  1
  Se  Se237  1  0.91814115  0.40919554  0.19452899  1
  Se  Se238  1  0.90746873  0.42917169  0.69834003  1
  Se  Se239  1  0.92804627  0.73588119  0.19890504  1
  Se  Se240  1  0.91586162  0.75437391  0.70125234  1
  Se  Se241  1  0.08741724  0.25101915  0.20149649  1
  Se  Se242  1  0.08840597  0.24827586  0.68467816  1
  Se  Se243  1  0.08175178  0.58433729  0.19946639  1
  Se  Se244  1  0.07889095  0.58827711  0.69660671  1
  Se  Se245  1  0.07862690  0.91962015  0.20454351  1
  Se  Se246  1  0.08495311  0.91845968  0.69662369  1
  Se  Se247  1  0.42771740  0.24998552  0.18751071  1
  Se  Se248  1  0.42402011  0.23976457  0.69328881  1
  Se  Se249  1  0.41994013  0.58393677  0.18178660  1
  Se  Se250  1  0.41026178  0.57786556  0.70124533  1
  Se  Se251  1  0.41404621  0.92044896  0.19622619  1
  Se  Se252  1  0.42026135  0.91265206  0.69860706  1
  Se  Se253  1  0.75854273  0.23983268  0.18944243  1
  Se  Se254  1  0.75404024  0.25090519  0.69404246  1
  Se  Se255  1  0.74783532  0.57716180  0.18412390  1
  Se  Se256  1  0.74807217  0.58600395  0.70219909  1
  Se  Se257  1  0.75283747  0.90733962  0.18080221  1
  Se  Se258  1  0.74956870  0.91760177  0.69847079  1
