# generated using pymatgen
data_In86Cu29Se144
_symmetry_space_group_name_H-M   'P 1'
_cell_length_a   17.58249210
_cell_length_b   17.58099563
_cell_length_c   23.42820023
_cell_angle_alpha   90.00423671
_cell_angle_beta   89.98249173
_cell_angle_gamma   89.99110181
_symmetry_Int_Tables_number   1
_chemical_formula_structural   In86Cu29Se144
_chemical_formula_sum   'In86 Cu29 Se144'
_cell_volume   7242.07131414
_cell_formula_units_Z   1
loop_
 _symmetry_equiv_pos_site_id
 _symmetry_equiv_pos_as_xyz
  1  'x, y, z'
loop_
 _atom_site_type_symbol
 _atom_site_label
 _atom_site_symmetry_multiplicity
 _atom_site_fract_x
 _atom_site_fract_y
 _atom_site_fract_z
 _atom_site_occupancy
  In  In0  1  -0.00081757  0.17192726  0.12508528  1
  In  In1  1  -0.00276617  0.16844881  0.62976135  1
  In  In2  1  -0.01560837  0.49974823  0.12198120  1
  In  In3  1  -0.01724001  0.51305864  0.63979639  1
  In  In4  1  0.00238486  0.83876834  0.11858568  1
  In  In5  1  0.00436440  0.83049938  0.63816995  1
  In  In6  1  0.33280491  0.15152824  0.13070153  1
  In  In7  1  0.33315627  0.15403800  0.61095848  1
  In  In8  1  0.34584232  0.50496331  0.12952278  1
  In  In9  1  0.34520227  0.50243707  0.61759634  1
  In  In10  1  0.33502794  0.83566235  0.13639991  1
  In  In11  1  0.33318470  0.83705530  0.61941285  1
  In  In12  1  0.66658953  0.16146341  0.11562942  1
  In  In13  1  0.65514033  0.13654693  0.60804898  1
  In  In14  1  0.67615927  0.50129220  0.12431907  1
  In  In15  1  0.67761248  0.50851811  0.62242908  1
  In  In16  1  0.66576193  0.82544126  0.12392948  1
  In  In17  1  0.65361959  0.84897782  0.64435328  1
  In  In18  1  0.19635822  -0.02497451  0.41114393  1
  In  In19  1  0.15876971  -0.01737961  0.85335253  1
  In  In20  1  0.14995267  0.33647492  0.37401120  1
  In  In21  1  0.16157197  0.34351792  0.87093960  1
  In  In22  1  0.18065035  0.65843450  0.37584429  1
  In  In23  1  0.15645741  0.68208585  0.85561069  1
  In  In24  1  0.47947282  0.01187916  0.40497170  1
  In  In25  1  0.50790589  0.01123575  0.85781723  1
  In  In26  1  0.51202629  0.33291323  0.38409999  1
  In  In27  1  0.49159227  0.31793160  0.87265567  1
  In  In28  1  0.50048051  0.67150990  0.38546995  1
  In  In29  1  0.51024815  0.67961697  0.86528528  1
  In  In30  1  0.84427763  0.00641687  0.38123323  1
  In  In31  1  0.83518648  0.00495317  0.86847631  1
  In  In32  1  0.84300751  0.32948935  0.38180859  1
  In  In33  1  0.83351617  0.32546324  0.87747989  1
  In  In34  1  0.81781611  0.67255853  0.37728695  1
  In  In35  1  0.82877851  0.66293368  0.87528988  1
  In  In36  1  0.00234493  0.17069923  0.38422132  1
  In  In37  1  -0.00986371  0.15337265  0.86407557  1
  In  In38  1  0.00780771  0.48885328  0.37515799  1
  In  In39  1  -0.01937145  0.48410490  0.85388821  1
  In  In40  1  -0.00069958  0.84652521  0.38304823  1
  In  In41  1  -0.04050163  0.79734606  0.82431369  1
  In  In42  1  0.33866193  0.15601214  0.38865481  1
  In  In43  1  0.33853625  0.15283356  0.87550601  1
  In  In44  1  0.32869277  0.52504310  0.37547380  1
  In  In45  1  0.32663261  0.50919391  0.86894197  1
  In  In46  1  0.33589008  0.83002746  0.38680227  1
  In  In47  1  0.33138488  0.83830985  0.85865780  1
  In  In48  1  0.66220214  0.16342299  0.39182935  1
  In  In49  1  0.66491377  0.16657296  0.87256913  1
  In  In50  1  0.66098076  0.51123062  0.38686491  1
  In  In51  1  0.67716726  0.51527867  0.86731052  1
  In  In52  1  0.66412952  0.82042390  0.37683410  1
  In  In53  1  0.70798819  0.85516837  0.83418714  1
  In  In54  1  0.17127553  0.00669253  0.13104578  1
  In  In55  1  0.17170135  -0.00920294  0.62206675  1
  In  In56  1  0.15683206  0.31663097  0.13334436  1
  In  In57  1  0.16035404  0.32152802  0.62150618  1
  In  In58  1  0.17090740  0.67878102  0.12754872  1
  In  In59  1  0.15903513  0.68540215  0.63468332  1
  In  In60  1  0.49096658  -0.00407671  0.12552890  1
  In  In61  1  0.51051501  -0.00202044  0.61739410  1
  In  In62  1  0.51167318  0.33086380  0.12618100  1
  In  In63  1  0.49426242  0.32224926  0.61383610  1
  In  In64  1  0.50010267  0.67185905  0.13759209  1
  In  In65  1  0.49631461  0.66503700  0.62528462  1
  In  In66  1  0.83159511  -0.00318773  0.11021549  1
  In  In67  1  0.81713123  0.00467925  0.64298867  1
  In  In68  1  0.83425333  0.34048293  0.11825542  1
  In  In69  1  0.83823748  0.33927079  0.62892789  1
  In  In70  1  0.83323534  0.65711701  0.11724590  1
  In  In71  1  0.83448031  0.66511023  0.64279150  1
  In  In72  1  0.33110461  0.32547278  0.73556220  1
  In  In73  1  0.82713425  0.83899280  0.51254574  1
  In  In74  1  0.65963208  -0.00461069  0.26220787  1
  In  In75  1  0.16349152  0.50395252  -0.00449648  1
  In  In76  1  0.16159917  0.83681133  -0.01315752  1
  In  In77  1  0.00534272  0.00737150  0.25275482  1
  In  In78  1  0.16268513  0.16196688  -0.00005974  1
  In  In79  1  0.00592609  0.66069945  0.25019286  1
  In  In80  1  0.16477039  0.49883054  0.49830360  1
  In  In81  1  0.51586907  0.49951537  -0.00446468  1
  In  In82  1  0.66640183  0.33029958  0.74712224  1
  In  In83  1  0.67069546  0.33802917  0.24918705  1
  In  In84  1  0.32969881  0.33952745  0.25482600  1
  In  In85  1  0.50508942  0.83806416  -0.00880730  1
  Cu  Cu86  1  0.33837468  0.33406063  0.49776690  1
  Cu  Cu87  1  0.17047345  0.16851138  0.74227443  1
  Cu  Cu88  1  0.66516219  0.67001672  0.50809115  1
  Cu  Cu89  1  0.49384161  0.82922305  0.74073820  1
  Cu  Cu90  1  0.16865432  0.15499891  0.26145790  1
  Cu  Cu91  1  0.82657019  0.16893210  0.74747627  1
  Cu  Cu92  1  0.17742718  0.83186869  0.26123266  1
  Cu  Cu93  1  0.49488843  0.15940706  0.25918799  1
  Cu  Cu94  1  -0.00603291  0.33939983  0.50424476  1
  Cu  Cu95  1  0.66988142  0.00178886  -0.01631849  1
  Cu  Cu96  1  0.34119879  0.67161079  -0.00268923  1
  Cu  Cu97  1  0.49666640  0.49598090  0.74315194  1
  Cu  Cu98  1  -0.00924250  -0.00656471  -0.01100588  1
  Cu  Cu99  1  0.33336143  0.67112967  0.50316615  1
  Cu  Cu100  1  0.67783281  0.33424987  0.50692672  1
  Cu  Cu101  1  -0.00600980  0.33175285  -0.00320725  1
  Cu  Cu102  1  0.83792921  0.17227259  0.25477887  1
  Cu  Cu103  1  -0.00711186  0.66645047  -0.01768523  1
  Cu  Cu104  1  0.49595573  0.51481762  0.26068655  1
  Cu  Cu105  1  0.82878665  0.82872639  0.24583589  1
  Cu  Cu106  1  0.00006954  0.00702003  0.50934177  1
  Cu  Cu107  1  0.16547283  0.50743686  0.74560238  1
  Cu  Cu108  1  0.34120821  0.32330825  -0.00117619  1
  Cu  Cu109  1  0.49169182  0.83335051  0.25977713  1
  Cu  Cu110  1  0.66488207  0.32900419  -0.00333083  1
  Cu  Cu111  1  0.83087036  0.50185843  0.24784926  1
  Cu  Cu112  1  0.67710107  0.67363865  -0.00341834  1
  Cu  Cu113  1  0.33387518  -0.00072172  0.00029546  1
  Cu  Cu114  1  -0.00521207  0.67031558  0.51220370  1
  Se  Se115  1  0.07059594  0.06663703  0.05721315  1
  Se  Se116  1  0.08567868  0.08617441  0.56327129  1
  Se  Se117  1  0.08011876  0.40575226  0.05792686  1
  Se  Se118  1  0.07232742  0.42239806  0.56513168  1
  Se  Se119  1  0.07616510  0.73863951  0.04886537  1
  Se  Se120  1  0.07936003  0.75714054  0.55831737  1
  Se  Se121  1  0.41583477  0.08258401  0.05467871  1
  Se  Se122  1  0.43268112  0.08657871  0.54832013  1
  Se  Se123  1  0.41659341  0.41150869  0.05547095  1
  Se  Se124  1  0.42222014  0.41851834  0.54796081  1
  Se  Se125  1  0.41614246  0.75120056  0.05979897  1
  Se  Se126  1  0.42103722  0.75121403  0.55397844  1
  Se  Se127  1  0.74894820  0.08253502  0.04562418  1
  Se  Se128  1  0.76795384  0.07562284  0.55344023  1
  Se  Se129  1  0.74403301  0.41599654  0.05022794  1
  Se  Se130  1  0.75923145  0.42099971  0.55637340  1
  Se  Se131  1  0.75686008  0.75514634  0.05492087  1
  Se  Se132  1  0.74346277  0.74654856  0.57273047  1
  Se  Se133  1  0.25687524  0.25142519  0.06115734  1
  Se  Se134  1  0.25379949  0.25504545  0.55287946  1
  Se  Se135  1  0.25999038  0.59144833  0.05673109  1
  Se  Se136  1  0.24737607  0.59132258  0.56067293  1
  Se  Se137  1  0.25293765  0.91806658  0.05960785  1
  Se  Se138  1  0.26303213  0.92823178  0.54624493  1
  Se  Se139  1  0.58118964  0.24866519  0.05193714  1
  Se  Se140  1  0.58990699  0.24642659  0.55089198  1
  Se  Se141  1  0.59065213  0.59972679  0.05959930  1
  Se  Se142  1  0.58200047  0.58075343  0.55709902  1
  Se  Se143  1  0.59378981  0.92869542  0.05566662  1
  Se  Se144  1  0.60313969  0.91426462  0.55516374  1
  Se  Se145  1  0.91538725  0.24840819  0.05457252  1
  Se  Se146  1  0.91675188  0.25220216  0.55881081  1
  Se  Se147  1  0.91947192  0.58328798  0.04515596  1
  Se  Se148  1  0.90921075  0.59018763  0.56299206  1
  Se  Se149  1  0.91418336  0.90742960  0.04733270  1
  Se  Se150  1  0.92192459  0.92393341  0.57061538  1
  Se  Se151  1  0.08233035  0.25856241  0.45282741  1
  Se  Se152  1  0.07690283  0.25290070  0.93728097  1
  Se  Se153  1  0.07180463  0.59510334  0.44382054  1
  Se  Se154  1  0.08111830  0.58904663  0.92718397  1
  Se  Se155  1  0.07808994  0.91376591  0.46010028  1
  Se  Se156  1  0.06714536  0.91594339  0.92702387  1
  Se  Se157  1  0.42394462  0.24965941  0.44719874  1
  Se  Se158  1  0.41846608  0.23600010  0.94642515  1
  Se  Se159  1  0.41607078  0.58378656  0.45201373  1
  Se  Se160  1  0.41863329  0.58846422  0.93881111  1
  Se  Se161  1  0.39109738  0.92377199  0.46424513  1
  Se  Se162  1  0.41014231  0.92420039  0.93461180  1
  Se  Se163  1  0.75508530  0.25007864  0.44853469  1
  Se  Se164  1  0.74804789  0.24423497  0.94452743  1
  Se  Se165  1  0.75113232  0.58975297  0.45375401  1
  Se  Se166  1  0.75312087  0.57787469  0.94950943  1
  Se  Se167  1  0.74856800  0.91893763  0.43747436  1
  Se  Se168  1  0.74984650  0.91399933  0.93217104  1
  Se  Se169  1  0.23064079  0.10486500  0.45271332  1
  Se  Se170  1  0.24314397  0.06668164  0.93909315  1
  Se  Se171  1  0.25754149  0.41231337  0.43552910  1
  Se  Se172  1  0.26276681  0.40844534  0.94238052  1
  Se  Se173  1  0.24275919  0.74679593  0.44994820  1
  Se  Se174  1  0.25837936  0.74449821  0.93463452  1
  Se  Se175  1  0.59317376  0.07016995  0.45750648  1
  Se  Se176  1  0.57724759  0.08311131  0.93989239  1
  Se  Se177  1  0.59120600  0.41612448  0.45321305  1
  Se  Se178  1  0.59220368  0.40631543  0.92934026  1
  Se  Se179  1  0.58310398  0.75442260  0.45517876  1
  Se  Se180  1  0.60056444  0.75276143  0.93560492  1
  Se  Se181  1  0.91852668  0.08841722  0.45336122  1
  Se  Se182  1  0.91178851  0.08760953  0.94401975  1
  Se  Se183  1  0.91706802  0.42509028  0.44761536  1
  Se  Se184  1  0.91719629  0.41798433  0.94089561  1
  Se  Se185  1  0.91684041  0.74821750  0.44575340  1
  Se  Se186  1  0.91973667  0.75963450  0.92904108  1
  Se  Se187  1  0.24759346  0.24417408  0.31507093  1
  Se  Se188  1  0.24630543  0.24634120  0.81007367  1
  Se  Se189  1  0.23300933  0.56758712  0.29934272  1
  Se  Se190  1  0.24771687  0.59035407  0.79942993  1
  Se  Se191  1  0.25271762  0.91740659  0.31829023  1
  Se  Se192  1  0.26391340  0.92814119  0.78869999  1
  Se  Se193  1  0.58428891  0.24010723  0.30878344  1
  Se  Se194  1  0.56941015  0.23745826  0.79879267  1
  Se  Se195  1  0.58541454  0.59181605  0.31303141  1
  Se  Se196  1  0.57518137  0.57539131  0.80273406  1
  Se  Se197  1  0.56622182  0.91376835  0.32352142  1
  Se  Se198  1  0.57753035  0.90861844  0.79823442  1
  Se  Se199  1  0.92310619  0.25040918  0.30878891  1
  Se  Se200  1  0.91178556  0.24901148  0.80232748  1
  Se  Se201  1  0.90891412  0.58065293  0.31204378  1
  Se  Se202  1  0.93379390  0.60670363  0.80648966  1
  Se  Se203  1  0.90771786  0.91041609  0.30463147  1
  Se  Se204  1  0.92145030  0.93464978  0.79480754  1
  Se  Se205  1  0.09290737  0.07674134  0.32507150  1
  Se  Se206  1  0.08700939  0.08748705  0.79730877  1
  Se  Se207  1  0.08516302  0.42047636  0.29845388  1
  Se  Se208  1  0.08586136  0.41589654  0.79452677  1
  Se  Se209  1  0.08478986  0.75814852  0.31512961  1
  Se  Se210  1  0.10375778  0.79267776  0.79470994  1
  Se  Se211  1  0.41708719  0.07635673  0.31563370  1
  Se  Se212  1  0.39851284  0.07032690  0.79795551  1
  Se  Se213  1  0.42509151  0.42310972  0.31692948  1
  Se  Se214  1  0.41595590  0.41697055  0.80487595  1
  Se  Se215  1  0.41249563  0.74727089  0.31381206  1
  Se  Se216  1  0.41425177  0.74582669  0.79818859  1
  Se  Se217  1  0.75618482  0.09260993  0.31219348  1
  Se  Se218  1  0.74392565  0.08546325  0.80157255  1
  Se  Se219  1  0.75438361  0.42538466  0.31435964  1
  Se  Se220  1  0.75845552  0.41946409  0.80512666  1
  Se  Se221  1  0.74448426  0.74880619  0.29989814  1
  Se  Se222  1  0.72369874  0.71455615  0.80671651  1
  Se  Se223  1  0.25367164  0.07692803  0.20590557  1
  Se  Se224  1  0.25055329  0.08556315  0.68722478  1
  Se  Se225  1  0.24397233  0.41993932  0.18488652  1
  Se  Se226  1  0.24216858  0.42566036  0.68303085  1
  Se  Se227  1  0.25418521  0.74798932  0.20247166  1
  Se  Se228  1  0.26900324  0.74335637  0.69138099  1
  Se  Se229  1  0.57840468  0.08821693  0.19389845  1
  Se  Se230  1  0.59462820  0.07060232  0.69344062  1
  Se  Se231  1  0.57333633  0.43359341  0.19668892  1
  Se  Se232  1  0.57471344  0.41560421  0.68303418  1
  Se  Se233  1  0.58079920  0.76153707  0.20114769  1
  Se  Se234  1  0.58201741  0.74018317  0.69744490  1
  Se  Se235  1  0.90526543  0.08434556  0.19063087  1
  Se  Se236  1  0.91646516  0.08479803  0.70046647  1
  Se  Se237  1  0.91178523  0.41510080  0.19525455  1
  Se  Se238  1  0.92049820  0.41046074  0.70340351  1
  Se  Se239  1  0.91745180  0.75468544  0.18883462  1
  Se  Se240  1  0.91264163  0.75815841  0.70610797  1
  Se  Se241  1  0.08218474  0.23331646  0.20488846  1
  Se  Se242  1  0.08118868  0.25467491  0.69922396  1
  Se  Se243  1  0.08968056  0.57486566  0.18232038  1
  Se  Se244  1  0.07923849  0.59399639  0.69911967  1
  Se  Se245  1  0.09417218  0.90556627  0.19635298  1
  Se  Se246  1  0.09962540  0.90980252  0.69916737  1
  Se  Se247  1  0.42380888  0.24556011  0.19567050  1
  Se  Se248  1  0.42539319  0.23196409  0.68717342  1
  Se  Se249  1  0.41138402  0.59182633  0.20331658  1
  Se  Se250  1  0.41096675  0.58233735  0.69570512  1
  Se  Se251  1  0.41655102  0.92119360  0.20300735  1
  Se  Se252  1  0.42075956  0.91927053  0.68603106  1
  Se  Se253  1  0.75470002  0.24179215  0.18952690  1
  Se  Se254  1  0.74648803  0.23974691  0.68170506  1
  Se  Se255  1  0.75037131  0.58760549  0.19474902  1
  Se  Se256  1  0.75343559  0.57178316  0.70350635  1
  Se  Se257  1  0.75296079  0.91891282  0.19109672  1
  Se  Se258  1  0.75954738  0.90172075  0.71081026  1
