# generated using pymatgen
data_In86Cu29Se144
_symmetry_space_group_name_H-M   'P 1'
_cell_length_a   17.57802165
_cell_length_b   17.57744708
_cell_length_c   23.43246119
_cell_angle_alpha   89.95624136
_cell_angle_beta   90.00774979
_cell_angle_gamma   90.00902685
_symmetry_Int_Tables_number   1
_chemical_formula_structural   In86Cu29Se144
_chemical_formula_sum   'In86 Cu29 Se144'
_cell_volume   7240.08332557
_cell_formula_units_Z   1
loop_
 _symmetry_equiv_pos_site_id
 _symmetry_equiv_pos_as_xyz
  1  'x, y, z'
loop_
 _atom_site_type_symbol
 _atom_site_label
 _atom_site_symmetry_multiplicity
 _atom_site_fract_x
 _atom_site_fract_y
 _atom_site_fract_z
 _atom_site_occupancy
  In  In0  1  0.00610944  0.17529962  0.12889646  1
  In  In1  1  0.00355612  0.17242329  0.62736441  1
  In  In2  1  0.00165092  0.50266167  0.12907063  1
  In  In3  1  0.00795722  0.49573627  0.62839164  1
  In  In4  1  0.01140795  0.82406344  0.13537739  1
  In  In5  1  -0.02433255  0.82272653  0.60023421  1
  In  In6  1  0.33058164  0.16972833  0.13550412  1
  In  In7  1  0.34031460  0.16530447  0.62516697  1
  In  In8  1  0.32497346  0.49211442  0.13130130  1
  In  In9  1  0.32361476  0.49339713  0.61245814  1
  In  In10  1  0.33213381  0.84658786  0.14128186  1
  In  In11  1  0.33972376  0.81619038  0.60986662  1
  In  In12  1  0.65976261  0.16415933  0.11928215  1
  In  In13  1  0.65767844  0.17244960  0.62621257  1
  In  In14  1  0.65822886  0.49463974  0.11446711  1
  In  In15  1  0.67442944  0.50642487  0.62691441  1
  In  In16  1  0.67353035  0.84018915  0.12961700  1
  In  In17  1  0.65951817  0.82249735  0.61487101  1
  In  In18  1  0.16630939  0.00194892  0.35911377  1
  In  In19  1  0.18036100  0.00398763  0.88292133  1
  In  In20  1  0.19146297  0.36279834  0.33234908  1
  In  In21  1  0.16785051  0.33719199  0.87995831  1
  In  In22  1  0.16217039  0.65731984  0.37242759  1
  In  In23  1  0.15030188  0.66465489  0.87193705  1
  In  In24  1  0.50384866  -0.00168074  0.37096326  1
  In  In25  1  0.50599242  0.00326770  0.88214890  1
  In  In26  1  0.48002260  0.34798447  0.38546955  1
  In  In27  1  0.49146515  0.33776447  0.88086795  1
  In  In28  1  0.47886934  0.68045446  0.39006586  1
  In  In29  1  0.49424012  0.65205579  0.87204361  1
  In  In30  1  0.83088537  0.00073192  0.37248024  1
  In  In31  1  0.83968171  0.00633600  0.88109253  1
  In  In32  1  0.83779257  0.32518409  0.37383741  1
  In  In33  1  0.85250957  0.32034326  0.88333955  1
  In  In34  1  0.85598770  0.67389581  0.38240640  1
  In  In35  1  0.82992717  0.66522227  0.86765060  1
  In  In36  1  0.01351276  0.17910270  0.35905827  1
  In  In37  1  -0.00626026  0.18013979  0.88746140  1
  In  In38  1  0.02527771  0.52131175  0.35038531  1
  In  In39  1  0.00163451  0.49771276  0.87874415  1
  In  In40  1  -0.00497739  0.83488662  0.37802741  1
  In  In41  1  0.00603556  0.82541008  0.87298703  1
  In  In42  1  0.33081812  0.17789760  0.36071699  1
  In  In43  1  0.31911026  0.18342875  0.89157738  1
  In  In44  1  0.32799235  0.50536999  0.36957010  1
  In  In45  1  0.34468998  0.48783443  0.88403536  1
  In  In46  1  0.35208447  0.83591010  0.36216743  1
  In  In47  1  0.34136171  0.83876072  0.87751383  1
  In  In48  1  0.66274388  0.14872501  0.36794557  1
  In  In49  1  0.66971478  0.16606007  0.88366850  1
  In  In50  1  0.65389725  0.49039164  0.37571436  1
  In  In51  1  0.66253896  0.50454211  0.87482989  1
  In  In52  1  0.65747189  0.84501864  0.37763738  1
  In  In53  1  0.67671860  0.82957560  0.87217813  1
  In  In54  1  0.15262487  0.01969450  0.15009019  1
  In  In55  1  0.15971750  0.00737466  0.61888020  1
  In  In56  1  0.16621482  0.33702427  0.13475106  1
  In  In57  1  0.15933355  0.34177088  0.63204312  1
  In  In58  1  0.18248076  0.64337037  0.14674309  1
  In  In59  1  0.17008959  0.64069977  0.61729673  1
  In  In60  1  0.47526335  0.02335692  0.15352110  1
  In  In61  1  0.50076465  -0.00063201  0.61326295  1
  In  In62  1  0.49124013  0.32677632  0.12422602  1
  In  In63  1  0.48447229  0.32113512  0.61981005  1
  In  In64  1  0.49606810  0.65536707  0.12688332  1
  In  In65  1  0.50640868  0.66945403  0.61052016  1
  In  In66  1  0.82807317  0.00803045  0.12962849  1
  In  In67  1  0.84315231  -0.01332925  0.61971250  1
  In  In68  1  0.84248297  0.34700492  0.11419607  1
  In  In69  1  0.83958479  0.33814086  0.62957903  1
  In  In70  1  0.84322758  0.66163623  0.12720349  1
  In  In71  1  0.82618163  0.66597428  0.62912527  1
  In  In72  1  0.66587181  -0.00061791  0.75931439  1
  In  In73  1  0.16718587  0.83378849  0.00234306  1
  In  In74  1  0.17082378  0.83345198  0.48259188  1
  In  In75  1  0.32894855  0.65195000  0.73736178  1
  In  In76  1  0.50015646  0.83425734  0.01180242  1
  In  In77  1  0.83484733  0.49721931  0.50240353  1
  In  In78  1  0.66653830  0.32827390  0.24456240  1
  In  In79  1  0.16442506  0.17050541  0.48982054  1
  In  In80  1  -0.00190792  0.00316331  0.74950117  1
  In  In81  1  0.66593409  0.67149450  0.25601211  1
  In  In82  1  0.67477972  0.33693716  0.75174557  1
  In  In83  1  0.83320551  0.83594554  0.00291824  1
  In  In84  1  0.83050138  0.16307880  0.49961896  1
  In  In85  1  0.33301391  -0.00025042  0.74886925  1
  Cu  Cu86  1  0.83509245  0.50081237  0.24677700  1
  Cu  Cu87  1  0.83798921  0.83852778  0.25260454  1
  Cu  Cu88  1  0.66794411  0.33862088  -0.00373337  1
  Cu  Cu89  1  0.00936256  0.34397392  0.49668182  1
  Cu  Cu90  1  0.33131929  0.01609136  0.01863558  1
  Cu  Cu91  1  0.32060984  0.33217069  0.49026504  1
  Cu  Cu92  1  0.15505541  0.82917034  0.74337845  1
  Cu  Cu93  1  0.84697695  0.49875393  0.75275379  1
  Cu  Cu94  1  0.49235982  0.17105243  0.75389798  1
  Cu  Cu95  1  0.66543059  -0.00543892  0.49463178  1
  Cu  Cu96  1  0.00372198  0.00933734  0.01140706  1
  Cu  Cu97  1  0.65289531  0.32329584  0.50032045  1
  Cu  Cu98  1  0.66195950  0.66142773  -0.00368235  1
  Cu  Cu99  1  0.83870897  0.16605176  0.24600624  1
  Cu  Cu100  1  0.50568610  0.49679057  0.74958227  1
  Cu  Cu101  1  0.65923081  0.01459124  0.00867831  1
  Cu  Cu102  1  0.48382622  0.49990810  0.25265989  1
  Cu  Cu103  1  0.50359724  0.17363990  0.25318946  1
  Cu  Cu104  1  0.33754485  -0.00400105  0.49100341  1
  Cu  Cu105  1  0.01109535  0.33546342  0.00538129  1
  Cu  Cu106  1  0.49988165  0.82020077  0.73906871  1
  Cu  Cu107  1  0.16767267  0.82860040  0.25793258  1
  Cu  Cu108  1  0.16618831  0.49610695  0.75249671  1
  Cu  Cu109  1  0.16260734  0.17774304  0.75843120  1
  Cu  Cu110  1  0.32413242  0.65786404  0.00700961  1
  Cu  Cu111  1  0.67364941  0.66320710  0.49731345  1
  Cu  Cu112  1  0.00328706  0.65414499  0.00435190  1
  Cu  Cu113  1  0.82974402  0.82530484  0.74393457  1
  Cu  Cu114  1  0.33240341  0.33476069  0.00938736  1
  Se  Se115  1  0.09197200  0.08648037  0.06263242  1
  Se  Se116  1  0.06841989  0.08272124  0.55070179  1
  Se  Se117  1  0.08755218  0.41951026  0.06221366  1
  Se  Se118  1  0.09147523  0.42296286  0.55366890  1
  Se  Se119  1  0.08441048  0.73745960  0.06154000  1
  Se  Se120  1  0.09426468  0.75004463  0.55885924  1
  Se  Se121  1  0.42433257  0.09511800  0.06501102  1
  Se  Se122  1  0.41101593  0.08233535  0.55092551  1
  Se  Se123  1  0.41569734  0.42111431  0.05992787  1
  Se  Se124  1  0.40877578  0.40602804  0.54896973  1
  Se  Se125  1  0.40042179  0.74600516  0.06380664  1
  Se  Se126  1  0.42411101  0.74625270  0.53920738  1
  Se  Se127  1  0.75650188  0.09025038  0.05419329  1
  Se  Se128  1  0.73878438  0.07387590  0.56173074  1
  Se  Se129  1  0.75139854  0.42365344  0.04790316  1
  Se  Se130  1  0.74002508  0.40082706  0.55766324  1
  Se  Se131  1  0.74109030  0.74081927  0.05835568  1
  Se  Se132  1  0.75554119  0.74660372  0.55171337  1
  Se  Se133  1  0.25099637  0.25362349  0.06529865  1
  Se  Se134  1  0.24855339  0.25394628  0.56046406  1
  Se  Se135  1  0.24159151  0.57563922  0.05954029  1
  Se  Se136  1  0.27161015  0.59921778  0.54643026  1
  Se  Se137  1  0.24854525  0.92455056  0.06701455  1
  Se  Se138  1  0.25529075  0.92383920  0.55573183  1
  Se  Se139  1  0.58579012  0.25954971  0.05542371  1
  Se  Se140  1  0.57126345  0.23815093  0.55242803  1
  Se  Se141  1  0.57513054  0.58314252  0.05018686  1
  Se  Se142  1  0.59372141  0.57742793  0.55153367  1
  Se  Se143  1  0.58470255  0.93013621  0.06836541  1
  Se  Se144  1  0.58077622  0.91162974  0.54859101  1
  Se  Se145  1  0.92385502  0.25132487  0.05530242  1
  Se  Se146  1  0.92483468  0.26187996  0.55257095  1
  Se  Se147  1  0.91237912  0.57584685  0.05430869  1
  Se  Se148  1  0.92247248  0.58625523  0.56241888  1
  Se  Se149  1  0.92715851  0.91766858  0.06553705  1
  Se  Se150  1  0.92136252  0.93085676  0.53894607  1
  Se  Se151  1  0.08570423  0.26841898  0.43194473  1
  Se  Se152  1  0.09160331  0.24981874  0.95118926  1
  Se  Se153  1  0.07492849  0.58214675  0.44254040  1
  Se  Se154  1  0.08988777  0.57802311  0.94817492  1
  Se  Se155  1  0.08058609  0.93574008  0.43811351  1
  Se  Se156  1  0.07260272  0.92669747  0.94307458  1
  Se  Se157  1  0.40558090  0.24399138  0.44311298  1
  Se  Se158  1  0.41854801  0.25286121  0.95433792  1
  Se  Se159  1  0.43245070  0.55846426  0.43815393  1
  Se  Se160  1  0.41526856  0.58554117  0.95025219  1
  Se  Se161  1  0.42249006  0.91318053  0.44115712  1
  Se  Se162  1  0.40592274  0.93212581  0.95384450  1
  Se  Se163  1  0.73668004  0.25121031  0.43898320  1
  Se  Se164  1  0.75319363  0.25092007  0.94879667  1
  Se  Se165  1  0.74863697  0.58322447  0.43378199  1
  Se  Se166  1  0.75033376  0.58704040  0.94074942  1
  Se  Se167  1  0.75469478  0.91587592  0.44431349  1
  Se  Se168  1  0.73615679  0.92938071  0.94686876  1
  Se  Se169  1  0.25608300  0.07671947  0.43406318  1
  Se  Se170  1  0.24570609  0.08940126  0.95799174  1
  Se  Se171  1  0.24114426  0.41083729  0.43005180  1
  Se  Se172  1  0.25175664  0.41689614  0.95128713  1
  Se  Se173  1  0.26319635  0.74443921  0.42856776  1
  Se  Se174  1  0.25735324  0.74277969  0.93897641  1
  Se  Se175  1  0.58232886  0.08161680  0.44499905  1
  Se  Se176  1  0.57620945  0.09336905  0.95114384  1
  Se  Se177  1  0.57673346  0.41744188  0.45220569  1
  Se  Se178  1  0.58230119  0.42026190  0.94340576  1
  Se  Se179  1  0.59024981  0.74618363  0.44384602  1
  Se  Se180  1  0.58382641  0.74892216  0.93942337  1
  Se  Se181  1  0.92408807  0.09451923  0.43074006  1
  Se  Se182  1  0.91738974  0.08467718  0.95304003  1
  Se  Se183  1  0.92186372  0.41575895  0.43648245  1
  Se  Se184  1  0.92322734  0.41442513  0.95044814  1
  Se  Se185  1  0.92843271  0.75311989  0.45649145  1
  Se  Se186  1  0.92510720  0.74221010  0.94587455  1
  Se  Se187  1  0.22699575  0.23080184  0.29143972  1
  Se  Se188  1  0.25332449  0.25524179  0.80907642  1
  Se  Se189  1  0.23596342  0.57394115  0.29917164  1
  Se  Se190  1  0.24872360  0.57621668  0.81349435  1
  Se  Se191  1  0.25729347  0.91581120  0.30049802  1
  Se  Se192  1  0.23868538  0.90386128  0.80616843  1
  Se  Se193  1  0.57828875  0.25599980  0.31686857  1
  Se  Se194  1  0.58146363  0.24578816  0.81012108  1
  Se  Se195  1  0.57319976  0.57674755  0.30779889  1
  Se  Se196  1  0.58466914  0.58514604  0.80039543  1
  Se  Se197  1  0.59043700  0.92295877  0.30022750  1
  Se  Se198  1  0.56800881  0.90153956  0.80847484  1
  Se  Se199  1  0.91553417  0.25578110  0.29713550  1
  Se  Se200  1  0.92015514  0.24254332  0.80535680  1
  Se  Se201  1  0.91065088  0.58984632  0.30150333  1
  Se  Se202  1  0.92511826  0.58582208  0.80718128  1
  Se  Se203  1  0.92089919  0.92141708  0.30596587  1
  Se  Se204  1  0.90515140  0.90669737  0.80843894  1
  Se  Se205  1  0.08511469  0.08590548  0.29245772  1
  Se  Se206  1  0.08996072  0.08604825  0.81564957  1
  Se  Se207  1  0.05662183  0.39768057  0.29758651  1
  Se  Se208  1  0.08376957  0.41478652  0.80828124  1
  Se  Se209  1  0.07991720  0.75188095  0.31114018  1
  Se  Se210  1  0.07473960  0.74445591  0.79690527  1
  Se  Se211  1  0.42126565  0.08714323  0.30448537  1
  Se  Se212  1  0.41646958  0.08666958  0.81518689  1
  Se  Se213  1  0.40588070  0.40905778  0.30228752  1
  Se  Se214  1  0.42006678  0.41774242  0.80398914  1
  Se  Se215  1  0.42164963  0.73616976  0.29898594  1
  Se  Se216  1  0.41443363  0.74931489  0.80240786  1
  Se  Se217  1  0.75430391  0.08345393  0.29819874  1
  Se  Se218  1  0.76078629  0.09304899  0.80878109  1
  Se  Se219  1  0.75455997  0.42259995  0.30651279  1
  Se  Se220  1  0.76521591  0.42029918  0.81508011  1
  Se  Se221  1  0.76068502  0.75719309  0.31512726  1
  Se  Se222  1  0.74416044  0.74539435  0.79800193  1
  Se  Se223  1  0.28279357  0.05195147  0.19385778  1
  Se  Se224  1  0.23629208  0.09386480  0.69481902  1
  Se  Se225  1  0.23558698  0.42760423  0.20703147  1
  Se  Se226  1  0.25296413  0.42209876  0.69450504  1
  Se  Se227  1  0.25249685  0.75097906  0.20151389  1
  Se  Se228  1  0.24264226  0.75463472  0.68411640  1
  Se  Se229  1  0.59087505  0.09219755  0.20105170  1
  Se  Se230  1  0.57024400  0.08519518  0.69612606  1
  Se  Se231  1  0.57335145  0.42583652  0.19401432  1
  Se  Se232  1  0.57898385  0.41367556  0.68557511  1
  Se  Se233  1  0.57868696  0.75300461  0.18895214  1
  Se  Se234  1  0.58640448  0.73941450  0.68940880  1
  Se  Se235  1  0.92261832  0.08380566  0.19302651  1
  Se  Se236  1  0.90522896  0.08964512  0.68874159  1
  Se  Se237  1  0.91655185  0.41486017  0.19524074  1
  Se  Se238  1  0.92539805  0.41269640  0.69832048  1
  Se  Se239  1  0.91292777  0.74980133  0.19760307  1
  Se  Se240  1  0.91977619  0.75260055  0.68858265  1
  Se  Se241  1  0.10839192  0.22996114  0.20072833  1
  Se  Se242  1  0.07935553  0.25373890  0.69925082  1
  Se  Se243  1  0.06074088  0.60279013  0.19820272  1
  Se  Se244  1  0.08750817  0.58255773  0.69826926  1
  Se  Se245  1  0.08223469  0.91297158  0.20545461  1
  Se  Se246  1  0.08061786  0.91393897  0.68383306  1
  Se  Se247  1  0.41586490  0.25598401  0.20285479  1
  Se  Se248  1  0.40816043  0.25093201  0.69993706  1
  Se  Se249  1  0.40644343  0.58455886  0.19653408  1
  Se  Se250  1  0.42886212  0.57060013  0.68144945  1
  Se  Se251  1  0.44053922  0.89901675  0.20416242  1
  Se  Se252  1  0.41934744  0.90707147  0.68538347  1
  Se  Se253  1  0.76038329  0.24717781  0.18307173  1
  Se  Se254  1  0.75855616  0.23958433  0.69208824  1
  Se  Se255  1  0.74579986  0.57506290  0.18932699  1
  Se  Se256  1  0.75655126  0.57662218  0.70158897  1
  Se  Se257  1  0.75284915  0.92006286  0.19986396  1
  Se  Se258  1  0.74848940  0.91182224  0.68931517  1
