# generated using pymatgen
data_In86Cu29Se144
_symmetry_space_group_name_H-M   'P 1'
_cell_length_a   17.68344420
_cell_length_b   17.68106897
_cell_length_c   23.52201914
_cell_angle_alpha   90.07997352
_cell_angle_beta   89.98743862
_cell_angle_gamma   89.99121755
_symmetry_Int_Tables_number   1
_chemical_formula_structural   In86Cu29Se144
_chemical_formula_sum   'In86 Cu29 Se144'
_cell_volume   7354.43874141
_cell_formula_units_Z   1
loop_
 _symmetry_equiv_pos_site_id
 _symmetry_equiv_pos_as_xyz
  1  'x, y, z'
loop_
 _atom_site_type_symbol
 _atom_site_label
 _atom_site_symmetry_multiplicity
 _atom_site_fract_x
 _atom_site_fract_y
 _atom_site_fract_z
 _atom_site_occupancy
  In  In0  1  0.00126713  0.16467294  0.13587024  1
  In  In1  1  -0.00239030  0.16310815  0.60935579  1
  In  In2  1  0.00061049  0.49898477  0.12933022  1
  In  In3  1  0.00483646  0.51503711  0.62147023  1
  In  In4  1  0.00434820  0.82637118  0.12938026  1
  In  In5  1  -0.03391230  0.86728211  0.66919100  1
  In  In6  1  0.33627675  0.15398127  0.12285203  1
  In  In7  1  0.32332877  0.15760903  0.61866634  1
  In  In8  1  0.34276340  0.51681604  0.11478762  1
  In  In9  1  0.34439174  0.51885388  0.62879766  1
  In  In10  1  0.32198498  0.83113823  0.11914407  1
  In  In11  1  0.34073635  0.83037349  0.64279917  1
  In  In12  1  0.67091392  0.17207927  0.12498119  1
  In  In13  1  0.65746142  0.16093223  0.61436918  1
  In  In14  1  0.65792942  0.50406683  0.13057091  1
  In  In15  1  0.66049642  0.51256890  0.62618277  1
  In  In16  1  0.65381025  0.82694826  0.12617127  1
  In  In17  1  0.66351452  0.84152466  0.62666584  1
  In  In18  1  0.16350263  0.01124451  0.38085397  1
  In  In19  1  0.16947200  -0.01624026  0.84773127  1
  In  In20  1  0.14919841  0.33141694  0.37573485  1
  In  In21  1  0.17261342  0.33284285  0.88476051  1
  In  In22  1  0.16906019  0.66855736  0.36827481  1
  In  In23  1  0.16538014  0.66261404  0.88205814  1
  In  In24  1  0.50121708  -0.00317331  0.38711529  1
  In  In25  1  0.50192940  0.00023876  0.86535941  1
  In  In26  1  0.50951628  0.32662726  0.37916067  1
  In  In27  1  0.49938832  0.33465055  0.88511166  1
  In  In28  1  0.49718967  0.66413553  0.38003190  1
  In  In29  1  0.47200707  0.63772931  0.84366206  1
  In  In30  1  0.84248120  -0.01626079  0.38801392  1
  In  In31  1  0.82880193  -0.02622103  0.85248029  1
  In  In32  1  0.83149662  0.33175896  0.37322508  1
  In  In33  1  0.83527532  0.32715363  0.87441825  1
  In  In34  1  0.83506468  0.67171188  0.37310237  1
  In  In35  1  0.83457826  0.68330508  0.85945034  1
  In  In36  1  -0.00189413  0.16177753  0.38104175  1
  In  In37  1  0.00962033  0.13447969  0.87182894  1
  In  In38  1  0.00247054  0.50579527  0.36612169  1
  In  In39  1  0.00186913  0.51646994  0.88095347  1
  In  In40  1  -0.00447546  0.82365609  0.37099355  1
  In  In41  1  0.02369457  0.84158363  0.85576049  1
  In  In42  1  0.33622818  0.16269596  0.38650799  1
  In  In43  1  0.33854503  0.17310316  0.87379826  1
  In  In44  1  0.33327302  0.51740253  0.37759826  1
  In  In45  1  0.32880591  0.49510303  0.88769621  1
  In  In46  1  0.34376706  0.83268408  0.38011179  1
  In  In47  1  0.30447671  0.79988133  0.82621260  1
  In  In48  1  0.66463547  0.17041757  0.38076314  1
  In  In49  1  0.66226059  0.14434674  0.86606501  1
  In  In50  1  0.66193532  0.49539755  0.37121378  1
  In  In51  1  0.65554438  0.50743250  0.88181010  1
  In  In52  1  0.67054779  0.82588183  0.38434225  1
  In  In53  1  0.61910168  0.79684239  0.81596198  1
  In  In54  1  0.16107513  -0.01059441  0.12058225  1
  In  In55  1  0.15230821  0.00516042  0.64897352  1
  In  In56  1  0.14887374  0.33448639  0.13129386  1
  In  In57  1  0.16846467  0.33264107  0.61793079  1
  In  In58  1  0.16869428  0.66988196  0.12158022  1
  In  In59  1  0.13762281  0.70954357  0.66400976  1
  In  In60  1  0.49118935  -0.00473469  0.11575509  1
  In  In61  1  0.49786764  0.00060700  0.63113985  1
  In  In62  1  0.50312562  0.33837719  0.12338646  1
  In  In63  1  0.50033367  0.34464457  0.61557957  1
  In  In64  1  0.50600484  0.66118138  0.12771245  1
  In  In65  1  0.49952298  0.67101865  0.63363508  1
  In  In66  1  0.83765147  0.00848721  0.12346172  1
  In  In67  1  0.82780728  0.00172329  0.61691834  1
  In  In68  1  0.83352579  0.32935386  0.13846018  1
  In  In69  1  0.84184774  0.31966755  0.61053278  1
  In  In70  1  0.82908732  0.66841825  0.13460158  1
  In  In71  1  0.80377895  0.70091658  0.65487618  1
  In  In72  1  0.49809294  0.82535652  -0.02438390  1
  In  In73  1  0.83565719  0.83840883  -0.00624123  1
  In  In74  1  0.33314479  0.33697307  0.24883597  1
  In  In75  1  0.16723541  0.83639687  0.51660751  1
  In  In76  1  0.66776242  0.33772295  0.73856475  1
  In  In77  1  0.16562075  0.16635931  0.00213504  1
  In  In78  1  0.33226819  0.32874162  0.75357566  1
  In  In79  1  0.83108633  0.50293744  0.01053749  1
  In  In80  1  0.17937330  0.50703810  0.50663149  1
  In  In81  1  0.66858356  -0.00407990  0.25208126  1
  In  In82  1  0.32834352  -0.00658234  0.24681309  1
  In  In83  1  0.83219497  0.16027639  -0.00962964  1
  In  In84  1  0.83302750  0.50393093  0.49258430  1
  In  In85  1  -0.00067164  0.33592365  0.74342164  1
  Cu  Cu86  1  0.33486773  0.00625859  -0.00724526  1
  Cu  Cu87  1  -0.00483641  0.66891262  0.49951184  1
  Cu  Cu88  1  0.16503609  0.83183818  0.24623969  1
  Cu  Cu89  1  0.00855365  0.67827235  -0.00033514  1
  Cu  Cu90  1  0.83479122  0.83547149  0.25518059  1
  Cu  Cu91  1  0.66520445  0.00270241  0.50326312  1
  Cu  Cu92  1  0.17167256  0.49468986  0.75611182  1
  Cu  Cu93  1  0.65818570  0.32853940  0.00322889  1
  Cu  Cu94  1  0.66285909  -0.00650276  -0.01551802  1
  Cu  Cu95  1  0.49942605  0.81953549  0.25410262  1
  Cu  Cu96  1  0.83573872  0.16173470  0.25669518  1
  Cu  Cu97  1  0.50562957  0.17524507  0.74382396  1
  Cu  Cu98  1  0.33400988  0.33626061  0.00502734  1
  Cu  Cu99  1  0.65725277  0.67366792  0.50757621  1
  Cu  Cu100  1  0.15974626  0.16838060  0.25789827  1
  Cu  Cu101  1  0.66430171  0.66907812  -0.00406976  1
  Cu  Cu102  1  0.33597128  0.33767593  0.49958123  1
  Cu  Cu103  1  -0.00404447  0.33075546  0.00596566  1
  Cu  Cu104  1  0.16870772  0.50648278  0.24639546  1
  Cu  Cu105  1  0.50100926  0.50056185  0.24954882  1
  Cu  Cu106  1  0.84597265  0.16434946  0.74142755  1
  Cu  Cu107  1  0.33838782  0.67528149  -0.01219430  1
  Cu  Cu108  1  0.66671251  0.33800263  0.49548237  1
  Cu  Cu109  1  0.33144282  0.67261833  0.51140457  1
  Cu  Cu110  1  0.00314785  -0.00978220  0.51030888  1
  Cu  Cu111  1  0.50373652  0.16181703  0.25530667  1
  Cu  Cu112  1  0.83243387  0.50127799  0.25289453  1
  Cu  Cu113  1  0.33946210  -0.00514674  0.50878362  1
  Cu  Cu114  1  0.83237723  0.49566531  0.74990216  1
  Se  Se115  1  0.07001883  0.07867548  0.05758474  1
  Se  Se116  1  0.09304267  0.06965723  0.55976591  1
  Se  Se117  1  0.07797937  0.41594190  0.05653079  1
  Se  Se118  1  0.07707901  0.41714905  0.55377007  1
  Se  Se119  1  0.09041527  0.76042827  0.05417365  1
  Se  Se120  1  0.07636622  0.74065125  0.56402302  1
  Se  Se121  1  0.41860173  0.08521209  0.04776681  1
  Se  Se122  1  0.42144241  0.08462320  0.55749541  1
  Se  Se123  1  0.42029298  0.41948191  0.05526676  1
  Se  Se124  1  0.40801119  0.42721580  0.55538904  1
  Se  Se125  1  0.41792790  0.74855797  0.05491138  1
  Se  Se126  1  0.41446452  0.75430917  0.56542425  1
  Se  Se127  1  0.73780519  0.07130257  0.05148777  1
  Se  Se128  1  0.75224616  0.09027906  0.54813340  1
  Se  Se129  1  0.74366138  0.40352043  0.06331957  1
  Se  Se130  1  0.74430242  0.41604200  0.55916867  1
  Se  Se131  1  0.74491637  0.74638766  0.05687654  1
  Se  Se132  1  0.74566378  0.75076998  0.56075166  1
  Se  Se133  1  0.25327682  0.25712321  0.06633657  1
  Se  Se134  1  0.25336082  0.25315426  0.55104426  1
  Se  Se135  1  0.25685885  0.59718340  0.04881997  1
  Se  Se136  1  0.24569587  0.60426055  0.57320922  1
  Se  Se137  1  0.25521771  0.92498270  0.05098098  1
  Se  Se138  1  0.25889703  0.92422893  0.57368993  1
  Se  Se139  1  0.57955655  0.24400819  0.05818001  1
  Se  Se140  1  0.58333327  0.25771664  0.55183531  1
  Se  Se141  1  0.58781711  0.58589053  0.05428177  1
  Se  Se142  1  0.57486636  0.58823898  0.55788357  1
  Se  Se143  1  0.58592703  0.91478101  0.04980085  1
  Se  Se144  1  0.58057703  0.92319943  0.55810661  1
  Se  Se145  1  0.91497127  0.24794953  0.06098639  1
  Se  Se146  1  0.93185078  0.25672514  0.54052649  1
  Se  Se147  1  0.92444250  0.60044361  0.05991558  1
  Se  Se148  1  0.91104046  0.59378986  0.55884833  1
  Se  Se149  1  0.92348902  0.92125886  0.05951448  1
  Se  Se150  1  0.92461704  0.90801353  0.56703069  1
  Se  Se151  1  0.09585296  0.23406854  0.44446928  1
  Se  Se152  1  0.06702153  0.24891885  0.94006216  1
  Se  Se153  1  0.08146629  0.59055203  0.44243002  1
  Se  Se154  1  0.08633012  0.58151004  0.95601617  1
  Se  Se155  1  0.08066621  0.91477008  0.44356982  1
  Se  Se156  1  0.09622045  0.92007253  0.92979222  1
  Se  Se157  1  0.41909477  0.25270936  0.44724617  1
  Se  Se158  1  0.41259107  0.25197048  0.94940016  1
  Se  Se159  1  0.41082944  0.58938459  0.45342460  1
  Se  Se160  1  0.42280517  0.58666908  0.94035957  1
  Se  Se161  1  0.41913395  0.91180101  0.45333932  1
  Se  Se162  1  0.40677316  0.92319441  0.93032831  1
  Se  Se163  1  0.75130654  0.25367294  0.44575052  1
  Se  Se164  1  0.73532802  0.25261428  0.93784948  1
  Se  Se165  1  0.73551478  0.59597396  0.44179713  1
  Se  Se166  1  0.75564450  0.59263719  0.94074651  1
  Se  Se167  1  0.74672088  0.91351652  0.45264926  1
  Se  Se168  1  0.74039445  0.90959613  0.92871567  1
  Se  Se169  1  0.25641900  0.07464227  0.45151159  1
  Se  Se170  1  0.24854168  0.08238074  0.93499441  1
  Se  Se171  1  0.25383444  0.41300263  0.43682006  1
  Se  Se172  1  0.24377475  0.41635075  0.95726789  1
  Se  Se173  1  0.25117520  0.74697189  0.44636763  1
  Se  Se174  1  0.26225093  0.75691161  0.92777340  1
  Se  Se175  1  0.58315057  0.08634532  0.44865255  1
  Se  Se176  1  0.57707873  0.08284116  0.94256505  1
  Se  Se177  1  0.58118056  0.42135833  0.44562772  1
  Se  Se178  1  0.58317443  0.41916218  0.95103293  1
  Se  Se179  1  0.57579039  0.75233057  0.44830084  1
  Se  Se180  1  0.59795632  0.74250397  0.92463054  1
  Se  Se181  1  0.92371489  0.07224233  0.45158312  1
  Se  Se182  1  0.91156157  0.06045068  0.93384278  1
  Se  Se183  1  0.92744122  0.41617717  0.43720470  1
  Se  Se184  1  0.91784214  0.41179309  0.94492446  1
  Se  Se185  1  0.91335848  0.75217799  0.44583110  1
  Se  Se186  1  0.92672764  0.74934482  0.93535503  1
  Se  Se187  1  0.25049468  0.24287195  0.31168378  1
  Se  Se188  1  0.23383374  0.24312716  0.80858084  1
  Se  Se189  1  0.25271843  0.58571021  0.30121542  1
  Se  Se190  1  0.24933630  0.57371696  0.81586591  1
  Se  Se191  1  0.24217531  0.90844291  0.31275231  1
  Se  Se192  1  0.28557514  0.93836887  0.78970423  1
  Se  Se193  1  0.58603164  0.24691021  0.30536459  1
  Se  Se194  1  0.58292042  0.25266227  0.80811343  1
  Se  Se195  1  0.57895423  0.58387326  0.30807695  1
  Se  Se196  1  0.59625176  0.58537819  0.80200070  1
  Se  Se197  1  0.57482942  0.90896493  0.31077434  1
  Se  Se198  1  0.61469633  0.94329142  0.80884668  1
  Se  Se199  1  0.91771428  0.24556778  0.31017071  1
  Se  Se200  1  0.91948837  0.23924941  0.80875815  1
  Se  Se201  1  0.91486773  0.58819886  0.30335222  1
  Se  Se202  1  0.91135921  0.57640685  0.80775165  1
  Se  Se203  1  0.91826043  0.91769361  0.30704328  1
  Se  Se204  1  0.93216970  0.91333131  0.78738992  1
  Se  Se205  1  0.07936619  0.08001110  0.30758056  1
  Se  Se206  1  0.08673693  0.07867399  0.79054312  1
  Se  Se207  1  0.08892436  0.42214895  0.30140981  1
  Se  Se208  1  0.08573706  0.41847312  0.81419167  1
  Se  Se209  1  0.08328412  0.74846315  0.30192823  1
  Se  Se210  1  0.06707662  0.71716084  0.81003009  1
  Se  Se211  1  0.42017068  0.08068683  0.30992416  1
  Se  Se212  1  0.42462017  0.09883282  0.80392554  1
  Se  Se213  1  0.42083764  0.42302546  0.31263737  1
  Se  Se214  1  0.42040712  0.41870768  0.81308920  1
  Se  Se215  1  0.41210916  0.74437210  0.30878128  1
  Se  Se216  1  0.45129953  0.77647317  0.81509176  1
  Se  Se217  1  0.75599430  0.08035100  0.31635990  1
  Se  Se218  1  0.76429990  0.08719315  0.80045887  1
  Se  Se219  1  0.75066071  0.41634217  0.30554701  1
  Se  Se220  1  0.75273496  0.41847226  0.81132998  1
  Se  Se221  1  0.74831367  0.75451234  0.30687873  1
  Se  Se222  1  0.75940081  0.75818588  0.78471825  1
  Se  Se223  1  0.23645643  0.09024429  0.19303000  1
  Se  Se224  1  0.24749358  0.09497696  0.69858979  1
  Se  Se225  1  0.24777183  0.42564355  0.18521322  1
  Se  Se226  1  0.24745717  0.42076345  0.68999889  1
  Se  Se227  1  0.25113470  0.75099429  0.19377768  1
  Se  Se228  1  0.26708661  0.73981212  0.71307823  1
  Se  Se229  1  0.57473474  0.08011432  0.18936669  1
  Se  Se230  1  0.58752534  0.08826650  0.69373824  1
  Se  Se231  1  0.58199779  0.41363357  0.19782015  1
  Se  Se232  1  0.56855012  0.42985874  0.69415622  1
  Se  Se233  1  0.58656325  0.74274661  0.19963720  1
  Se  Se234  1  0.58156627  0.75989229  0.69753297  1
  Se  Se235  1  0.91504105  0.07972577  0.19947672  1
  Se  Se236  1  0.92094649  0.08332228  0.68220184  1
  Se  Se237  1  0.91688739  0.41905864  0.19851509  1
  Se  Se238  1  0.90659759  0.42211198  0.68334264  1
  Se  Se239  1  0.91521176  0.75216926  0.19793872  1
  Se  Se240  1  0.93979327  0.72471092  0.68798374  1
  Se  Se241  1  0.07731784  0.25210369  0.20451815  1
  Se  Se242  1  0.08567191  0.24575457  0.68453086  1
  Se  Se243  1  0.08539446  0.58743876  0.19097820  1
  Se  Se244  1  0.09059767  0.57405037  0.69832167  1
  Se  Se245  1  0.08251251  0.91792091  0.19618709  1
  Se  Se246  1  0.11321682  0.87257693  0.68703231  1
  Se  Se247  1  0.42134323  0.23814353  0.19363815  1
  Se  Se248  1  0.42213790  0.25107598  0.68496121  1
  Se  Se249  1  0.41837001  0.58300161  0.19553996  1
  Se  Se250  1  0.41800908  0.59194552  0.70595741  1
  Se  Se251  1  0.42516732  0.90284537  0.19123624  1
  Se  Se252  1  0.41038679  0.93164923  0.70484386  1
  Se  Se253  1  0.75015279  0.24106061  0.20155610  1
  Se  Se254  1  0.75991129  0.24289930  0.68547387  1
  Se  Se255  1  0.74723168  0.58089755  0.19756468  1
  Se  Se256  1  0.74687615  0.57866501  0.69976864  1
  Se  Se257  1  0.75643987  0.90754898  0.18738938  1
  Se  Se258  1  0.75889281  0.91620033  0.68999741  1
