# generated using pymatgen
data_In86Cu29Se144
_symmetry_space_group_name_H-M   'P 1'
_cell_length_a   17.58182025
_cell_length_b   17.58311227
_cell_length_c   23.42564146
_cell_angle_alpha   89.98267769
_cell_angle_beta   89.99967890
_cell_angle_gamma   89.95591814
_symmetry_Int_Tables_number   1
_chemical_formula_structural   In86Cu29Se144
_chemical_formula_sum   'In86 Cu29 Se144'
_cell_volume   7241.87340167
_cell_formula_units_Z   1
loop_
 _symmetry_equiv_pos_site_id
 _symmetry_equiv_pos_as_xyz
  1  'x, y, z'
loop_
 _atom_site_type_symbol
 _atom_site_label
 _atom_site_symmetry_multiplicity
 _atom_site_fract_x
 _atom_site_fract_y
 _atom_site_fract_z
 _atom_site_occupancy
  In  In0  1  -0.01462745  0.17215400  0.12324618  1
  In  In1  1  0.00620206  0.17611973  0.61640490  1
  In  In2  1  0.01298742  0.50046418  0.12332879  1
  In  In3  1  0.00649389  0.49459733  0.63039369  1
  In  In4  1  -0.01038003  0.83531971  0.12261804  1
  In  In5  1  -0.01075547  0.82444569  0.63263405  1
  In  In6  1  0.33845482  0.16519807  0.13743513  1
  In  In7  1  0.33171013  0.16729136  0.62586975  1
  In  In8  1  0.34131031  0.50146679  0.13048487  1
  In  In9  1  0.33200669  0.49695998  0.61943241  1
  In  In10  1  0.34344785  0.82353795  0.12899575  1
  In  In11  1  0.34218496  0.83321441  0.63576533  1
  In  In12  1  0.67809843  0.16136737  0.13538961  1
  In  In13  1  0.67987301  0.16696159  0.63583137  1
  In  In14  1  0.65185015  0.50368937  0.12328807  1
  In  In15  1  0.66296870  0.49754114  0.63783131  1
  In  In16  1  0.67153913  0.84388425  0.11211571  1
  In  In17  1  0.66412276  0.83296830  0.65588679  1
  In  In18  1  0.18885487  0.00971983  0.37865647  1
  In  In19  1  0.17047448  -0.00917783  0.87084305  1
  In  In20  1  0.17595014  0.32204927  0.38475754  1
  In  In21  1  0.16539196  0.33568231  0.86637176  1
  In  In22  1  0.16541557  0.66491495  0.37390015  1
  In  In23  1  0.16538977  0.65944320  0.86848522  1
  In  In24  1  0.49929377  -0.00246117  0.36711489  1
  In  In25  1  0.49912160  -0.00848920  0.86385716  1
  In  In26  1  0.51144344  0.34410324  0.37615709  1
  In  In27  1  0.50620642  0.34064248  0.87113361  1
  In  In28  1  0.49126959  0.67230243  0.37864267  1
  In  In29  1  0.49653407  0.66666297  0.87477557  1
  In  In30  1  0.82983111  0.01368775  0.37493468  1
  In  In31  1  0.81895836  0.00595986  0.87449548  1
  In  In32  1  0.81943491  0.32609714  0.37253005  1
  In  In33  1  0.80808070  0.31750475  0.84100082  1
  In  In34  1  0.84456579  0.65646138  0.37285450  1
  In  In35  1  0.83347201  0.67579769  0.86222255  1
  In  In36  1  -0.00751926  0.17421404  0.38446710  1
  In  In37  1  -0.02774670  0.16294643  0.86613647  1
  In  In38  1  0.00386420  0.51402560  0.37484340  1
  In  In39  1  -0.01577029  0.49377734  0.85553644  1
  In  In40  1  0.01060658  0.82449018  0.37128340  1
  In  In41  1  -0.00152930  0.81823763  0.87286719  1
  In  In42  1  0.32564512  0.15896986  0.37469691  1
  In  In43  1  0.33374529  0.16732946  0.86581426  1
  In  In44  1  0.33759958  0.49880167  0.38044459  1
  In  In45  1  0.34698716  0.50911942  0.86899392  1
  In  In46  1  0.33492716  0.83643396  0.36297362  1
  In  In47  1  0.35080334  0.84269929  0.85775930  1
  In  In48  1  0.67043941  0.16663122  0.37010440  1
  In  In49  1  0.67229432  0.16454581  0.86396420  1
  In  In50  1  0.67334434  0.48914816  0.38015037  1
  In  In51  1  0.65804250  0.48985088  0.86701345  1
  In  In52  1  0.65476852  0.83908216  0.37354445  1
  In  In53  1  0.66414060  0.83371326  0.86734291  1
  In  In54  1  0.16942225  0.00493631  0.13069380  1
  In  In55  1  0.17146086  0.01304890  0.61812347  1
  In  In56  1  0.17080998  0.34350984  0.12976840  1
  In  In57  1  0.16724495  0.33637319  0.61840190  1
  In  In58  1  0.17259015  0.67191579  0.13760413  1
  In  In59  1  0.17982979  0.66135670  0.62594320  1
  In  In60  1  0.50738214  -0.00204657  0.12527582  1
  In  In61  1  0.50210561  -0.00200300  0.63691023  1
  In  In62  1  0.49980545  0.33856259  0.13033366  1
  In  In63  1  0.48824462  0.34092217  0.63056048  1
  In  In64  1  0.49180928  0.66199663  0.11472410  1
  In  In65  1  0.51125359  0.65781239  0.63823890  1
  In  In66  1  0.82608869  -0.00504390  0.11872353  1
  In  In67  1  0.82067419  0.00496182  0.63222011  1
  In  In68  1  0.82667812  0.31829224  0.11977145  1
  In  In69  1  0.84981513  0.32220823  0.64498182  1
  In  In70  1  0.82659690  0.68051330  0.12050407  1
  In  In71  1  0.83523085  0.65241815  0.65484773  1
  In  In72  1  0.82490314  0.83045313  0.51897894  1
  In  In73  1  0.50480037  0.16908669  0.00404108  1
  In  In74  1  0.00061702  0.33302438  0.25652416  1
  In  In75  1  0.83679748  0.49463232  0.51084051  1
  In  In76  1  0.16177968  0.16848797  0.00927068  1
  In  In77  1  0.16938839  0.83821013  0.49503913  1
  In  In78  1  0.49881684  0.83683825  0.50243178  1
  In  In79  1  0.00264835  -0.00496301  0.24730350  1
  In  In80  1  0.49822502  0.16670871  0.50663284  1
  In  In81  1  0.82982901  0.50052524  -0.01576262  1
  In  In82  1  0.16791701  0.50132417  0.00107359  1
  In  In83  1  0.16513280  0.82767053  0.00103659  1
  In  In84  1  0.00661916  0.00088029  0.74763477  1
  In  In85  1  0.66619508  0.66820870  0.24582192  1
  Cu  Cu86  1  0.17893744  0.50408396  0.25407273  1
  Cu  Cu87  1  0.66827823  0.66063083  0.51550656  1
  Cu  Cu88  1  0.66506709  -0.00181332  -0.00236328  1
  Cu  Cu89  1  0.48783647  0.49170297  0.74921700  1
  Cu  Cu90  1  0.33434296  0.33357841  0.50213293  1
  Cu  Cu91  1  0.49700862  0.17494941  0.25434975  1
  Cu  Cu92  1  -0.01734369  -0.00389349  -0.00304116  1
  Cu  Cu93  1  0.83933341  0.49503509  0.25162831  1
  Cu  Cu94  1  0.00077426  0.66720930  0.50002590  1
  Cu  Cu95  1  0.17428506  0.83196029  0.74949420  1
  Cu  Cu96  1  0.50262907  0.83908496  0.24451394  1
  Cu  Cu97  1  0.66663097  0.00049636  0.50661783  1
  Cu  Cu98  1  0.16668420  0.17270831  0.74182702  1
  Cu  Cu99  1  0.67177150  0.33159313  -0.00902519  1
  Cu  Cu100  1  0.16931783  0.49609668  0.74306578  1
  Cu  Cu101  1  0.83145262  0.83390102  0.24414999  1
  Cu  Cu102  1  0.34198195  0.34273261  0.00293642  1
  Cu  Cu103  1  0.49904692  0.50224066  0.25224221  1
  Cu  Cu104  1  0.16924124  0.16456278  0.25566255  1
  Cu  Cu105  1  0.65785040  0.67634898  -0.00676429  1
  Cu  Cu106  1  0.50144936  0.16524704  0.74806963  1
  Cu  Cu107  1  -0.00948390  0.32112889  -0.00990862  1
  Cu  Cu108  1  0.33773738  0.67149925  -0.00557350  1
  Cu  Cu109  1  0.33394191  -0.00544109  -0.00732526  1
  Cu  Cu110  1  -0.00488730  0.33916051  0.50478625  1
  Cu  Cu111  1  -0.00230468  0.00883454  0.49943395  1
  Cu  Cu112  1  0.33838897  0.65833595  0.50258204  1
  Cu  Cu113  1  -0.00879228  0.66258446  -0.00674234  1
  Cu  Cu114  1  0.66896540  0.33104207  0.50216126  1
  Se  Se115  1  0.06659349  0.06967465  0.05993201  1
  Se  Se116  1  0.08656084  0.08965574  0.54866772  1
  Se  Se117  1  0.07329420  0.39864161  0.05071019  1
  Se  Se118  1  0.08192527  0.42323311  0.55185802  1
  Se  Se119  1  0.07473089  0.73410607  0.05829342  1
  Se  Se120  1  0.07995939  0.75059495  0.55898787  1
  Se  Se121  1  0.40538001  0.07953147  0.05687634  1
  Se  Se122  1  0.41338627  0.06858865  0.56127150  1
  Se  Se123  1  0.42348741  0.42356605  0.05795089  1
  Se  Se124  1  0.42089574  0.41743159  0.55063696  1
  Se  Se125  1  0.41902284  0.75711605  0.04812564  1
  Se  Se126  1  0.41655798  0.74042449  0.56228844  1
  Se  Se127  1  0.74351531  0.08414044  0.05385643  1
  Se  Se128  1  0.74927067  0.08672561  0.55662964  1
  Se  Se129  1  0.74498833  0.41670239  0.05506605  1
  Se  Se130  1  0.74689992  0.40588738  0.56863134  1
  Se  Se131  1  0.74858088  0.75297456  0.04528305  1
  Se  Se132  1  0.74238580  0.73652201  0.58051860  1
  Se  Se133  1  0.26149300  0.26054046  0.06102754  1
  Se  Se134  1  0.25213212  0.24797764  0.55376717  1
  Se  Se135  1  0.25635321  0.59523209  0.05848270  1
  Se  Se136  1  0.24640653  0.57852580  0.54923920  1
  Se  Se137  1  0.25354919  0.92244762  0.05828345  1
  Se  Se138  1  0.26155814  0.91726388  0.56012941  1
  Se  Se139  1  0.59610589  0.25904839  0.06051854  1
  Se  Se140  1  0.58913467  0.25457461  0.56638245  1
  Se  Se141  1  0.58373852  0.58637904  0.04797325  1
  Se  Se142  1  0.58346252  0.57515192  0.56297174  1
  Se  Se143  1  0.57548007  0.91763216  0.04745130  1
  Se  Se144  1  0.59524899  0.91478069  0.56720026  1
  Se  Se145  1  0.90683344  0.24227978  0.04583886  1
  Se  Se146  1  0.90908820  0.25669389  0.55577914  1
  Se  Se147  1  0.91696881  0.58108452  0.05738900  1
  Se  Se148  1  0.91839461  0.59686796  0.56572930  1
  Se  Se149  1  0.90576263  0.90778854  0.05010536  1
  Se  Se150  1  0.92495654  0.92692191  0.56269644  1
  Se  Se151  1  0.07840181  0.25395157  0.45100802  1
  Se  Se152  1  0.07964884  0.24513739  0.93490302  1
  Se  Se153  1  0.08639659  0.58559187  0.44893085  1
  Se  Se154  1  0.07117442  0.57833924  0.93710325  1
  Se  Se155  1  0.07406853  0.92885761  0.43778520  1
  Se  Se156  1  0.07376624  0.92190416  0.94185071  1
  Se  Se157  1  0.41537681  0.25500468  0.43992230  1
  Se  Se158  1  0.41145938  0.25389411  0.94183903  1
  Se  Se159  1  0.42603282  0.58008231  0.44889797  1
  Se  Se160  1  0.42003251  0.57966707  0.94884657  1
  Se  Se161  1  0.40872272  0.92305453  0.44031186  1
  Se  Se162  1  0.41894499  0.91599843  0.93933241  1
  Se  Se163  1  0.74624475  0.24510979  0.44699112  1
  Se  Se164  1  0.75173976  0.25385593  0.93208270  1
  Se  Se165  1  0.74960370  0.59044292  0.44820257  1
  Se  Se166  1  0.73714187  0.59452052  0.93279541  1
  Se  Se167  1  0.74447080  0.91642973  0.44609804  1
  Se  Se168  1  0.74511166  0.91438542  0.94172057  1
  Se  Se169  1  0.24994489  0.09305229  0.45541536  1
  Se  Se170  1  0.25089786  0.08151494  0.94225411  1
  Se  Se171  1  0.25046265  0.41759950  0.44833686  1
  Se  Se172  1  0.25625329  0.41257151  0.94000229  1
  Se  Se173  1  0.26442988  0.74492626  0.44174992  1
  Se  Se174  1  0.25370762  0.74712154  0.93484435  1
  Se  Se175  1  0.58483521  0.07473687  0.44360571  1
  Se  Se176  1  0.58648327  0.08089072  0.93749512  1
  Se  Se177  1  0.58749040  0.42000741  0.45360493  1
  Se  Se178  1  0.58298573  0.41704988  0.94667353  1
  Se  Se179  1  0.59568215  0.74109838  0.44891193  1
  Se  Se180  1  0.57534265  0.75862933  0.93934820  1
  Se  Se181  1  0.90754634  0.08861039  0.44982204  1
  Se  Se182  1  0.90564217  0.08514613  0.94542688  1
  Se  Se183  1  0.91815460  0.41343548  0.43576608  1
  Se  Se184  1  0.91503228  0.40297807  0.92972163  1
  Se  Se185  1  0.91584782  0.75050710  0.44667916  1
  Se  Se186  1  0.90878146  0.74822795  0.94356611  1
  Se  Se187  1  0.25208893  0.25181604  0.30560828  1
  Se  Se188  1  0.25020400  0.25223351  0.80028971  1
  Se  Se189  1  0.25921256  0.58616649  0.31051939  1
  Se  Se190  1  0.24875873  0.57570744  0.80245660  1
  Se  Se191  1  0.23136890  0.90843331  0.30748846  1
  Se  Se192  1  0.25471589  0.92294599  0.79715844  1
  Se  Se193  1  0.58486024  0.25381815  0.30735333  1
  Se  Se194  1  0.58092402  0.24980837  0.80367495  1
  Se  Se195  1  0.58299507  0.58088028  0.31322088  1
  Se  Se196  1  0.56931013  0.57414102  0.80516028  1
  Se  Se197  1  0.58731160  0.92082804  0.29766734  1
  Se  Se198  1  0.60123947  0.93330753  0.79898461  1
  Se  Se199  1  0.90526314  0.23762319  0.30408574  1
  Se  Se200  1  0.93214245  0.26652024  0.79614191  1
  Se  Se201  1  0.92301747  0.58359793  0.29725579  1
  Se  Se202  1  0.93685234  0.60995848  0.80016627  1
  Se  Se203  1  0.90922184  0.90876769  0.31115839  1
  Se  Se204  1  0.91930473  0.91866913  0.81358982  1
  Se  Se205  1  0.08203166  0.08959444  0.31391966  1
  Se  Se206  1  0.09258567  0.09514363  0.81071949  1
  Se  Se207  1  0.09529796  0.42240399  0.31233443  1
  Se  Se208  1  0.08298278  0.41569367  0.79691155  1
  Se  Se209  1  0.07617078  0.73476105  0.30232286  1
  Se  Se210  1  0.08890410  0.75104307  0.80197110  1
  Se  Se211  1  0.41516000  0.08592361  0.30461509  1
  Se  Se212  1  0.41584122  0.08214200  0.80075047  1
  Se  Se213  1  0.41964161  0.41794002  0.30830864  1
  Se  Se214  1  0.40752018  0.40532934  0.80367649  1
  Se  Se215  1  0.42535483  0.75307498  0.30087552  1
  Se  Se216  1  0.39369583  0.72272604  0.80611997  1
  Se  Se217  1  0.73621566  0.06916423  0.30315378  1
  Se  Se218  1  0.76444913  0.09300396  0.79610476  1
  Se  Se219  1  0.74993842  0.41773081  0.30232229  1
  Se  Se220  1  0.77059748  0.44955033  0.80103957  1
  Se  Se221  1  0.75650589  0.75467165  0.31163384  1
  Se  Se222  1  0.73108899  0.73750909  0.79882664  1
  Se  Se223  1  0.25187641  0.08059212  0.20196231  1
  Se  Se224  1  0.24993627  0.08250222  0.69587692  1
  Se  Se225  1  0.25656087  0.41836972  0.19832781  1
  Se  Se226  1  0.25277862  0.41225629  0.68982629  1
  Se  Se227  1  0.25872010  0.75205051  0.20082880  1
  Se  Se228  1  0.25536833  0.74588666  0.69698187  1
  Se  Se229  1  0.57470383  0.09187328  0.19443641  1
  Se  Se230  1  0.58988904  0.08329625  0.69849668  1
  Se  Se231  1  0.58505756  0.42059204  0.19932251  1
  Se  Se232  1  0.57923019  0.40871347  0.70205606  1
  Se  Se233  1  0.58043346  0.75686811  0.18278573  1
  Se  Se234  1  0.56343346  0.75716559  0.70938812  1
  Se  Se235  1  0.90687983  0.08475804  0.19278886  1
  Se  Se236  1  0.91983942  0.09231590  0.68801652  1
  Se  Se237  1  0.91612202  0.41768856  0.18592968  1
  Se  Se238  1  0.90132640  0.44118993  0.69519116  1
  Se  Se239  1  0.91460548  0.74831427  0.19369441  1
  Se  Se240  1  0.91139082  0.75602092  0.70825276  1
  Se  Se241  1  0.08943605  0.24075475  0.19102646  1
  Se  Se242  1  0.08317574  0.25589507  0.68993695  1
  Se  Se243  1  0.08965100  0.57755609  0.19675969  1
  Se  Se244  1  0.08861875  0.58599760  0.69287394  1
  Se  Se245  1  0.09251141  0.90183491  0.18993569  1
  Se  Se246  1  0.09571933  0.90983934  0.68516982  1
  Se  Se247  1  0.41470712  0.25883126  0.19980212  1
  Se  Se248  1  0.41437150  0.24680563  0.69610799  1
  Se  Se249  1  0.42224318  0.58967087  0.19669808  1
  Se  Se250  1  0.41052042  0.57741671  0.69293196  1
  Se  Se251  1  0.41645792  0.92193706  0.19256543  1
  Se  Se252  1  0.42852549  0.90846431  0.70378402  1
  Se  Se253  1  0.74796861  0.25909232  0.19942800  1
  Se  Se254  1  0.74748894  0.25732142  0.70729487  1
  Se  Se255  1  0.75918070  0.57491560  0.18831185  1
  Se  Se256  1  0.74018032  0.57400389  0.71402151  1
  Se  Se257  1  0.74655697  0.91508601  0.19177851  1
  Se  Se258  1  0.77712811  0.90193425  0.70158122  1
