# generated using pymatgen
data_In86Cu29Se144
_symmetry_space_group_name_H-M   'P 1'
_cell_length_a   17.59712195
_cell_length_b   17.60074914
_cell_length_c   23.45208480
_cell_angle_alpha   89.99876536
_cell_angle_beta   89.98425588
_cell_angle_gamma   90.01915336
_symmetry_Int_Tables_number   1
_chemical_formula_structural   In86Cu29Se144
_chemical_formula_sum   'In86 Cu29 Se144'
_cell_volume   7263.63833264
_cell_formula_units_Z   1
loop_
 _symmetry_equiv_pos_site_id
 _symmetry_equiv_pos_as_xyz
  1  'x, y, z'
loop_
 _atom_site_type_symbol
 _atom_site_label
 _atom_site_symmetry_multiplicity
 _atom_site_fract_x
 _atom_site_fract_y
 _atom_site_fract_z
 _atom_site_occupancy
  In  In0  1  -0.00960000  0.18908014  0.13237415  1
  In  In1  1  -0.00802607  0.18008526  0.62274461  1
  In  In2  1  -0.01747566  0.47954263  0.10729287  1
  In  In3  1  0.00789219  0.50917436  0.61612461  1
  In  In4  1  -0.01279387  0.83810937  0.12666270  1
  In  In5  1  -0.01102148  0.82070619  0.61963170  1
  In  In6  1  0.33738958  0.15209979  0.12999141  1
  In  In7  1  0.34535762  0.17029948  0.61665666  1
  In  In8  1  0.33336464  0.51267939  0.12642125  1
  In  In9  1  0.35478204  0.51783843  0.60003750  1
  In  In10  1  0.34343962  0.82334706  0.13615762  1
  In  In11  1  0.32077834  0.82876410  0.61539694  1
  In  In12  1  0.66453234  0.17038061  0.12165152  1
  In  In13  1  0.67392528  0.17209308  0.61907269  1
  In  In14  1  0.68170457  0.48539290  0.13664360  1
  In  In15  1  0.65802370  0.48744967  0.61531072  1
  In  In16  1  0.66732344  0.83600721  0.13418129  1
  In  In17  1  0.66860220  0.82990330  0.61352490  1
  In  In18  1  0.16767267  -0.01522184  0.37490291  1
  In  In19  1  0.16721955  -0.00231551  0.87705613  1
  In  In20  1  0.16923823  0.35161750  0.37438746  1
  In  In21  1  0.16981597  0.34085948  0.88198933  1
  In  In22  1  0.18102676  0.66064205  0.38637708  1
  In  In23  1  0.15637552  0.66053352  0.86430822  1
  In  In24  1  0.51415713  0.01128238  0.36648747  1
  In  In25  1  0.50050916  -0.00095377  0.88348223  1
  In  In26  1  0.50660983  0.32482260  0.38528215  1
  In  In27  1  0.50816437  0.31835305  0.88094755  1
  In  In28  1  0.49621227  0.65893130  0.37244860  1
  In  In29  1  0.50245429  0.67790900  0.87469336  1
  In  In30  1  0.81968503  0.00537142  0.38221250  1
  In  In31  1  0.81863818  0.00560626  0.88530432  1
  In  In32  1  0.82923900  0.33385455  0.36847142  1
  In  In33  1  0.81607959  0.35288708  0.89298443  1
  In  In34  1  0.82385457  0.67535309  0.37649807  1
  In  In35  1  0.83820025  0.65806758  0.88152280  1
  In  In36  1  -0.02069888  0.16707694  0.37144714  1
  In  In37  1  -0.01090306  0.16831165  0.87824062  1
  In  In38  1  0.00646333  0.49511936  0.37618567  1
  In  In39  1  -0.01234182  0.50828478  0.88080289  1
  In  In40  1  0.00035720  0.83145542  0.38103562  1
  In  In41  1  0.00106339  0.81944323  0.87625010  1
  In  In42  1  0.36357708  0.17012776  0.37851452  1
  In  In43  1  0.34506468  0.17062251  0.87856890  1
  In  In44  1  0.33026867  0.51160743  0.38986271  1
  In  In45  1  0.32173836  0.50069752  0.87332674  1
  In  In46  1  0.32692544  0.82091239  0.37030610  1
  In  In47  1  0.34510144  0.83043362  0.87580566  1
  In  In48  1  0.66335128  0.16874254  0.37308194  1
  In  In49  1  0.65429093  0.18381408  0.88969593  1
  In  In50  1  0.66836020  0.50080596  0.37158606  1
  In  In51  1  0.67706514  0.50338173  0.87647547  1
  In  In52  1  0.68555924  0.84465028  0.35839426  1
  In  In53  1  0.66128599  0.83246305  0.88715831  1
  In  In54  1  0.17214385  0.00759569  0.13215942  1
  In  In55  1  0.18137507  -0.00196721  0.62011968  1
  In  In56  1  0.15375023  0.33617895  0.12578805  1
  In  In57  1  0.15564652  0.34674569  0.62285383  1
  In  In58  1  0.17705183  0.65934312  0.12878499  1
  In  In59  1  0.16808619  0.65975185  0.62195857  1
  In  In60  1  0.50459971  -0.00149626  0.12958260  1
  In  In61  1  0.50142548  0.00152542  0.61401788  1
  In  In62  1  0.52499350  0.32909608  0.12513689  1
  In  In63  1  0.50600294  0.33986317  0.61952770  1
  In  In64  1  0.49283256  0.67247785  0.13339276  1
  In  In65  1  0.50500566  0.65704169  0.62241393  1
  In  In66  1  0.81262140  -0.01498735  0.12152818  1
  In  In67  1  0.82917546  0.00054932  0.61236153  1
  In  In68  1  0.82645581  0.33324413  0.11869738  1
  In  In69  1  0.82330327  0.32618412  0.61639173  1
  In  In70  1  0.83080454  0.66364626  0.12778735  1
  In  In71  1  0.83916400  0.66898625  0.61989216  1
  In  In72  1  0.33865930  0.34151578  0.73995135  1
  In  In73  1  -0.00329234  0.00301374  0.25038313  1
  In  In74  1  0.33922743  -0.00557420  0.75877840  1
  In  In75  1  0.00084764  0.66152567  0.24471972  1
  In  In76  1  0.50237353  0.50134046  0.00759571  1
  In  In77  1  0.16446776  0.16837232  -0.00156715  1
  In  In78  1  0.16376217  0.82998209  0.00290549  1
  In  In79  1  0.33856666  0.33543672  0.26020590  1
  In  In80  1  -0.00262638  0.34030317  0.75103703  1
  In  In81  1  0.16129147  0.16595135  0.50042214  1
  In  In82  1  0.50769240  0.83493611  0.49059234  1
  In  In83  1  -0.00398994  -0.00597179  0.74974198  1
  In  In84  1  0.66714592  -0.00080852  0.74028769  1
  In  In85  1  0.66781278  0.66004675  0.74900303  1
  Cu  Cu86  1  0.49453305  0.49505785  0.74140067  1
  Cu  Cu87  1  0.67080212  0.66292710  0.49439355  1
  Cu  Cu88  1  0.00052594  0.66491321  0.49884704  1
  Cu  Cu89  1  0.82491204  0.17176801  0.74868197  1
  Cu  Cu90  1  0.49456157  0.83345123  0.75044740  1
  Cu  Cu91  1  0.17140312  0.16868037  0.25137765  1
  Cu  Cu92  1  0.66551350  -0.00235239  0.00774379  1
  Cu  Cu93  1  0.33651094  0.33146310  0.00097590  1
  Cu  Cu94  1  0.83290058  0.49731125  0.24713979  1
  Cu  Cu95  1  0.33582237  -0.00150086  0.49356039  1
  Cu  Cu96  1  -0.00550197  0.66482939  -0.00026951  1
  Cu  Cu97  1  0.50057207  0.83578583  0.25414868  1
  Cu  Cu98  1  -0.00307194  -0.00357788  0.49479537  1
  Cu  Cu99  1  0.33372468  0.66832203  0.00444987  1
  Cu  Cu100  1  0.50163040  0.50306749  0.25155551  1
  Cu  Cu101  1  0.17192273  0.82642108  0.25458829  1
  Cu  Cu102  1  0.17591476  0.16644003  0.75299487  1
  Cu  Cu103  1  0.16686968  0.51169364  0.74710300  1
  Cu  Cu104  1  0.16616692  0.50087651  0.25600317  1
  Cu  Cu105  1  0.83509216  0.49659784  0.75237485  1
  Cu  Cu106  1  -0.00871754  0.00464146  0.00952700  1
  Cu  Cu107  1  0.16369445  0.82198269  0.74083800  1
  Cu  Cu108  1  0.67148806  0.33470558  0.49465966  1
  Cu  Cu109  1  0.34493794  -0.00616266  0.00746290  1
  Cu  Cu110  1  0.82488991  0.17074353  0.24766052  1
  Cu  Cu111  1  0.50807068  0.16734816  0.24962723  1
  Cu  Cu112  1  0.83759951  0.82355941  0.75085867  1
  Cu  Cu113  1  0.66492598  0.67200157  0.00884940  1
  Cu  Cu114  1  -0.01089228  0.33280966  0.49469129  1
  Se  Se115  1  0.07667904  0.08216632  0.06526322  1
  Se  Se116  1  0.07171351  0.07434207  0.56287222  1
  Se  Se117  1  0.09738726  0.42618038  0.05166542  1
  Se  Se118  1  0.07579826  0.41469143  0.54635649  1
  Se  Se119  1  0.07372228  0.74073628  0.06471797  1
  Se  Se120  1  0.08341299  0.74673966  0.55531070  1
  Se  Se121  1  0.42358672  0.08342789  0.05748459  1
  Se  Se122  1  0.41760758  0.08286472  0.54625420  1
  Se  Se123  1  0.41285301  0.40791486  0.06716121  1
  Se  Se124  1  0.40967298  0.40100250  0.54952149  1
  Se  Se125  1  0.41677491  0.75089966  0.05668804  1
  Se  Se126  1  0.42080989  0.74838614  0.55580319  1
  Se  Se127  1  0.75095115  0.08480331  0.05509238  1
  Se  Se128  1  0.75001717  0.08732928  0.54939028  1
  Se  Se129  1  0.74341488  0.41926725  0.05216008  1
  Se  Se130  1  0.75430655  0.42005150  0.54797997  1
  Se  Se131  1  0.74971289  0.75307671  0.06267252  1
  Se  Se132  1  0.75249938  0.74625809  0.54977018  1
  Se  Se133  1  0.25663461  0.25146229  0.06404048  1
  Se  Se134  1  0.24719630  0.25662692  0.56135576  1
  Se  Se135  1  0.24905128  0.58158648  0.05107675  1
  Se  Se136  1  0.23670410  0.57062932  0.55011823  1
  Se  Se137  1  0.25494461  0.91902901  0.06304568  1
  Se  Se138  1  0.24927856  0.91663641  0.54407996  1
  Se  Se139  1  0.58832639  0.25103086  0.04721501  1
  Se  Se140  1  0.58812916  0.25446296  0.55230405  1
  Se  Se141  1  0.58991603  0.58809543  0.07023847  1
  Se  Se142  1  0.58566452  0.58279461  0.54934453  1
  Se  Se143  1  0.58309938  0.91245699  0.06016476  1
  Se  Se144  1  0.59895860  0.92951209  0.54781241  1
  Se  Se145  1  0.91987342  0.25593781  0.05286701  1
  Se  Se146  1  0.90980090  0.24597387  0.54723892  1
  Se  Se147  1  0.90859581  0.58454756  0.05327615  1
  Se  Se148  1  0.91392843  0.58145695  0.54966642  1
  Se  Se149  1  0.90870794  0.91356817  0.05374215  1
  Se  Se150  1  0.91652650  0.91319808  0.55221837  1
  Se  Se151  1  0.07441544  0.25349480  0.43584359  1
  Se  Se152  1  0.07280034  0.26056031  0.94363638  1
  Se  Se153  1  0.08328387  0.58168535  0.44518148  1
  Se  Se154  1  0.08172506  0.58950207  0.94329005  1
  Se  Se155  1  0.08563319  0.91326928  0.44884349  1
  Se  Se156  1  0.07190816  0.92653277  0.94617072  1
  Se  Se157  1  0.40375760  0.26767692  0.45313436  1
  Se  Se158  1  0.42137557  0.24599070  0.95347745  1
  Se  Se159  1  0.42033802  0.59255666  0.45260617  1
  Se  Se160  1  0.41329623  0.58792463  0.94159514  1
  Se  Se161  1  0.41565500  0.92245309  0.43044229  1
  Se  Se162  1  0.42088222  0.90965980  0.94910838  1
  Se  Se163  1  0.75180766  0.24990362  0.44013840  1
  Se  Se164  1  0.77383705  0.22922747  0.94175718  1
  Se  Se165  1  0.75490478  0.57843429  0.44281648  1
  Se  Se166  1  0.74432689  0.58951339  0.95043082  1
  Se  Se167  1  0.75116812  0.90519847  0.44481789  1
  Se  Se168  1  0.74786885  0.91291209  0.95277045  1
  Se  Se169  1  0.25409970  0.08276983  0.43619341  1
  Se  Se170  1  0.26277809  0.07221831  0.94540886  1
  Se  Se171  1  0.24519830  0.42126102  0.45019574  1
  Se  Se172  1  0.25511502  0.41808213  0.95086797  1
  Se  Se173  1  0.24951063  0.75829101  0.45069646  1
  Se  Se174  1  0.25234466  0.74320489  0.93968985  1
  Se  Se175  1  0.56980858  0.10000402  0.44265519  1
  Se  Se176  1  0.58521498  0.07981464  0.94975490  1
  Se  Se177  1  0.58729019  0.42054713  0.44464464  1
  Se  Se178  1  0.58960269  0.41578403  0.94349384  1
  Se  Se179  1  0.59648634  0.74534297  0.43160406  1
  Se  Se180  1  0.57739959  0.74831490  0.95334766  1
  Se  Se181  1  0.91347135  0.08358174  0.44708801  1
  Se  Se182  1  0.91451775  0.08244176  0.94755356  1
  Se  Se183  1  0.91162213  0.41727208  0.43866865  1
  Se  Se184  1  0.92270570  0.41678222  0.94972752  1
  Se  Se185  1  0.91578158  0.74736185  0.44601469  1
  Se  Se186  1  0.91318987  0.75212439  0.94825500  1
  Se  Se187  1  0.24856946  0.24218544  0.31819778  1
  Se  Se188  1  0.25139005  0.25138489  0.81050249  1
  Se  Se189  1  0.25149731  0.58052297  0.30942228  1
  Se  Se190  1  0.25539283  0.58935441  0.80063204  1
  Se  Se191  1  0.25391031  0.91584374  0.30213808  1
  Se  Se192  1  0.23766887  0.90088983  0.80763431  1
  Se  Se193  1  0.58218026  0.25653349  0.30464772  1
  Se  Se194  1  0.58902427  0.25097200  0.80557263  1
  Se  Se195  1  0.58664593  0.58650928  0.30284978  1
  Se  Se196  1  0.57232099  0.57316566  0.80778844  1
  Se  Se197  1  0.58873541  0.92238804  0.29807900  1
  Se  Se198  1  0.57923072  0.91091181  0.80807347  1
  Se  Se199  1  0.91384652  0.25263310  0.29680261  1
  Se  Se200  1  0.90651883  0.25038832  0.80817834  1
  Se  Se201  1  0.91139125  0.57728640  0.30902369  1
  Se  Se202  1  0.91451283  0.58515071  0.80327846  1
  Se  Se203  1  0.91267963  0.91617626  0.31418045  1
  Se  Se204  1  0.90541382  0.91117809  0.81383876  1
  Se  Se205  1  0.08880175  0.08965502  0.31288978  1
  Se  Se206  1  0.08923785  0.08984269  0.80886696  1
  Se  Se207  1  0.07912805  0.41357739  0.29990298  1
  Se  Se208  1  0.09178766  0.42777319  0.80919163  1
  Se  Se209  1  0.08826579  0.74721983  0.31147435  1
  Se  Se210  1  0.07588144  0.74858874  0.79804679  1
  Se  Se211  1  0.41924457  0.08536780  0.29906803  1
  Se  Se212  1  0.43182981  0.09138875  0.80736236  1
  Se  Se213  1  0.42479704  0.42750961  0.31859177  1
  Se  Se214  1  0.42409701  0.41975165  0.81320315  1
  Se  Se215  1  0.41790665  0.74718465  0.30309533  1
  Se  Se216  1  0.41423311  0.74563350  0.80088055  1
  Se  Se217  1  0.74924946  0.08548648  0.30502902  1
  Se  Se218  1  0.74879074  0.08707653  0.80688439  1
  Se  Se219  1  0.74580601  0.41573633  0.29955905  1
  Se  Se220  1  0.75018838  0.41603879  0.80567890  1
  Se  Se221  1  0.74711175  0.73953520  0.29658344  1
  Se  Se222  1  0.74944994  0.75388075  0.81225383  1
  Se  Se223  1  0.25475808  0.08064161  0.20512319  1
  Se  Se224  1  0.25486459  0.08836901  0.69332549  1
  Se  Se225  1  0.24877272  0.42004518  0.19470406  1
  Se  Se226  1  0.24494240  0.43159349  0.68641385  1
  Se  Se227  1  0.25271806  0.74199767  0.20000174  1
  Se  Se228  1  0.25339618  0.74482726  0.69038874  1
  Se  Se229  1  0.58947069  0.08457755  0.19455637  1
  Se  Se230  1  0.57478894  0.08957685  0.68615809  1
  Se  Se231  1  0.58399447  0.41537838  0.20259124  1
  Se  Se232  1  0.58530590  0.41480139  0.69508943  1
  Se  Se233  1  0.58138222  0.75054243  0.19995163  1
  Se  Se234  1  0.58007980  0.75808522  0.69074556  1
  Se  Se235  1  0.90623003  0.08765162  0.18765246  1
  Se  Se236  1  0.90834874  0.09059244  0.69175773  1
  Se  Se237  1  0.91278622  0.41384235  0.19064663  1
  Se  Se238  1  0.91065500  0.42224525  0.68407696  1
  Se  Se239  1  0.90605111  0.76038799  0.19968215  1
  Se  Se240  1  0.91898610  0.74111326  0.69740684  1
  Se  Se241  1  0.08653340  0.25230586  0.20200197  1
  Se  Se242  1  0.09208184  0.24414947  0.69518895  1
  Se  Se243  1  0.08532826  0.56668753  0.18623625  1
  Se  Se244  1  0.07727413  0.58760219  0.69414654  1
  Se  Se245  1  0.09104802  0.90618908  0.19397530  1
  Se  Se246  1  0.08972246  0.91271625  0.68598811  1
  Se  Se247  1  0.42332224  0.24925572  0.19155994  1
  Se  Se248  1  0.42853092  0.24261133  0.69189118  1
  Se  Se249  1  0.41318212  0.58410022  0.20140413  1
  Se  Se250  1  0.41471260  0.58126589  0.68987629  1
  Se  Se251  1  0.41684166  0.91935567  0.19923919  1
  Se  Se252  1  0.41975984  0.91125109  0.68515323  1
  Se  Se253  1  0.74497592  0.25453775  0.19207641  1
  Se  Se254  1  0.74527933  0.25577256  0.69441059  1
  Se  Se255  1  0.74915121  0.58632867  0.20032118  1
  Se  Se256  1  0.75471759  0.57257105  0.68684603  1
  Se  Se257  1  0.74764602  0.91921479  0.20462529  1
  Se  Se258  1  0.76118933  0.90276713  0.68858484  1
