# generated using pymatgen
data_In86Cu29Se144
_symmetry_space_group_name_H-M   'P 1'
_cell_length_a   17.57284199
_cell_length_b   17.57475630
_cell_length_c   23.43106354
_cell_angle_alpha   90.00802135
_cell_angle_beta   89.97532628
_cell_angle_gamma   89.97790986
_symmetry_Int_Tables_number   1
_chemical_formula_structural   In86Cu29Se144
_chemical_formula_sum   'In86 Cu29 Se144'
_cell_volume   7236.41125545
_cell_formula_units_Z   1
loop_
 _symmetry_equiv_pos_site_id
 _symmetry_equiv_pos_as_xyz
  1  'x, y, z'
loop_
 _atom_site_type_symbol
 _atom_site_label
 _atom_site_symmetry_multiplicity
 _atom_site_fract_x
 _atom_site_fract_y
 _atom_site_fract_z
 _atom_site_occupancy
  In  In0  1  -0.00371484  0.14015514  0.12856301  1
  In  In1  1  -0.00218502  0.16709704  0.63349698  1
  In  In2  1  0.00486255  0.51053696  0.12226893  1
  In  In3  1  0.00292762  0.50279903  0.62394967  1
  In  In4  1  -0.00176788  0.83242543  0.12278814  1
  In  In5  1  -0.00325685  0.84178813  0.63037020  1
  In  In6  1  0.33207017  0.16019011  0.12500151  1
  In  In7  1  0.29772330  0.17429044  0.62919861  1
  In  In8  1  0.33590812  0.49440112  0.13226597  1
  In  In9  1  0.32728902  0.50901098  0.62782264  1
  In  In10  1  0.31712310  0.84163948  0.13777759  1
  In  In11  1  0.33117002  0.83273243  0.62427984  1
  In  In12  1  0.66198939  0.18244300  0.12220268  1
  In  In13  1  0.69539153  0.16634974  0.63262105  1
  In  In14  1  0.66141570  0.48465754  0.10835542  1
  In  In15  1  0.67170258  0.48230161  0.63495162  1
  In  In16  1  0.67123428  0.82161048  0.12206920  1
  In  In17  1  0.66965031  0.84302939  0.61575668  1
  In  In18  1  0.17240023  0.00299919  0.36836167  1
  In  In19  1  0.15746543  -0.00890341  0.86418675  1
  In  In20  1  0.16755149  0.32391970  0.38601831  1
  In  In21  1  0.16578296  0.33889816  0.86981468  1
  In  In22  1  0.15784082  0.66998526  0.36041631  1
  In  In23  1  0.17763761  0.66701599  0.86854022  1
  In  In24  1  0.47795295  0.00213658  0.37530767  1
  In  In25  1  0.50189350  0.01420220  0.87819496  1
  In  In26  1  0.49928598  0.34326115  0.37356118  1
  In  In27  1  0.51278587  0.31637618  0.89373691  1
  In  In28  1  0.50242921  0.67748763  0.37506851  1
  In  In29  1  0.48345364  0.66383523  0.87787565  1
  In  In30  1  0.84221992  -0.00510379  0.38038749  1
  In  In31  1  0.83542482  -0.00395729  0.87391831  1
  In  In32  1  0.85656907  0.32575059  0.40122662  1
  In  In33  1  0.84356750  0.33530873  0.86169314  1
  In  In34  1  0.84117156  0.65714889  0.38239307  1
  In  In35  1  0.84240550  0.65932624  0.87587307  1
  In  In36  1  0.00734625  0.16350409  0.38467150  1
  In  In37  1  -0.00474589  0.15958494  0.84950500  1
  In  In38  1  -0.00542125  0.51003936  0.38206205  1
  In  In39  1  -0.00665760  0.49338695  0.86555144  1
  In  In40  1  -0.00137111  0.82208046  0.36635468  1
  In  In41  1  0.00521059  0.82954759  0.87209022  1
  In  In42  1  0.32127852  0.15618160  0.36903959  1
  In  In43  1  0.34770232  0.17251180  0.87330128  1
  In  In44  1  0.32525808  0.49249824  0.36752498  1
  In  In45  1  0.33223575  0.50407673  0.87922371  1
  In  In46  1  0.32985061  0.84374218  0.36793870  1
  In  In47  1  0.32623198  0.81951386  0.87205222  1
  In  In48  1  0.67440386  0.17827608  0.37938330  1
  In  In49  1  0.66273261  0.16264412  0.87359846  1
  In  In50  1  0.67683503  0.50587844  0.37753783  1
  In  In51  1  0.67910722  0.48191294  0.89024048  1
  In  In52  1  0.67236969  0.82527917  0.38479018  1
  In  In53  1  0.67564762  0.84889655  0.87935076  1
  In  In54  1  0.17258863  -0.01352045  0.13670705  1
  In  In55  1  0.14891898  0.02105956  0.64738884  1
  In  In56  1  0.16677806  0.34270672  0.12648572  1
  In  In57  1  0.11712579  0.30808150  0.58314723  1
  In  In58  1  0.14986898  0.68139262  0.13870171  1
  In  In59  1  0.17234569  0.65717539  0.62685273  1
  In  In60  1  0.48406875  0.00006990  0.12343265  1
  In  In61  1  0.49606013  -0.00786049  0.62335992  1
  In  In62  1  0.48144442  0.31757506  0.09935685  1
  In  In63  1  0.50498002  0.34081447  0.63138063  1
  In  In64  1  0.49656963  0.65466710  0.12409612  1
  In  In65  1  0.48394353  0.66769033  0.62817992  1
  In  In66  1  0.86220835  -0.00188953  0.13027959  1
  In  In67  1  0.85242085  0.01488140  0.61377078  1
  In  In68  1  0.82474443  0.33450177  0.12156362  1
  In  In69  1  0.83800476  0.33225160  0.62924592  1
  In  In70  1  0.83679861  0.66598222  0.11805908  1
  In  In71  1  0.84570867  0.68234107  0.61974947  1
  In  In72  1  0.16812714  0.83722045  0.49761654  1
  In  In73  1  0.66547781  0.65938442  0.24226909  1
  In  In74  1  0.66396667  0.66428019  0.75453790  1
  In  In75  1  0.32707192  0.33759804  0.74869349  1
  In  In76  1  0.00322268  0.33060760  0.25828515  1
  In  In77  1  0.50384987  0.50237260  0.50618554  1
  In  In78  1  0.50128033  0.16140577  0.50237483  1
  In  In79  1  0.66549487  -0.00208769  0.25660722  1
  In  In80  1  0.66908266  0.33877214  0.24819163  1
  In  In81  1  0.17129317  0.16829015  -0.00709577  1
  In  In82  1  0.66805854  0.00356962  0.75321336  1
  In  In83  1  0.17101485  0.50513135  -0.00351338  1
  In  In84  1  0.83453590  0.16511228  -0.00038859  1
  In  In85  1  0.50103161  0.83053086  0.00192723  1
  Cu  Cu86  1  0.83590437  0.82718958  0.24837869  1
  Cu  Cu87  1  0.66722828  -0.00523511  0.49990951  1
  Cu  Cu88  1  0.49813970  0.49628396  0.75753198  1
  Cu  Cu89  1  0.32935022  0.33053953  0.49491162  1
  Cu  Cu90  1  0.49955532  0.16932176  0.75200516  1
  Cu  Cu91  1  0.00298731  0.66834486  0.49817914  1
  Cu  Cu92  1  0.00579557  -0.01047139  -0.00343770  1
  Cu  Cu93  1  0.32303415  0.66850509  0.00338852  1
  Cu  Cu94  1  0.16093581  0.49703442  0.74551568  1
  Cu  Cu95  1  0.67101804  0.66466566  0.50442770  1
  Cu  Cu96  1  0.67813865  0.33063700  0.50933096  1
  Cu  Cu97  1  0.16560686  0.17113118  0.25423280  1
  Cu  Cu98  1  0.00112992  0.00001067  0.50531704  1
  Cu  Cu99  1  0.83945842  0.83983112  0.74904980  1
  Cu  Cu100  1  -0.00661973  0.32895435  -0.00982167  1
  Cu  Cu101  1  0.67344054  0.00659907  -0.00010059  1
  Cu  Cu102  1  0.83790785  0.50299365  0.74953429  1
  Cu  Cu103  1  0.83885899  0.50062710  0.25320804  1
  Cu  Cu104  1  0.17178693  0.82594357  0.74747895  1
  Cu  Cu105  1  -0.00221115  0.66995452  -0.00076516  1
  Cu  Cu106  1  0.49281539  0.82880499  0.74817491  1
  Cu  Cu107  1  0.16910655  0.50226969  0.24992677  1
  Cu  Cu108  1  0.49176506  0.49506255  0.24544948  1
  Cu  Cu109  1  0.67485733  0.66723047  -0.00210104  1
  Cu  Cu110  1  0.33642042  0.66988444  0.50036450  1
  Cu  Cu111  1  0.32389546  -0.00017071  0.49890479  1
  Cu  Cu112  1  0.48856515  0.83732087  0.25398396  1
  Cu  Cu113  1  0.49278020  0.16917728  0.24356797  1
  Cu  Cu114  1  0.32973163  -0.00130610  0.00313176  1
  Se  Se115  1  0.08638443  0.07346319  0.05389370  1
  Se  Se116  1  0.08195267  0.08273997  0.56094694  1
  Se  Se117  1  0.07419409  0.40934691  0.05084426  1
  Se  Se118  1  0.10620301  0.44760791  0.55510195  1
  Se  Se119  1  0.08318384  0.74924673  0.05425745  1
  Se  Se120  1  0.08126956  0.74780810  0.56070156  1
  Se  Se121  1  0.41527709  0.08569285  0.04982933  1
  Se  Se122  1  0.40263175  0.08179315  0.56156541  1
  Se  Se123  1  0.42130214  0.43614306  0.05434282  1
  Se  Se124  1  0.40883479  0.40712268  0.55827205  1
  Se  Se125  1  0.40611437  0.74896389  0.06354553  1
  Se  Se126  1  0.41765556  0.75369638  0.55330051  1
  Se  Se127  1  0.75065265  0.07802113  0.06851318  1
  Se  Se128  1  0.74866697  0.08161582  0.55162521  1
  Se  Se129  1  0.75979570  0.41543086  0.04562936  1
  Se  Se130  1  0.75669119  0.42085790  0.55855549  1
  Se  Se131  1  0.75659241  0.75301085  0.04918442  1
  Se  Se132  1  0.75294416  0.75506102  0.55226769  1
  Se  Se133  1  0.25280119  0.25876291  0.05814107  1
  Se  Se134  1  0.24278075  0.24469322  0.54236173  1
  Se  Se135  1  0.24613609  0.59094529  0.06873426  1
  Se  Se136  1  0.25298711  0.58452116  0.55022098  1
  Se  Se137  1  0.24751558  0.91523972  0.05660758  1
  Se  Se138  1  0.24304009  0.92923224  0.56549302  1
  Se  Se139  1  0.59770021  0.26334209  0.04640147  1
  Se  Se140  1  0.59013234  0.25168803  0.56409168  1
  Se  Se141  1  0.58786958  0.59007808  0.05257784  1
  Se  Se142  1  0.59239167  0.58919876  0.56996936  1
  Se  Se143  1  0.59143475  0.92552440  0.06084704  1
  Se  Se144  1  0.57593051  0.91627162  0.54912099  1
  Se  Se145  1  0.92958075  0.25000396  0.06225107  1
  Se  Se146  1  0.91960600  0.24923876  0.56123790  1
  Se  Se147  1  0.91813845  0.58004404  0.04978650  1
  Se  Se148  1  0.91957115  0.58822601  0.55464036  1
  Se  Se149  1  0.91520729  0.91363381  0.04969316  1
  Se  Se150  1  0.91716060  0.91002136  0.55182634  1
  Se  Se151  1  0.06649382  0.26472304  0.45258291  1
  Se  Se152  1  0.07245905  0.24849178  0.93168812  1
  Se  Se153  1  0.09001815  0.59391301  0.44074414  1
  Se  Se154  1  0.07569819  0.58792385  0.93627107  1
  Se  Se155  1  0.07499165  0.92304720  0.43760861  1
  Se  Se156  1  0.09093749  0.91017739  0.94251363  1
  Se  Se157  1  0.41484881  0.25140161  0.43819725  1
  Se  Se158  1  0.41171859  0.24636742  0.95406740  1
  Se  Se159  1  0.41528942  0.58495471  0.44010103  1
  Se  Se160  1  0.40924384  0.58522259  0.95331266  1
  Se  Se161  1  0.40822652  0.91559417  0.44768187  1
  Se  Se162  1  0.41234126  0.91941162  0.94019330  1
  Se  Se163  1  0.75667357  0.24358111  0.45595313  1
  Se  Se164  1  0.75268001  0.25348030  0.93473367  1
  Se  Se165  1  0.75376072  0.58019036  0.45239139  1
  Se  Se166  1  0.75761942  0.58237139  0.94628680  1
  Se  Se167  1  0.75430411  0.91392177  0.44762209  1
  Se  Se168  1  0.75893947  0.92168723  0.95173006  1
  Se  Se169  1  0.24193014  0.08486615  0.44595304  1
  Se  Se170  1  0.25716676  0.07369629  0.93373425  1
  Se  Se171  1  0.24997011  0.42031651  0.44525845  1
  Se  Se172  1  0.25782488  0.40353787  0.94513128  1
  Se  Se173  1  0.25473685  0.74490912  0.43724389  1
  Se  Se174  1  0.24266422  0.74986002  0.94751332  1
  Se  Se175  1  0.58885814  0.07379618  0.43633619  1
  Se  Se176  1  0.58565781  0.08767521  0.95064753  1
  Se  Se177  1  0.59629072  0.40814951  0.44686328  1
  Se  Se178  1  0.56306059  0.43453928  0.94658181  1
  Se  Se179  1  0.58439324  0.74500421  0.45149554  1
  Se  Se180  1  0.59199861  0.74502482  0.93686189  1
  Se  Se181  1  0.91719096  0.08292514  0.45032271  1
  Se  Se182  1  0.93176343  0.08081433  0.93906542  1
  Se  Se183  1  0.91657264  0.43402928  0.45636388  1
  Se  Se184  1  0.91331374  0.41641873  0.93974049  1
  Se  Se185  1  0.91951937  0.75204488  0.44454598  1
  Se  Se186  1  0.91653025  0.75256839  0.94229994  1
  Se  Se187  1  0.24742630  0.25536830  0.30718094  1
  Se  Se188  1  0.24353404  0.23946255  0.80753229  1
  Se  Se189  1  0.25355435  0.58656504  0.30134001  1
  Se  Se190  1  0.25063452  0.57227566  0.80191850  1
  Se  Se191  1  0.24442591  0.91687108  0.29767733  1
  Se  Se192  1  0.25287304  0.90935093  0.80349330  1
  Se  Se193  1  0.57522221  0.24288938  0.30640903  1
  Se  Se194  1  0.58045408  0.25045217  0.80801139  1
  Se  Se195  1  0.57557569  0.57079081  0.30748542  1
  Se  Se196  1  0.57895414  0.57607608  0.81805039  1
  Se  Se197  1  0.57530231  0.90655869  0.31627122  1
  Se  Se198  1  0.57286135  0.90933388  0.80887948  1
  Se  Se199  1  0.90914151  0.24451515  0.31551479  1
  Se  Se200  1  0.91860550  0.25408954  0.78993217  1
  Se  Se201  1  0.92002279  0.58746100  0.30405856  1
  Se  Se202  1  0.92175662  0.58943714  0.79880508  1
  Se  Se203  1  0.91223795  0.91246560  0.30472743  1
  Se  Se204  1  0.92238596  0.91942905  0.80568040  1
  Se  Se205  1  0.08118564  0.08857623  0.30688261  1
  Se  Se206  1  0.09417804  0.08387068  0.79312089  1
  Se  Se207  1  0.09043962  0.42489636  0.31509506  1
  Se  Se208  1  0.08031313  0.41162531  0.79903686  1
  Se  Se209  1  0.09473747  0.76753733  0.29347274  1
  Se  Se210  1  0.08693977  0.74497218  0.80301238  1
  Se  Se211  1  0.41226408  0.08464839  0.29865254  1
  Se  Se212  1  0.41865187  0.08179091  0.80233416  1
  Se  Se213  1  0.41277032  0.40987049  0.30076053  1
  Se  Se214  1  0.42030394  0.41224508  0.81628791  1
  Se  Se215  1  0.41212152  0.74778823  0.30653423  1
  Se  Se216  1  0.41306905  0.74253841  0.80121640  1
  Se  Se217  1  0.75563106  0.08912650  0.31272967  1
  Se  Se218  1  0.76347536  0.09482464  0.80570429  1
  Se  Se219  1  0.76386091  0.41654613  0.31420483  1
  Se  Se220  1  0.75038044  0.42371457  0.80324473  1
  Se  Se221  1  0.75285301  0.74652903  0.30694932  1
  Se  Se222  1  0.75530138  0.76164818  0.80867253  1
  Se  Se223  1  0.24647910  0.08710553  0.19660847  1
  Se  Se224  1  0.27025263  0.06732219  0.69968172  1
  Se  Se225  1  0.24942373  0.41322746  0.20030721  1
  Se  Se226  1  0.23729926  0.41575725  0.68292792  1
  Se  Se227  1  0.25149768  0.74440417  0.20243469  1
  Se  Se228  1  0.25540998  0.74377095  0.69313028  1
  Se  Se229  1  0.57917907  0.08787104  0.18924043  1
  Se  Se230  1  0.57942365  0.09115327  0.68767696  1
  Se  Se231  1  0.57422684  0.41754280  0.18583462  1
  Se  Se232  1  0.58382168  0.41289863  0.70735451  1
  Se  Se233  1  0.57022560  0.75897145  0.19298543  1
  Se  Se234  1  0.58220358  0.75790783  0.68908538  1
  Se  Se235  1  0.90977397  0.08921255  0.20796689  1
  Se  Se236  1  0.91427155  0.07948020  0.69874411  1
  Se  Se237  1  0.91599009  0.41811357  0.19082554  1
  Se  Se238  1  0.92134563  0.42101231  0.69475228  1
  Se  Se239  1  0.91527874  0.74439044  0.19109402  1
  Se  Se240  1  0.92101807  0.75108643  0.69941375  1
  Se  Se241  1  0.08514488  0.24208268  0.18769841  1
  Se  Se242  1  0.10264437  0.25006367  0.68297562  1
  Se  Se243  1  0.07727161  0.58152521  0.20144067  1
  Se  Se244  1  0.08057074  0.58828347  0.69693178  1
  Se  Se245  1  0.05100446  0.94173729  0.18717595  1
  Se  Se246  1  0.08283798  0.91256271  0.70287325  1
  Se  Se247  1  0.41615676  0.25353319  0.18654943  1
  Se  Se248  1  0.41735834  0.24258249  0.68712922  1
  Se  Se249  1  0.41214564  0.58774216  0.19923314  1
  Se  Se250  1  0.41760280  0.57717077  0.70028592  1
  Se  Se251  1  0.41119376  0.92372633  0.19937487  1
  Se  Se252  1  0.41403187  0.91527147  0.69506849  1
  Se  Se253  1  0.76072300  0.24044012  0.19630450  1
  Se  Se254  1  0.73807750  0.27158228  0.69930536  1
  Se  Se255  1  0.75425735  0.56588580  0.18575846  1
  Se  Se256  1  0.75773402  0.58555942  0.68956216  1
  Se  Se257  1  0.75311630  0.90916958  0.19125302  1
  Se  Se258  1  0.75669093  0.91751250  0.68924842  1
