# generated using pymatgen
data_In86Cu29Se144
_symmetry_space_group_name_H-M   'P 1'
_cell_length_a   17.57980655
_cell_length_b   17.58457293
_cell_length_c   23.44594348
_cell_angle_alpha   90.03320186
_cell_angle_beta   90.02063988
_cell_angle_gamma   90.00674291
_symmetry_Int_Tables_number   1
_chemical_formula_structural   In86Cu29Se144
_chemical_formula_sum   'In86 Cu29 Se144'
_cell_volume   7247.92225949
_cell_formula_units_Z   1
loop_
 _symmetry_equiv_pos_site_id
 _symmetry_equiv_pos_as_xyz
  1  'x, y, z'
loop_
 _atom_site_type_symbol
 _atom_site_label
 _atom_site_symmetry_multiplicity
 _atom_site_fract_x
 _atom_site_fract_y
 _atom_site_fract_z
 _atom_site_occupancy
  In  In0  1  0.00860212  0.15735660  0.12468873  1
  In  In1  1  0.00200698  0.16802096  0.62615553  1
  In  In2  1  0.00418219  0.51656945  0.12600303  1
  In  In3  1  -0.01086533  0.49837353  0.62931438  1
  In  In4  1  -0.00261517  0.82730068  0.11949908  1
  In  In5  1  0.00355462  0.84265576  0.61459719  1
  In  In6  1  0.34344661  0.17028342  0.11772777  1
  In  In7  1  0.32111359  0.16112083  0.62172939  1
  In  In8  1  0.33866931  0.49101474  0.13643468  1
  In  In9  1  0.33980576  0.48954426  0.62016444  1
  In  In10  1  0.31903701  0.83577432  0.12472840  1
  In  In11  1  0.35098338  0.85459979  0.60274815  1
  In  In12  1  0.66407629  0.18075007  0.12546000  1
  In  In13  1  0.67149680  0.15581191  0.63197307  1
  In  In14  1  0.66675267  0.50021919  0.12002878  1
  In  In15  1  0.65991453  0.51271112  0.63389962  1
  In  In16  1  0.66416037  0.81681757  0.12511950  1
  In  In17  1  0.65957268  0.82766187  0.62640716  1
  In  In18  1  0.17487034  0.00791073  0.38722094  1
  In  In19  1  0.18264641  -0.01140479  0.88756676  1
  In  In20  1  0.17408311  0.31922524  0.36959669  1
  In  In21  1  0.15152505  0.32800066  0.87278014  1
  In  In22  1  0.17527394  0.67213127  0.35674111  1
  In  In23  1  0.17989198  0.66901390  0.87817607  1
  In  In24  1  0.48577005  -0.00633008  0.38637030  1
  In  In25  1  0.50727241  0.00290093  0.86495867  1
  In  In26  1  0.50908150  0.34196463  0.37051019  1
  In  In27  1  0.50656240  0.32779866  0.87848775  1
  In  In28  1  0.49945709  0.66317176  0.37293023  1
  In  In29  1  0.49720793  0.65627238  0.87722389  1
  In  In30  1  0.83680930  -0.00414497  0.39125823  1
  In  In31  1  0.81975809  -0.00401695  0.87299252  1
  In  In32  1  0.82388573  0.34121176  0.37554652  1
  In  In33  1  0.84052240  0.33277813  0.87061885  1
  In  In34  1  0.83659509  0.67674917  0.36617717  1
  In  In35  1  0.82465826  0.67498362  0.88183384  1
  In  In36  1  0.00836368  0.16257976  0.38248592  1
  In  In37  1  0.00175802  0.17652693  0.87527178  1
  In  In38  1  -0.01330561  0.50765104  0.36882067  1
  In  In39  1  0.00035082  0.48022707  0.87684030  1
  In  In40  1  0.00645715  0.83181834  0.37886399  1
  In  In41  1  0.00407934  0.82796058  0.87972586  1
  In  In42  1  0.32064123  0.16582446  0.37512675  1
  In  In43  1  0.34930989  0.15148809  0.89191398  1
  In  In44  1  0.34073276  0.50971912  0.36131298  1
  In  In45  1  0.33704879  0.51227252  0.88019356  1
  In  In46  1  0.33938749  0.82660486  0.38490971  1
  In  In47  1  0.32999829  0.82500388  0.87568232  1
  In  In48  1  0.66118080  0.17894352  0.38018111  1
  In  In49  1  0.65553366  0.15972870  0.86542706  1
  In  In50  1  0.65906946  0.49356238  0.36866052  1
  In  In51  1  0.66853353  0.49948572  0.87702864  1
  In  In52  1  0.67566679  0.82770424  0.38519310  1
  In  In53  1  0.67208277  0.84332527  0.86546641  1
  In  In54  1  0.18355472  0.00189437  0.11041796  1
  In  In55  1  0.17614119  0.00442751  0.61981293  1
  In  In56  1  0.18269134  0.33246070  0.13374213  1
  In  In57  1  0.16904012  0.31875196  0.62817955  1
  In  In58  1  0.15607127  0.66846774  0.13760088  1
  In  In59  1  0.15604795  0.67567155  0.62233533  1
  In  In60  1  0.48401005  0.01041568  0.11845354  1
  In  In61  1  0.51381234  -0.02365894  0.64260975  1
  In  In62  1  0.50104643  0.33770428  0.12181321  1
  In  In63  1  0.50200912  0.34994854  0.62466613  1
  In  In64  1  0.51378511  0.65475434  0.13236359  1
  In  In65  1  0.50985532  0.67732408  0.61448761  1
  In  In66  1  0.84426302  -0.00228548  0.12222833  1
  In  In67  1  0.80383952  -0.01709197  0.60357976  1
  In  In68  1  0.81329305  0.33166901  0.12583380  1
  In  In69  1  0.83760119  0.32442227  0.63241803  1
  In  In70  1  0.83391535  0.66692570  0.12200521  1
  In  In71  1  0.81607651  0.66489574  0.62473149  1
  In  In72  1  0.33591988  0.66956585  0.75126316  1
  In  In73  1  0.50287225  0.83463729  -0.00043255  1
  In  In74  1  0.16934528  0.50326478  0.49244390  1
  In  In75  1  -0.00846698  0.01179173  0.74708177  1
  In  In76  1  0.50208512  0.15922033  0.50443437  1
  In  In77  1  0.33330621  0.00070673  0.25213173  1
  In  In78  1  0.00364268  0.33956160  0.24347509  1
  In  In79  1  0.82955838  0.50174874  0.50038748  1
  In  In80  1  0.83217840  0.16486600  -0.00495718  1
  In  In81  1  0.66373107  -0.00092213  0.26068941  1
  In  In82  1  0.16699310  0.50023693  0.00480164  1
  In  In83  1  0.32980862  0.33056372  0.75128299  1
  In  In84  1  0.00705701  -0.00222163  0.25839929  1
  In  In85  1  -0.00503683  0.66229644  0.74779172  1
  Cu  Cu86  1  0.33543856  0.66918096  0.00529732  1
  Cu  Cu87  1  -0.00380628  0.33356028  0.00081013  1
  Cu  Cu88  1  -0.00054146  0.01004849  0.50445595  1
  Cu  Cu89  1  0.82854764  0.83397604  0.74560924  1
  Cu  Cu90  1  0.65959857  0.33572764  -0.00095840  1
  Cu  Cu91  1  0.50142388  0.17654788  0.24746561  1
  Cu  Cu92  1  0.67004204  0.33381436  0.49971434  1
  Cu  Cu93  1  0.50466182  0.49910459  0.24689490  1
  Cu  Cu94  1  0.00452966  -0.00797079  0.00041955  1
  Cu  Cu95  1  0.50539733  0.50422301  0.75145970  1
  Cu  Cu96  1  0.66164661  0.66723187  0.49942960  1
  Cu  Cu97  1  0.16719939  0.16311759  0.75061259  1
  Cu  Cu98  1  -0.00329413  0.67759237  0.49239734  1
  Cu  Cu99  1  0.49599784  0.16851521  0.75119420  1
  Cu  Cu100  1  0.83143955  0.49345329  0.75340310  1
  Cu  Cu101  1  0.33974923  0.33180027  0.49956853  1
  Cu  Cu102  1  0.82837246  0.82838938  0.24733136  1
  Cu  Cu103  1  0.33385184  0.33728204  0.00563647  1
  Cu  Cu104  1  0.16143613  0.83605601  0.24886129  1
  Cu  Cu105  1  -0.00066837  0.66794249  0.00290980  1
  Cu  Cu106  1  0.66503032  -0.00129184  -0.00796960  1
  Cu  Cu107  1  0.67093764  0.66372292  0.00118612  1
  Cu  Cu108  1  0.49432146  0.82321715  0.25481324  1
  Cu  Cu109  1  0.82364876  0.50805313  0.24630839  1
  Cu  Cu110  1  0.83309307  0.17427261  0.25634952  1
  Cu  Cu111  1  0.17459823  0.83816014  0.74848881  1
  Cu  Cu112  1  0.01004633  0.32790771  0.50289611  1
  Cu  Cu113  1  0.82841449  0.16502517  0.74698395  1
  Cu  Cu114  1  0.33163334  0.66461384  0.48935238  1
  Se  Se115  1  0.08464574  0.08058406  0.05114681  1
  Se  Se116  1  0.08742491  0.08922015  0.55709089  1
  Se  Se117  1  0.07737831  0.40832500  0.06492887  1
  Se  Se118  1  0.08274582  0.41694988  0.56086993  1
  Se  Se119  1  0.08872012  0.74502782  0.05656252  1
  Se  Se120  1  0.08350962  0.75497231  0.54723004  1
  Se  Se121  1  0.40870503  0.08192399  0.04346883  1
  Se  Se122  1  0.42018456  0.07397538  0.57024123  1
  Se  Se123  1  0.41552781  0.42405853  0.05616689  1
  Se  Se124  1  0.42341384  0.41976521  0.54611851  1
  Se  Se125  1  0.41919132  0.74607921  0.06610079  1
  Se  Se126  1  0.41520192  0.74532994  0.54619229  1
  Se  Se127  1  0.74211435  0.07757436  0.05919024  1
  Se  Se128  1  0.75327847  0.10098396  0.55079076  1
  Se  Se129  1  0.74892061  0.41541231  0.04973710  1
  Se  Se130  1  0.74535489  0.41405922  0.56501262  1
  Se  Se131  1  0.75224601  0.75210936  0.05166050  1
  Se  Se132  1  0.74635781  0.74957664  0.55262837  1
  Se  Se133  1  0.24918219  0.25312995  0.05566398  1
  Se  Se134  1  0.25193440  0.25263603  0.55127802  1
  Se  Se135  1  0.25491109  0.58880276  0.06643680  1
  Se  Se136  1  0.25608654  0.59078205  0.55882844  1
  Se  Se137  1  0.26280433  0.91629700  0.04451835  1
  Se  Se138  1  0.22535597  0.89504180  0.55627370  1
  Se  Se139  1  0.57931597  0.24854632  0.05166239  1
  Se  Se140  1  0.58864828  0.25691639  0.56209512  1
  Se  Se141  1  0.58201940  0.58273197  0.05074435  1
  Se  Se142  1  0.58406814  0.57755185  0.55215751  1
  Se  Se143  1  0.59099285  0.92568126  0.06354230  1
  Se  Se144  1  0.58699192  0.91958802  0.55837210  1
  Se  Se145  1  0.91838323  0.25134885  0.06291641  1
  Se  Se146  1  0.92049235  0.25378287  0.55725598  1
  Se  Se147  1  0.91602921  0.58148175  0.05242964  1
  Se  Se148  1  0.92328504  0.59575393  0.55653567  1
  Se  Se149  1  0.91525612  0.91258054  0.05091002  1
  Se  Se150  1  0.91445939  0.91852081  0.54744618  1
  Se  Se151  1  0.09360695  0.24919719  0.44665484  1
  Se  Se152  1  0.08148190  0.24983044  0.95118614  1
  Se  Se153  1  0.07534638  0.59297943  0.43524243  1
  Se  Se154  1  0.07769108  0.58775210  0.93938972  1
  Se  Se155  1  0.07758790  0.92740262  0.44464040  1
  Se  Se156  1  0.08836300  0.90758516  0.94828385  1
  Se  Se157  1  0.42034974  0.25210606  0.43848432  1
  Se  Se158  1  0.41817571  0.25648272  0.94969974  1
  Se  Se159  1  0.41628673  0.57748242  0.44170052  1
  Se  Se160  1  0.41869664  0.58398647  0.95444995  1
  Se  Se161  1  0.40217859  0.91987850  0.45580647  1
  Se  Se162  1  0.41673063  0.92055062  0.93616782  1
  Se  Se163  1  0.75449527  0.25262638  0.44730912  1
  Se  Se164  1  0.73937399  0.25306202  0.93754572  1
  Se  Se165  1  0.74462849  0.59002059  0.43659870  1
  Se  Se166  1  0.75383134  0.57939065  0.94771662  1
  Se  Se167  1  0.74320738  0.92085678  0.45287918  1
  Se  Se168  1  0.74992673  0.91086728  0.94676416  1
  Se  Se169  1  0.27147569  0.07572595  0.45260362  1
  Se  Se170  1  0.23015309  0.10401095  0.94459706  1
  Se  Se171  1  0.26057246  0.41129667  0.43644969  1
  Se  Se172  1  0.25352583  0.41121539  0.93959554  1
  Se  Se173  1  0.23988620  0.74349192  0.44058510  1
  Se  Se174  1  0.25106017  0.75059960  0.95241214  1
  Se  Se175  1  0.59289391  0.07270256  0.44163906  1
  Se  Se176  1  0.58114334  0.08308113  0.94227531  1
  Se  Se177  1  0.58679414  0.41748702  0.44706359  1
  Se  Se178  1  0.57861543  0.42176746  0.94557554  1
  Se  Se179  1  0.57774821  0.74862150  0.44416619  1
  Se  Se180  1  0.59230174  0.74536532  0.93895458  1
  Se  Se181  1  0.91601342  0.09270153  0.45055705  1
  Se  Se182  1  0.92447157  0.07123026  0.93761467  1
  Se  Se183  1  0.92742501  0.41014589  0.44517977  1
  Se  Se184  1  0.91040949  0.41357682  0.94894719  1
  Se  Se185  1  0.90797122  0.75766598  0.44221672  1
  Se  Se186  1  0.91726437  0.75095346  0.94779154  1
  Se  Se187  1  0.26259325  0.25155320  0.29832600  1
  Se  Se188  1  0.24807465  0.23918695  0.81456896  1
  Se  Se189  1  0.23937458  0.57024619  0.29548403  1
  Se  Se190  1  0.24192233  0.57300343  0.80522773  1
  Se  Se191  1  0.24286966  0.91128864  0.31239679  1
  Se  Se192  1  0.25492147  0.91596627  0.80731272  1
  Se  Se193  1  0.58907410  0.25377569  0.30211416  1
  Se  Se194  1  0.58088985  0.25454725  0.80023507  1
  Se  Se195  1  0.58469934  0.58495202  0.30201067  1
  Se  Se196  1  0.58713744  0.58547696  0.80738086  1
  Se  Se197  1  0.56975266  0.90776740  0.31489611  1
  Se  Se198  1  0.58606389  0.91849520  0.79764155  1
  Se  Se199  1  0.91969462  0.25091678  0.31272131  1
  Se  Se200  1  0.91580657  0.24374904  0.80086389  1
  Se  Se201  1  0.91209839  0.58910088  0.29624537  1
  Se  Se202  1  0.91087294  0.57626987  0.81420791  1
  Se  Se203  1  0.90515292  0.91128298  0.30891001  1
  Se  Se204  1  0.91344299  0.90758915  0.80723628  1
  Se  Se205  1  0.10065140  0.09221010  0.30843681  1
  Se  Se206  1  0.08890831  0.08249704  0.81306804  1
  Se  Se207  1  0.08557482  0.42057890  0.31436618  1
  Se  Se208  1  0.08494043  0.41694881  0.80193993  1
  Se  Se209  1  0.07510176  0.75343739  0.30032637  1
  Se  Se210  1  0.09387762  0.75254355  0.80468208  1
  Se  Se211  1  0.42899143  0.09134510  0.30964955  1
  Se  Se212  1  0.41187809  0.08642627  0.80455771  1
  Se  Se213  1  0.42108239  0.41516682  0.30000735  1
  Se  Se214  1  0.42009660  0.42531686  0.80950752  1
  Se  Se215  1  0.40742551  0.74486575  0.30772949  1
  Se  Se216  1  0.43068031  0.75718556  0.80811309  1
  Se  Se217  1  0.75943464  0.08861637  0.31628920  1
  Se  Se218  1  0.74790893  0.08012974  0.80134050  1
  Se  Se219  1  0.74913301  0.41734369  0.30009790  1
  Se  Se220  1  0.74751530  0.41189711  0.80753133  1
  Se  Se221  1  0.74041531  0.75244943  0.30247812  1
  Se  Se222  1  0.75226420  0.74858594  0.80270871  1
  Se  Se223  1  0.24885431  0.08895376  0.18840667  1
  Se  Se224  1  0.25057691  0.08007354  0.69809298  1
  Se  Se225  1  0.23848305  0.42951776  0.20323626  1
  Se  Se226  1  0.24311445  0.42349839  0.69033305  1
  Se  Se227  1  0.24902686  0.75291581  0.19894253  1
  Se  Se228  1  0.24880703  0.75603919  0.68686256  1
  Se  Se229  1  0.57725692  0.08571356  0.19164739  1
  Se  Se230  1  0.58129443  0.08316723  0.70096312  1
  Se  Se231  1  0.58741159  0.41642796  0.19121701  1
  Se  Se232  1  0.58669593  0.41686477  0.70001390  1
  Se  Se233  1  0.58480193  0.74797452  0.20183167  1
  Se  Se234  1  0.58975021  0.73472552  0.69516801  1
  Se  Se235  1  0.91064434  0.09070585  0.19825192  1
  Se  Se236  1  0.89710791  0.08279493  0.68016270  1
  Se  Se237  1  0.90432786  0.42421717  0.18703049  1
  Se  Se238  1  0.91752690  0.41299854  0.70039884  1
  Se  Se239  1  0.91567362  0.75143722  0.19248713  1
  Se  Se240  1  0.91334052  0.75854701  0.68570844  1
  Se  Se241  1  0.09262187  0.23785996  0.19513155  1
  Se  Se242  1  0.08236757  0.24720604  0.70010662  1
  Se  Se243  1  0.08121317  0.57941830  0.20502797  1
  Se  Se244  1  0.09139789  0.57506099  0.69132354  1
  Se  Se245  1  0.09002892  0.91907209  0.18465347  1
  Se  Se246  1  0.08482291  0.91559639  0.69372499  1
  Se  Se247  1  0.41714470  0.25369680  0.19103832  1
  Se  Se248  1  0.42050923  0.24723697  0.68636652  1
  Se  Se249  1  0.41788531  0.58552614  0.19892238  1
  Se  Se250  1  0.42270795  0.57791146  0.68840298  1
  Se  Se251  1  0.42478069  0.90910226  0.19162752  1
  Se  Se252  1  0.40403604  0.90972083  0.69566338  1
  Se  Se253  1  0.74503188  0.24989607  0.20237176  1
  Se  Se254  1  0.74328201  0.25218186  0.69859235  1
  Se  Se255  1  0.74355406  0.58954196  0.18934221  1
  Se  Se256  1  0.75263141  0.58377591  0.70291743  1
  Se  Se257  1  0.75197857  0.91652680  0.19059194  1
  Se  Se258  1  0.74605330  0.91673661  0.69211587  1
