# generated using pymatgen
data_In86Cu29Se144
_symmetry_space_group_name_H-M   'P 1'
_cell_length_a   17.58076308
_cell_length_b   17.58523163
_cell_length_c   23.44887018
_cell_angle_alpha   89.99329024
_cell_angle_beta   89.98359779
_cell_angle_gamma   90.00196221
_symmetry_Int_Tables_number   1
_chemical_formula_structural   In86Cu29Se144
_chemical_formula_sum   'In86 Cu29 Se144'
_cell_volume   7249.49434897
_cell_formula_units_Z   1
loop_
 _symmetry_equiv_pos_site_id
 _symmetry_equiv_pos_as_xyz
  1  'x, y, z'
loop_
 _atom_site_type_symbol
 _atom_site_label
 _atom_site_symmetry_multiplicity
 _atom_site_fract_x
 _atom_site_fract_y
 _atom_site_fract_z
 _atom_site_occupancy
  In  In0  1  0.01090005  0.15874986  0.13684385  1
  In  In1  1  0.00249750  0.16495417  0.62330975  1
  In  In2  1  -0.00545048  0.49407880  0.11951485  1
  In  In3  1  0.01468823  0.49356185  0.62893939  1
  In  In4  1  0.01984214  0.83782369  0.12632631  1
  In  In5  1  0.01134619  0.82831422  0.62806400  1
  In  In6  1  0.34876988  0.16067430  0.13625840  1
  In  In7  1  0.33121471  0.17084358  0.62945782  1
  In  In8  1  0.33804520  0.49262851  0.12711843  1
  In  In9  1  0.33416648  0.49792567  0.62446381  1
  In  In10  1  0.33858543  0.83043673  0.13572200  1
  In  In11  1  0.31835866  0.84162631  0.63018402  1
  In  In12  1  0.66623137  0.17624296  0.12016145  1
  In  In13  1  0.66323441  0.14569054  0.62705535  1
  In  In14  1  0.66613277  0.49881201  0.11433322  1
  In  In15  1  0.66635575  0.51201416  0.62932916  1
  In  In16  1  0.65130373  0.84793457  0.12270391  1
  In  In17  1  0.66235107  0.84070435  0.63470679  1
  In  In18  1  0.17349275  0.01089329  0.38656317  1
  In  In19  1  0.16976613  0.00400435  0.86462729  1
  In  In20  1  0.16758088  0.33649272  0.37664423  1
  In  In21  1  0.16258400  0.32882493  0.86625498  1
  In  In22  1  0.17785571  0.65060259  0.38547215  1
  In  In23  1  0.17306768  0.67160773  0.86421467  1
  In  In24  1  0.47576477  0.01289461  0.37726666  1
  In  In25  1  0.49188211  -0.00092332  0.87125378  1
  In  In26  1  0.50269742  0.33825390  0.37827461  1
  In  In27  1  0.49166540  0.34477833  0.88008047  1
  In  In28  1  0.47801883  0.67825323  0.37743557  1
  In  In29  1  0.49443881  0.66330246  0.87509095  1
  In  In30  1  0.84295020  -0.00064785  0.38388660  1
  In  In31  1  0.83603191  0.00425893  0.86131479  1
  In  In32  1  0.83003115  0.31428273  0.38223368  1
  In  In33  1  0.84546375  0.32743359  0.86984426  1
  In  In34  1  0.83775656  0.66461161  0.38256264  1
  In  In35  1  0.82506204  0.66046280  0.86910221  1
  In  In36  1  0.00331700  0.16795002  0.38255861  1
  In  In37  1  -0.01134967  0.16833379  0.85195990  1
  In  In38  1  0.01445289  0.50456298  0.37776676  1
  In  In39  1  -0.00986607  0.48938184  0.86850531  1
  In  In40  1  0.01256856  0.85574358  0.37148423  1
  In  In41  1  0.00507919  0.83587591  0.86443982  1
  In  In42  1  0.31539602  0.14787869  0.36089750  1
  In  In43  1  0.34973033  0.18157053  0.85167593  1
  In  In44  1  0.33639402  0.50159666  0.37666427  1
  In  In45  1  0.34397706  0.50986997  0.86821127  1
  In  In46  1  0.32045880  0.83142244  0.36935295  1
  In  In47  1  0.33810295  0.83624678  0.87065079  1
  In  In48  1  0.66063454  0.17384331  0.38480531  1
  In  In49  1  0.65820366  0.14861245  0.86195000  1
  In  In50  1  0.65821254  0.48463562  0.38027586  1
  In  In51  1  0.65604774  0.51188080  0.88122224  1
  In  In52  1  0.67410231  0.83620097  0.37552254  1
  In  In53  1  0.65418300  0.82389262  0.86491750  1
  In  In54  1  0.17167619  -0.01449821  0.14389579  1
  In  In55  1  0.17033405  -0.00229382  0.61814416  1
  In  In56  1  0.17384560  0.32471802  0.13860936  1
  In  In57  1  0.17017748  0.33157383  0.62124349  1
  In  In58  1  0.18364527  0.67282485  0.12747700  1
  In  In59  1  0.17249418  0.66421270  0.62690526  1
  In  In60  1  0.49609613  -0.00318981  0.11478289  1
  In  In61  1  0.50083058  0.00714275  0.63865498  1
  In  In62  1  0.49463246  0.32706589  0.11481515  1
  In  In63  1  0.47462332  0.32586865  0.63052208  1
  In  In64  1  0.47998032  0.65602999  0.10930507  1
  In  In65  1  0.50679936  0.65994155  0.63433405  1
  In  In66  1  0.83872252  0.00878360  0.12516329  1
  In  In67  1  0.82279922  0.02043756  0.63389950  1
  In  In68  1  0.83200779  0.33714667  0.12372098  1
  In  In69  1  0.85109760  0.32657354  0.63137364  1
  In  In70  1  0.84474987  0.65493718  0.11364453  1
  In  In71  1  0.82983723  0.67286411  0.63602330  1
  In  In72  1  0.82565995  0.82651725  -0.00579283  1
  In  In73  1  0.66301446  0.00076758  0.25008227  1
  In  In74  1  0.49145024  0.16637168  0.50255522  1
  In  In75  1  0.01361543  0.66819537  0.24730163  1
  In  In76  1  0.83874086  0.49947133  0.51145070  1
  In  In77  1  0.17677567  0.83065054  -0.00062268  1
  In  In78  1  0.16894702  0.16668094  -0.00000584  1
  In  In79  1  0.49726043  0.83548603  0.51270675  1
  In  In80  1  0.83896295  0.83996823  0.50391910  1
  In  In81  1  0.66056483  0.33086536  0.25000687  1
  In  In82  1  0.82633265  0.16910997  -0.00784501  1
  In  In83  1  0.65753880  0.66006783  0.23875773  1
  In  In84  1  0.66902043  0.33680115  0.75349128  1
  In  In85  1  0.16982688  0.49695352  0.00381510  1
  Cu  Cu86  1  0.84072631  0.83951097  0.74667939  1
  Cu  Cu87  1  0.50165349  0.82960271  0.75216652  1
  Cu  Cu88  1  0.66261450  0.33226031  0.50818871  1
  Cu  Cu89  1  0.65823450  0.66506803  0.50596244  1
  Cu  Cu90  1  0.83344639  0.50952735  0.75002961  1
  Cu  Cu91  1  0.15737661  0.17195827  0.25908599  1
  Cu  Cu92  1  0.49501828  0.49823355  0.75389370  1
  Cu  Cu93  1  0.17334652  0.49666444  0.25635284  1
  Cu  Cu94  1  0.16759206  0.49677161  0.74718758  1
  Cu  Cu95  1  0.33780700  0.00632812  -0.00353699  1
  Cu  Cu96  1  0.65646802  -0.00532550  -0.01029078  1
  Cu  Cu97  1  0.16292208  0.16530866  0.74054754  1
  Cu  Cu98  1  0.84488551  0.15889133  0.25703465  1
  Cu  Cu99  1  0.00024428  0.00040756  0.00101838  1
  Cu  Cu100  1  0.00447915  0.33358013  0.50292698  1
  Cu  Cu101  1  0.66302783  0.33643442  -0.00463251  1
  Cu  Cu102  1  0.33351676  0.66128752  0.50273107  1
  Cu  Cu103  1  0.66277368  0.66812571  -0.00665208  1
  Cu  Cu104  1  -0.00561486  0.32720826  -0.00419033  1
  Cu  Cu105  1  0.16832690  0.83283621  0.74531257  1
  Cu  Cu106  1  0.48741288  0.83952338  0.25157090  1
  Cu  Cu107  1  0.33572991  0.33266133  -0.00454913  1
  Cu  Cu108  1  0.00372200  0.00622158  0.50365231  1
  Cu  Cu109  1  0.49544634  0.50714100  0.25105777  1
  Cu  Cu110  1  0.84359907  0.49002720  0.24783383  1
  Cu  Cu111  1  0.01078672  0.67161203  0.50473777  1
  Cu  Cu112  1  0.00042967  0.65453008  -0.00715039  1
  Cu  Cu113  1  0.33101810  0.33492560  0.49849515  1
  Cu  Cu114  1  0.83738883  0.82573497  0.25319122  1
  Se  Se115  1  0.08502268  0.07119099  0.06240840  1
  Se  Se116  1  0.09002709  0.08968217  0.55293398  1
  Se  Se117  1  0.08154107  0.39669319  0.05837268  1
  Se  Se118  1  0.08857185  0.41907744  0.55191995  1
  Se  Se119  1  0.07860901  0.73598102  0.05463157  1
  Se  Se120  1  0.09556942  0.75360692  0.55621239  1
  Se  Se121  1  0.41662164  0.09167637  0.05182742  1
  Se  Se122  1  0.40892119  0.07162853  0.56261363  1
  Se  Se123  1  0.41571733  0.41873460  0.04992680  1
  Se  Se124  1  0.41672884  0.41421928  0.55344716  1
  Se  Se125  1  0.41358487  0.76485758  0.05614245  1
  Se  Se126  1  0.41000653  0.73967296  0.56738189  1
  Se  Se127  1  0.73869192  0.07139741  0.05227813  1
  Se  Se128  1  0.75153360  0.08508356  0.55149606  1
  Se  Se129  1  0.75155796  0.41215921  0.05071372  1
  Se  Se130  1  0.74575114  0.40890307  0.56803936  1
  Se  Se131  1  0.73787872  0.74269669  0.06330991  1
  Se  Se132  1  0.74186843  0.74758912  0.56026017  1
  Se  Se133  1  0.25805190  0.25575815  0.06008968  1
  Se  Se134  1  0.25420807  0.24756708  0.55348896  1
  Se  Se135  1  0.26274527  0.59112684  0.05537277  1
  Se  Se136  1  0.24908530  0.57846293  0.55539193  1
  Se  Se137  1  0.25583271  0.92940107  0.05909580  1
  Se  Se138  1  0.24671863  0.90831028  0.54971849  1
  Se  Se139  1  0.58371691  0.24851482  0.04752181  1
  Se  Se140  1  0.58180303  0.25281940  0.56752139  1
  Se  Se141  1  0.58207777  0.58419787  0.04995736  1
  Se  Se142  1  0.57733635  0.57838535  0.55608457  1
  Se  Se143  1  0.57396860  0.91198582  0.04326193  1
  Se  Se144  1  0.59077275  0.93047097  0.56229197  1
  Se  Se145  1  0.92250017  0.24326824  0.06050251  1
  Se  Se146  1  0.91857283  0.24973761  0.55257862  1
  Se  Se147  1  0.91663886  0.56881809  0.04260576  1
  Se  Se148  1  0.92505354  0.59756836  0.56531256  1
  Se  Se149  1  0.91998455  0.91555527  0.05671448  1
  Se  Se150  1  0.92449258  0.92658259  0.56660645  1
  Se  Se151  1  0.08845191  0.25282220  0.44803465  1
  Se  Se152  1  0.07024800  0.24517344  0.93526679  1
  Se  Se153  1  0.08682103  0.57831656  0.45541685  1
  Se  Se154  1  0.08590956  0.58085154  0.93354043  1
  Se  Se155  1  0.08717762  0.92092106  0.45182566  1
  Se  Se156  1  0.08188303  0.92214610  0.94108209  1
  Se  Se157  1  0.40714133  0.25213807  0.43695622  1
  Se  Se158  1  0.41251057  0.24547030  0.94013146  1
  Se  Se159  1  0.42044845  0.58267088  0.44863493  1
  Se  Se160  1  0.42185616  0.57548004  0.94631470  1
  Se  Se161  1  0.40887186  0.91389614  0.44427716  1
  Se  Se162  1  0.41484210  0.91508138  0.94516500  1
  Se  Se163  1  0.74585896  0.24674155  0.45727361  1
  Se  Se164  1  0.73658393  0.25661258  0.93102740  1
  Se  Se165  1  0.74210890  0.58476197  0.44764240  1
  Se  Se166  1  0.75279301  0.58504364  0.94748511  1
  Se  Se167  1  0.73937407  0.92702982  0.44858126  1
  Se  Se168  1  0.74631240  0.92237445  0.93216699  1
  Se  Se169  1  0.25974354  0.09421185  0.45248847  1
  Se  Se170  1  0.25702312  0.08371822  0.93507145  1
  Se  Se171  1  0.25034822  0.42104044  0.44500631  1
  Se  Se172  1  0.25175108  0.40913817  0.93643272  1
  Se  Se173  1  0.25478544  0.74695010  0.44689559  1
  Se  Se174  1  0.26213098  0.73754297  0.94060971  1
  Se  Se175  1  0.58298150  0.07218329  0.44394896  1
  Se  Se176  1  0.57681166  0.08393480  0.94003740  1
  Se  Se177  1  0.57859528  0.41468296  0.45578758  1
  Se  Se178  1  0.57781526  0.42343172  0.94831941  1
  Se  Se179  1  0.58707081  0.74796977  0.44237691  1
  Se  Se180  1  0.57927802  0.75128318  0.94240533  1
  Se  Se181  1  0.91607154  0.08756443  0.45205674  1
  Se  Se182  1  0.92549676  0.08052156  0.93826645  1
  Se  Se183  1  0.91978951  0.41313914  0.44175764  1
  Se  Se184  1  0.91246658  0.41299756  0.94535613  1
  Se  Se185  1  0.93119280  0.74967390  0.44176457  1
  Se  Se186  1  0.92644555  0.74535725  0.93714489  1
  Se  Se187  1  0.24824019  0.25607145  0.30453188  1
  Se  Se188  1  0.24388449  0.25058752  0.79516115  1
  Se  Se189  1  0.25508476  0.58517321  0.30475672  1
  Se  Se190  1  0.25129942  0.58047668  0.79983517  1
  Se  Se191  1  0.26014508  0.94069813  0.31251845  1
  Se  Se192  1  0.25065724  0.91378866  0.80183258  1
  Se  Se193  1  0.57254735  0.23803999  0.30723983  1
  Se  Se194  1  0.57321410  0.25197215  0.81061746  1
  Se  Se195  1  0.57844684  0.58115377  0.31462868  1
  Se  Se196  1  0.58025770  0.58393374  0.80347652  1
  Se  Se197  1  0.57243246  0.91176564  0.31360179  1
  Se  Se198  1  0.58223303  0.92103146  0.80217290  1
  Se  Se199  1  0.91937244  0.24968945  0.30991711  1
  Se  Se200  1  0.91523648  0.26171727  0.78818639  1
  Se  Se201  1  0.91436417  0.57993802  0.30704135  1
  Se  Se202  1  0.92112423  0.58862949  0.80366575  1
  Se  Se203  1  0.90991736  0.91696840  0.30645371  1
  Se  Se204  1  0.92567632  0.92274194  0.79817379  1
  Se  Se205  1  0.08259269  0.08298185  0.31348605  1
  Se  Se206  1  0.08214162  0.08160274  0.79668466  1
  Se  Se207  1  0.08238352  0.41824862  0.30505162  1
  Se  Se208  1  0.08072761  0.41528335  0.80052255  1
  Se  Se209  1  0.09236914  0.74870655  0.31884583  1
  Se  Se210  1  0.08362535  0.74834169  0.79808375  1
  Se  Se211  1  0.42002070  0.08989642  0.29571032  1
  Se  Se212  1  0.39687803  0.06228708  0.80030052  1
  Se  Se213  1  0.42218654  0.41933941  0.30784835  1
  Se  Se214  1  0.41018195  0.41076043  0.80133505  1
  Se  Se215  1  0.40532701  0.74930250  0.29884351  1
  Se  Se216  1  0.41575550  0.74673114  0.80329177  1
  Se  Se217  1  0.75280275  0.08838124  0.31476321  1
  Se  Se218  1  0.76610961  0.10076854  0.79828262  1
  Se  Se219  1  0.75771239  0.41894464  0.31002305  1
  Se  Se220  1  0.75546778  0.43033725  0.81381566  1
  Se  Se221  1  0.75367545  0.74355432  0.30566605  1
  Se  Se222  1  0.75718554  0.75734154  0.80302653  1
  Se  Se223  1  0.23747043  0.09888466  0.19375736  1
  Se  Se224  1  0.24841989  0.07954133  0.69233750  1
  Se  Se225  1  0.25643390  0.41564786  0.19975087  1
  Se  Se226  1  0.25078423  0.41407472  0.69275353  1
  Se  Se227  1  0.22397028  0.77949107  0.19439482  1
  Se  Se228  1  0.25410644  0.74448844  0.69915416  1
  Se  Se229  1  0.58044233  0.09015165  0.18573084  1
  Se  Se230  1  0.58646459  0.08378893  0.70742681  1
  Se  Se231  1  0.57848711  0.42752336  0.19000316  1
  Se  Se232  1  0.57420861  0.42038812  0.69021147  1
  Se  Se233  1  0.56952798  0.76041210  0.19048002  1
  Se  Se234  1  0.58851442  0.74749944  0.70009867  1
  Se  Se235  1  0.92239905  0.07440094  0.20078433  1
  Se  Se236  1  0.92337097  0.08609621  0.69641917  1
  Se  Se237  1  0.92424862  0.40763902  0.19349023  1
  Se  Se238  1  0.91525392  0.42731880  0.69521842  1
  Se  Se239  1  0.91360765  0.75087163  0.18648816  1
  Se  Se240  1  0.92277348  0.75146972  0.69739844  1
  Se  Se241  1  0.07569116  0.25629788  0.20348370  1
  Se  Se242  1  0.08221629  0.25470386  0.69075996  1
  Se  Se243  1  0.09676229  0.57019559  0.18525184  1
  Se  Se244  1  0.08505417  0.58558677  0.69716830  1
  Se  Se245  1  0.06889992  0.92194614  0.20624981  1
  Se  Se246  1  0.08818917  0.92040801  0.69343688  1
  Se  Se247  1  0.41670096  0.26552445  0.19460820  1
  Se  Se248  1  0.42032193  0.23440687  0.70454650  1
  Se  Se249  1  0.41398602  0.58750128  0.19399291  1
  Se  Se250  1  0.41386159  0.58054163  0.69723202  1
  Se  Se251  1  0.41634726  0.92976314  0.19428644  1
  Se  Se252  1  0.41961981  0.90855231  0.69471249  1
  Se  Se253  1  0.76172515  0.23849403  0.19618562  1
  Se  Se254  1  0.74845267  0.24727354  0.68751194  1
  Se  Se255  1  0.76270689  0.57132710  0.18852140  1
  Se  Se256  1  0.74354455  0.59089805  0.70236263  1
  Se  Se257  1  0.75810837  0.90789715  0.19116183  1
  Se  Se258  1  0.75119776  0.92188288  0.69819008  1
