# generated using pymatgen
data_In86Cu29Se144
_symmetry_space_group_name_H-M   'P 1'
_cell_length_a   17.58197400
_cell_length_b   17.57778449
_cell_length_c   23.43367656
_cell_angle_alpha   90.01719803
_cell_angle_beta   89.99886060
_cell_angle_gamma   90.02721366
_symmetry_Int_Tables_number   1
_chemical_formula_structural   In86Cu29Se144
_chemical_formula_sum   'In86 Cu29 Se144'
_cell_volume   7242.22697463
_cell_formula_units_Z   1
loop_
 _symmetry_equiv_pos_site_id
 _symmetry_equiv_pos_as_xyz
  1  'x, y, z'
loop_
 _atom_site_type_symbol
 _atom_site_label
 _atom_site_symmetry_multiplicity
 _atom_site_fract_x
 _atom_site_fract_y
 _atom_site_fract_z
 _atom_site_occupancy
  In  In0  1  -0.00886740  0.16172532  0.11645343  1
  In  In1  1  0.00894000  0.15291180  0.63606133  1
  In  In2  1  0.00526876  0.51108283  0.12091799  1
  In  In3  1  -0.00396213  0.50273448  0.64070249  1
  In  In4  1  0.00268994  0.83598896  0.12201837  1
  In  In5  1  -0.00462158  0.83239219  0.62384827  1
  In  In6  1  0.33225334  0.17534660  0.12076215  1
  In  In7  1  0.32251347  0.19146239  0.63015458  1
  In  In8  1  0.33871181  0.49374515  0.13344485  1
  In  In9  1  0.33321495  0.48029995  0.62106717  1
  In  In10  1  0.31159411  0.82778982  0.12087449  1
  In  In11  1  0.32781677  0.84542188  0.62263992  1
  In  In12  1  0.67546624  0.16149997  0.13147293  1
  In  In13  1  0.66232821  0.16838292  0.62565168  1
  In  In14  1  0.66729326  0.50045822  0.12691130  1
  In  In15  1  0.66654181  0.51131746  0.62060736  1
  In  In16  1  0.67762425  0.82344053  0.12918872  1
  In  In17  1  0.66742215  0.81054956  0.62376499  1
  In  In18  1  0.15152306  0.01010368  0.37767083  1
  In  In19  1  0.15797028  0.01631161  0.88816879  1
  In  In20  1  0.17449560  0.31612017  0.37534528  1
  In  In21  1  0.15558681  0.32360369  0.87097337  1
  In  In22  1  0.17293085  0.67555151  0.36996752  1
  In  In23  1  0.16888962  0.69052908  0.88096616  1
  In  In24  1  0.50285546  -0.00888855  0.36837724  1
  In  In25  1  0.49581866  -0.00228744  0.87623087  1
  In  In26  1  0.49607001  0.33970568  0.36437067  1
  In  In27  1  0.50607461  0.34883605  0.87395688  1
  In  In28  1  0.48708449  0.65031837  0.35301364  1
  In  In29  1  0.50024074  0.64677013  0.87607149  1
  In  In30  1  0.82525439  -0.01075055  0.36670047  1
  In  In31  1  0.84540326  -0.01286986  0.88351604  1
  In  In32  1  0.82980943  0.34228237  0.37198006  1
  In  In33  1  0.86068713  0.31433777  0.90528920  1
  In  In34  1  0.83768530  0.67198899  0.36624854  1
  In  In35  1  0.83595804  0.66593454  0.87646956  1
  In  In36  1  0.02152076  0.16082063  0.37496592  1
  In  In37  1  0.00579793  0.16273536  0.87750897  1
  In  In38  1  -0.01042468  0.50369706  0.37013379  1
  In  In39  1  -0.00630221  0.49273611  0.87440873  1
  In  In40  1  -0.00327992  0.83323722  0.37391597  1
  In  In41  1  -0.00036818  0.83467084  0.87305029  1
  In  In42  1  0.31295537  0.17279552  0.37050085  1
  In  In43  1  0.31713844  0.16650648  0.87661262  1
  In  In44  1  0.33811775  0.50360796  0.36772226  1
  In  In45  1  0.34984123  0.50249852  0.87959825  1
  In  In46  1  0.33069857  0.82202860  0.37457180  1
  In  In47  1  0.31765608  0.83052982  0.88808568  1
  In  In48  1  0.66291346  0.16513843  0.36418477  1
  In  In49  1  0.66927712  0.18317029  0.87980198  1
  In  In50  1  0.64497361  0.48403613  0.34830535  1
  In  In51  1  0.66770827  0.50144233  0.88154790  1
  In  In52  1  0.67378998  0.83514051  0.36418852  1
  In  In53  1  0.68733106  0.83053521  0.87819574  1
  In  In54  1  0.16314232  -0.01157758  0.11681335  1
  In  In55  1  0.15393011  -0.00929151  0.61692122  1
  In  In56  1  0.16889511  0.33401522  0.12098605  1
  In  In57  1  0.17226354  0.32534646  0.63393233  1
  In  In58  1  0.15392979  0.67088051  0.13197428  1
  In  In59  1  0.15289111  0.66939789  0.62626619  1
  In  In60  1  0.50281989  0.01200285  0.12947704  1
  In  In61  1  0.50268123  0.00100304  0.62489470  1
  In  In62  1  0.49328050  0.35218287  0.13664978  1
  In  In63  1  0.46314964  0.33309191  0.61904335  1
  In  In64  1  0.50650096  0.64745435  0.13975487  1
  In  In65  1  0.51552587  0.66410715  0.62356094  1
  In  In66  1  0.83747933  -0.00033292  0.12229375  1
  In  In67  1  0.84849289  0.00294546  0.62667940  1
  In  In68  1  0.82936049  0.32226377  0.11498763  1
  In  In69  1  0.83183644  0.34528502  0.63077705  1
  In  In70  1  0.83804331  0.67138025  0.12035425  1
  In  In71  1  0.82448831  0.66636394  0.62970919  1
  In  In72  1  -0.00232259  0.33222580  0.24870179  1
  In  In73  1  0.16610094  0.50022161  0.00265480  1
  In  In74  1  0.67492335  0.00150345  0.74658057  1
  In  In75  1  0.49730288  0.82471870  0.49193252  1
  In  In76  1  0.33378529  0.66443056  0.75699301  1
  In  In77  1  0.83790761  0.16514142  0.50266378  1
  In  In78  1  0.33058186  0.00520543  0.75530180  1
  In  In79  1  0.50118642  0.17271698  0.00686969  1
  In  In80  1  0.49281288  0.16612943  0.49951446  1
  In  In81  1  0.83067447  0.51158742  0.49450687  1
  In  In82  1  0.16935886  0.50045779  0.49850198  1
  In  In83  1  0.33183983  0.00149025  0.24741967  1
  In  In84  1  0.50016800  0.82513780  0.00750273  1
  In  In85  1  0.66874304  0.34650011  0.75331714  1
  Cu  Cu86  1  0.66768281  0.66491481  0.49067145  1
  Cu  Cu87  1  0.16625346  0.49938242  0.75347671  1
  Cu  Cu88  1  0.84221689  0.83745129  0.24308578  1
  Cu  Cu89  1  0.83789305  0.16465804  0.24444846  1
  Cu  Cu90  1  -0.00111222  -0.00564170  0.49961945  1
  Cu  Cu91  1  0.83996820  0.82670119  0.75220324  1
  Cu  Cu92  1  0.65701895  0.33739124  0.48995833  1
  Cu  Cu93  1  0.83368090  0.49573076  0.75968552  1
  Cu  Cu94  1  0.50616063  0.82498456  0.75351147  1
  Cu  Cu95  1  0.50199560  0.17366176  0.24620193  1
  Cu  Cu96  1  0.00012224  -0.00339713  -0.00042409  1
  Cu  Cu97  1  0.33413629  0.33682535  0.00331409  1
  Cu  Cu98  1  0.16797017  0.49875287  0.24746241  1
  Cu  Cu99  1  0.00707418  0.32969107  0.50743823  1
  Cu  Cu100  1  0.15887581  0.83494658  0.24937076  1
  Cu  Cu101  1  0.67261223  0.00391480  0.00490951  1
  Cu  Cu102  1  0.83949526  0.16988264  0.76119181  1
  Cu  Cu103  1  0.50103862  0.49648524  0.74885478  1
  Cu  Cu104  1  0.83199412  0.50589039  0.24395496  1
  Cu  Cu105  1  0.15686506  0.83855949  0.74989159  1
  Cu  Cu106  1  0.67121207  -0.01181468  0.49361508  1
  Cu  Cu107  1  0.33260382  0.66386211  0.49325175  1
  Cu  Cu108  1  0.66812553  0.66654103  0.00627753  1
  Cu  Cu109  1  0.16144333  0.16517368  0.75263992  1
  Cu  Cu110  1  0.66511448  0.34232970  0.00471702  1
  Cu  Cu111  1  0.50244156  0.83437602  0.24774239  1
  Cu  Cu112  1  0.32098606  0.00588767  0.50003244  1
  Cu  Cu113  1  0.00015894  0.67444919  -0.00038212  1
  Cu  Cu114  1  -0.00050838  0.67609693  0.49920193  1
  Se  Se115  1  0.08287499  0.08055579  0.05259938  1
  Se  Se116  1  0.07745674  0.08511155  0.55222425  1
  Se  Se117  1  0.07045555  0.40726569  0.05408303  1
  Se  Se118  1  0.07807079  0.41948179  0.56569110  1
  Se  Se119  1  0.08808634  0.75244357  0.05333715  1
  Se  Se120  1  0.08486069  0.75581320  0.55334886  1
  Se  Se121  1  0.40897129  0.07420076  0.05588599  1
  Se  Se122  1  0.40274286  0.07837717  0.56363812  1
  Se  Se123  1  0.41719145  0.41978759  0.05592693  1
  Se  Se124  1  0.42433184  0.42958185  0.54380180  1
  Se  Se125  1  0.41725277  0.73927470  0.07276704  1
  Se  Se126  1  0.40923386  0.74204856  0.56124320  1
  Se  Se127  1  0.75564297  0.08967189  0.05541276  1
  Se  Se128  1  0.74040921  0.07306501  0.55876930  1
  Se  Se129  1  0.75328861  0.42247445  0.05568030  1
  Se  Se130  1  0.74311404  0.41092437  0.55194330  1
  Se  Se131  1  0.75431903  0.75471305  0.05011124  1
  Se  Se132  1  0.75131996  0.74134934  0.54940191  1
  Se  Se133  1  0.24787420  0.25112994  0.04915758  1
  Se  Se134  1  0.25047204  0.26324277  0.55265590  1
  Se  Se135  1  0.25031326  0.58458643  0.06917677  1
  Se  Se136  1  0.25615000  0.59130879  0.56288212  1
  Se  Se137  1  0.25020496  0.91413812  0.04651141  1
  Se  Se138  1  0.24351708  0.91352382  0.54908117  1
  Se  Se139  1  0.58850782  0.26083065  0.06856527  1
  Se  Se140  1  0.58473207  0.25966798  0.55775335  1
  Se  Se141  1  0.58311266  0.58351301  0.05703593  1
  Se  Se142  1  0.58378337  0.58361835  0.54592606  1
  Se  Se143  1  0.58977109  0.92378255  0.06279738  1
  Se  Se144  1  0.58741572  0.91453952  0.55634318  1
  Se  Se145  1  0.92015989  0.25193321  0.04679020  1
  Se  Se146  1  0.92148649  0.25543266  0.56733188  1
  Se  Se147  1  0.91947977  0.58662489  0.05055741  1
  Se  Se148  1  0.92570032  0.58874766  0.55986401  1
  Se  Se149  1  0.91565122  0.91369584  0.05228985  1
  Se  Se150  1  0.91196726  0.91495691  0.55274986  1
  Se  Se151  1  0.08610751  0.24946833  0.44971925  1
  Se  Se152  1  0.09594192  0.23703745  0.94638332  1
  Se  Se153  1  0.07456043  0.58901632  0.44041041  1
  Se  Se154  1  0.08013868  0.59193463  0.93940971  1
  Se  Se155  1  0.08257906  0.91381112  0.44403793  1
  Se  Se156  1  0.08376510  0.91293064  0.94486852  1
  Se  Se157  1  0.40966124  0.25425589  0.43551593  1
  Se  Se158  1  0.41524068  0.25849036  0.93991819  1
  Se  Se159  1  0.41846396  0.58677090  0.43912068  1
  Se  Se160  1  0.41552661  0.58822605  0.95301731  1
  Se  Se161  1  0.40551388  0.92704761  0.44150866  1
  Se  Se162  1  0.41236145  0.92019111  0.94727221  1
  Se  Se163  1  0.74302174  0.25249655  0.44054078  1
  Se  Se164  1  0.74636496  0.25009191  0.95793247  1
  Se  Se165  1  0.73931141  0.58228961  0.42539025  1
  Se  Se166  1  0.75063171  0.58721906  0.94731190  1
  Se  Se167  1  0.75429071  0.90637713  0.44228741  1
  Se  Se168  1  0.75284040  0.91643140  0.95277032  1
  Se  Se169  1  0.24229116  0.08914290  0.44442743  1
  Se  Se170  1  0.26156879  0.07716733  0.95128008  1
  Se  Se171  1  0.25757185  0.41268845  0.43807342  1
  Se  Se172  1  0.25376096  0.41173459  0.93823607  1
  Se  Se173  1  0.24643289  0.75111993  0.44885028  1
  Se  Se174  1  0.26562281  0.73068691  0.95690545  1
  Se  Se175  1  0.58898290  0.07416459  0.44132227  1
  Se  Se176  1  0.58968142  0.07882588  0.94316978  1
  Se  Se177  1  0.57883641  0.42112738  0.43559894  1
  Se  Se178  1  0.58012534  0.42256680  0.95102804  1
  Se  Se179  1  0.58544578  0.74161971  0.42851237  1
  Se  Se180  1  0.59006587  0.74381077  0.93980812  1
  Se  Se181  1  0.92068796  0.07673483  0.43770808  1
  Se  Se182  1  0.91766887  0.08336902  0.94712857  1
  Se  Se183  1  0.92557421  0.40805759  0.44674656  1
  Se  Se184  1  0.90838803  0.43607140  0.95367542  1
  Se  Se185  1  0.91150154  0.75021842  0.44320588  1
  Se  Se186  1  0.91579198  0.75478673  0.94358705  1
  Se  Se187  1  0.24938566  0.25410179  0.29312990  1
  Se  Se188  1  0.24791634  0.24961789  0.80160364  1
  Se  Se189  1  0.24733739  0.58440501  0.30339441  1
  Se  Se190  1  0.24219700  0.57828305  0.81776628  1
  Se  Se191  1  0.24295424  0.91334277  0.31068507  1
  Se  Se192  1  0.24082325  0.91271680  0.81205006  1
  Se  Se193  1  0.58552869  0.25583118  0.30026729  1
  Se  Se194  1  0.57785571  0.24807194  0.80613645  1
  Se  Se195  1  0.60268853  0.60425423  0.29524862  1
  Se  Se196  1  0.58663875  0.57549093  0.80393194  1
  Se  Se197  1  0.58748204  0.91923786  0.29734744  1
  Se  Se198  1  0.58486949  0.91094420  0.81061158  1
  Se  Se199  1  0.91202843  0.24017983  0.31409799  1
  Se  Se200  1  0.91991406  0.25398373  0.81463238  1
  Se  Se201  1  0.91847730  0.58594626  0.29700313  1
  Se  Se202  1  0.91890639  0.58403240  0.80637503  1
  Se  Se203  1  0.92197028  0.91963775  0.30141025  1
  Se  Se204  1  0.91724396  0.91790854  0.80219418  1
  Se  Se205  1  0.08750974  0.08525773  0.29607549  1
  Se  Se206  1  0.08261534  0.07708128  0.80496169  1
  Se  Se207  1  0.08957957  0.41991816  0.31235750  1
  Se  Se208  1  0.08042864  0.41574683  0.80468387  1
  Se  Se209  1  0.07881339  0.74863060  0.30442056  1
  Se  Se210  1  0.08163266  0.74871571  0.80342833  1
  Se  Se211  1  0.42256192  0.09292161  0.30937321  1
  Se  Se212  1  0.42438201  0.09563868  0.81098781  1
  Se  Se213  1  0.42126400  0.42830721  0.29509716  1
  Se  Se214  1  0.41498736  0.41734562  0.80247941  1
  Se  Se215  1  0.41189015  0.75492725  0.29793092  1
  Se  Se216  1  0.42147020  0.75738778  0.81775302  1
  Se  Se217  1  0.75220569  0.08393606  0.30095981  1
  Se  Se218  1  0.75499781  0.08825829  0.81671564  1
  Se  Se219  1  0.75496777  0.41389962  0.29509654  1
  Se  Se220  1  0.76386637  0.41081065  0.82351890  1
  Se  Se221  1  0.75694596  0.75362087  0.29555553  1
  Se  Se222  1  0.75217274  0.74557201  0.80278096  1
  Se  Se223  1  0.24391944  0.08616021  0.18485437  1
  Se  Se224  1  0.24032607  0.08534746  0.68793642  1
  Se  Se225  1  0.24612566  0.41100864  0.19541365  1
  Se  Se226  1  0.25069118  0.41776215  0.69958985  1
  Se  Se227  1  0.24433864  0.74987342  0.19998479  1
  Se  Se228  1  0.24683215  0.75932433  0.69472949  1
  Se  Se229  1  0.58708462  0.08476610  0.20122798  1
  Se  Se230  1  0.57296441  0.09293247  0.69713536  1
  Se  Se231  1  0.59119175  0.41948907  0.20062560  1
  Se  Se232  1  0.57683308  0.41871938  0.68255333  1
  Se  Se233  1  0.58526560  0.74976126  0.19575514  1
  Se  Se234  1  0.58836488  0.74103443  0.70130908  1
  Se  Se235  1  0.92103925  0.08082896  0.19361242  1
  Se  Se236  1  0.91528276  0.08224677  0.70456664  1
  Se  Se237  1  0.91254961  0.42167297  0.18517531  1
  Se  Se238  1  0.91609167  0.41209588  0.70529085  1
  Se  Se239  1  0.92309574  0.74986390  0.19136655  1
  Se  Se240  1  0.91812238  0.74403104  0.69305237  1
  Se  Se241  1  0.08330166  0.24404648  0.18682008  1
  Se  Se242  1  0.07869403  0.25199113  0.70006256  1
  Se  Se243  1  0.07832908  0.58150392  0.20115959  1
  Se  Se244  1  0.08530673  0.58737947  0.70249226  1
  Se  Se245  1  0.08146939  0.92036386  0.19426175  1
  Se  Se246  1  0.07552214  0.91973717  0.69377045  1
  Se  Se247  1  0.41435927  0.25070427  0.19308594  1
  Se  Se248  1  0.42275001  0.24441956  0.69928821  1
  Se  Se249  1  0.41875860  0.57004888  0.20789804  1
  Se  Se250  1  0.42044433  0.57955561  0.68893412  1
  Se  Se251  1  0.41910958  0.90952909  0.18584087  1
  Se  Se252  1  0.42645922  0.90834125  0.69689747  1
  Se  Se253  1  0.75526265  0.25315482  0.19642147  1
  Se  Se254  1  0.75717929  0.24195734  0.69610346  1
  Se  Se255  1  0.75271847  0.59111228  0.18981679  1
  Se  Se256  1  0.75202147  0.57320881  0.69798547  1
  Se  Se257  1  0.75285082  0.91918736  0.19285967  1
  Se  Se258  1  0.75805619  0.90367164  0.68742998  1
