# generated using pymatgen
data_In86Cu29Se144
_symmetry_space_group_name_H-M   'P 1'
_cell_length_a   17.58819905
_cell_length_b   17.58615413
_cell_length_c   23.43708380
_cell_angle_alpha   89.98922825
_cell_angle_beta   89.99620348
_cell_angle_gamma   89.98485058
_symmetry_Int_Tables_number   1
_chemical_formula_structural   In86Cu29Se144
_chemical_formula_sum   'In86 Cu29 Se144'
_cell_volume   7249.29538673
_cell_formula_units_Z   1
loop_
 _symmetry_equiv_pos_site_id
 _symmetry_equiv_pos_as_xyz
  1  'x, y, z'
loop_
 _atom_site_type_symbol
 _atom_site_label
 _atom_site_symmetry_multiplicity
 _atom_site_fract_x
 _atom_site_fract_y
 _atom_site_fract_z
 _atom_site_occupancy
  In  In0  1  0.00020166  0.17056586  0.12415158  1
  In  In1  1  -0.00015606  0.17031776  0.62695292  1
  In  In2  1  0.00038732  0.49849851  0.13064409  1
  In  In3  1  -0.00551762  0.51232299  0.61941470  1
  In  In4  1  -0.02483330  0.83161377  0.13531069  1
  In  In5  1  -0.00057246  0.81261185  0.62191788  1
  In  In6  1  0.32795446  0.17218052  0.13515854  1
  In  In7  1  0.34252380  0.15372504  0.62177288  1
  In  In8  1  0.33346693  0.50337867  0.12790250  1
  In  In9  1  0.35029011  0.50041081  0.62500490  1
  In  In10  1  0.35179904  0.81738687  0.13709296  1
  In  In11  1  0.32848342  0.82238359  0.60903952  1
  In  In12  1  0.67322413  0.16415514  0.12366856  1
  In  In13  1  0.67264007  0.17496154  0.62104048  1
  In  In14  1  0.66024227  0.50268992  0.11948395  1
  In  In15  1  0.66700343  0.49656705  0.61846786  1
  In  In16  1  0.66703536  0.83070350  0.12114854  1
  In  In17  1  0.66053425  0.83986933  0.62492777  1
  In  In18  1  0.16739651  -0.02457011  0.37581025  1
  In  In19  1  0.18305013  0.00376013  0.88604988  1
  In  In20  1  0.16488021  0.33668290  0.36500449  1
  In  In21  1  0.16025876  0.33801440  0.89103666  1
  In  In22  1  0.18204262  0.68030127  0.36470267  1
  In  In23  1  0.16560627  0.65788570  0.87716002  1
  In  In24  1  0.50061197  0.00231300  0.36620206  1
  In  In25  1  0.49430874  -0.00790300  0.88010444  1
  In  In26  1  0.50497636  0.34083717  0.36908213  1
  In  In27  1  0.51351395  0.33712469  0.87747017  1
  In  In28  1  0.49976046  0.66337124  0.37466083  1
  In  In29  1  0.49749577  0.67180610  0.88386702  1
  In  In30  1  0.82849804  0.00070931  0.36733711  1
  In  In31  1  0.83032599  -0.00612204  0.88941852  1
  In  In32  1  0.83116101  0.33503428  0.36253197  1
  In  In33  1  0.81330447  0.34151873  0.89522340  1
  In  In34  1  0.80641689  0.65716435  0.34993546  1
  In  In35  1  0.82000685  0.66621775  0.90228707  1
  In  In36  1  -0.01266384  0.16825235  0.36656809  1
  In  In37  1  -0.01051000  0.17948990  0.89108934  1
  In  In38  1  -0.00990261  0.49395377  0.36301502  1
  In  In39  1  -0.00019415  0.50980466  0.88731184  1
  In  In40  1  0.00839449  0.82888342  0.37318965  1
  In  In41  1  -0.00569411  0.82194719  0.87886295  1
  In  In42  1  0.34693543  0.18026501  0.36212627  1
  In  In43  1  0.33174872  0.15551506  0.88605077  1
  In  In44  1  0.35535064  0.51932438  0.36328339  1
  In  In45  1  0.32480718  0.50529451  0.88080417  1
  In  In46  1  0.33495190  0.82745130  0.37272482  1
  In  In47  1  0.34781323  0.83034509  0.87968668  1
  In  In48  1  0.66354293  0.16826313  0.36406253  1
  In  In49  1  0.66201122  0.18102094  0.88244585  1
  In  In50  1  0.66173998  0.50031130  0.37196100  1
  In  In51  1  0.66917286  0.49109324  0.89316007  1
  In  In52  1  0.65173041  0.81160050  0.34907111  1
  In  In53  1  0.67084998  0.82202881  0.90077713  1
  In  In54  1  0.16877594  0.01111580  0.12644588  1
  In  In55  1  0.18762967  -0.00459036  0.62623824  1
  In  In56  1  0.16692926  0.33340720  0.12734997  1
  In  In57  1  0.16266335  0.32836320  0.62050570  1
  In  In58  1  0.17457422  0.65575397  0.13359891  1
  In  In59  1  0.16890258  0.67884557  0.61753761  1
  In  In60  1  0.52086717  -0.01506818  0.13685156  1
  In  In61  1  0.49534429  -0.00712342  0.61143195  1
  In  In62  1  0.49403898  0.34045405  0.13007803  1
  In  In63  1  0.52685261  0.35046439  0.60337267  1
  In  In64  1  0.50661656  0.66193446  0.12051736  1
  In  In65  1  0.49325361  0.65516116  0.61499116  1
  In  In66  1  0.79776385  -0.01922922  0.09773799  1
  In  In67  1  0.81993077  -0.00140566  0.62931114  1
  In  In68  1  0.82575715  0.34123323  0.12163064  1
  In  In69  1  0.81855788  0.33204889  0.62590631  1
  In  In70  1  0.82754914  0.66834207  0.12697163  1
  In  In71  1  0.84206985  0.65849603  0.62162917  1
  In  In72  1  -0.01076887  0.34695893  0.76887433  1
  In  In73  1  -0.00259005  0.00967929  0.24381234  1
  In  In74  1  0.83110661  0.82812927  0.49409438  1
  In  In75  1  0.65990174  -0.00570193  0.75426242  1
  In  In76  1  -0.00763907  0.66295405  0.75447318  1
  In  In77  1  0.50028237  0.16567248  0.00935265  1
  In  In78  1  0.34316098  0.33283764  0.74634135  1
  In  In79  1  0.16973892  0.50395790  0.49086532  1
  In  In80  1  0.16127070  0.83682610  0.00630902  1
  In  In81  1  0.17435315  0.16259014  0.49745744  1
  In  In82  1  0.34022210  -0.00053816  0.75548354  1
  In  In83  1  0.82588940  0.17151463  0.48284964  1
  In  In84  1  0.66809124  0.66803503  0.76205717  1
  In  In85  1  0.00167039  -0.00109240  0.76404092  1
  Cu  Cu86  1  0.17981006  0.50980709  0.75112968  1
  Cu  Cu87  1  0.00431387  0.33609805  0.01046720  1
  Cu  Cu88  1  0.66808382  0.66375310  0.48993010  1
  Cu  Cu89  1  0.82411909  0.50005946  0.24231108  1
  Cu  Cu90  1  0.33744966  -0.00124048  0.01154200  1
  Cu  Cu91  1  0.16918494  0.82949444  0.24796482  1
  Cu  Cu92  1  0.00501166  -0.01052742  0.50228281  1
  Cu  Cu93  1  0.16564749  0.49368937  0.24994255  1
  Cu  Cu94  1  -0.00780274  0.33514740  0.48887260  1
  Cu  Cu95  1  0.50561551  0.50621897  0.24653299  1
  Cu  Cu96  1  0.66163359  -0.00255119  0.48756078  1
  Cu  Cu97  1  0.33570094  -0.00471831  0.48996629  1
  Cu  Cu98  1  0.16756413  0.16761578  0.24883223  1
  Cu  Cu99  1  0.50184364  0.17267785  0.24543532  1
  Cu  Cu100  1  0.83214935  0.16930099  0.24027848  1
  Cu  Cu101  1  0.33453363  0.66553677  0.00778836  1
  Cu  Cu102  1  0.82416470  0.49637966  0.75903830  1
  Cu  Cu103  1  0.34676753  0.33389592  0.48905964  1
  Cu  Cu104  1  0.50239471  0.83048991  0.24833128  1
  Cu  Cu105  1  -0.00532498  0.66140050  0.49017928  1
  Cu  Cu106  1  0.50675072  0.50359388  0.74516543  1
  Cu  Cu107  1  0.16389600  0.18004208  0.76239540  1
  Cu  Cu108  1  0.82067170  0.16686733  0.75102186  1
  Cu  Cu109  1  0.00153433  0.66720978  0.01000743  1
  Cu  Cu110  1  -0.00109393  0.00205870  0.01104856  1
  Cu  Cu111  1  0.32909350  0.33432991  0.00911467  1
  Cu  Cu112  1  0.49792202  0.82491095  0.75292304  1
  Cu  Cu113  1  0.17007796  0.83452609  0.74015670  1
  Cu  Cu114  1  0.51262651  0.17354992  0.74580436  1
  Se  Se115  1  0.08544817  0.08688890  0.05598307  1
  Se  Se116  1  0.08077048  0.07563978  0.56147633  1
  Se  Se117  1  0.08791758  0.42165855  0.05925578  1
  Se  Se118  1  0.07349938  0.41133706  0.55255106  1
  Se  Se119  1  0.07862165  0.74883399  0.07134668  1
  Se  Se120  1  0.07711824  0.74349268  0.54497029  1
  Se  Se121  1  0.41585736  0.07736287  0.07287170  1
  Se  Se122  1  0.41631217  0.08085295  0.54409981  1
  Se  Se123  1  0.41389988  0.41884269  0.05727537  1
  Se  Se124  1  0.41922435  0.42029902  0.54861316  1
  Se  Se125  1  0.42116664  0.75118869  0.05387986  1
  Se  Se126  1  0.44467767  0.77051465  0.55744885  1
  Se  Se127  1  0.75593570  0.10264627  0.04377535  1
  Se  Se128  1  0.74567846  0.07411588  0.54904064  1
  Se  Se129  1  0.76267907  0.43938193  0.05129092  1
  Se  Se130  1  0.76464406  0.42540786  0.55428437  1
  Se  Se131  1  0.75176782  0.74833345  0.05315086  1
  Se  Se132  1  0.74131006  0.74039284  0.55987715  1
  Se  Se133  1  0.24903737  0.24592966  0.05877818  1
  Se  Se134  1  0.26569442  0.25877788  0.55507559  1
  Se  Se135  1  0.24778003  0.58178891  0.05520706  1
  Se  Se136  1  0.25717334  0.58530563  0.55856899  1
  Se  Se137  1  0.25822818  0.91312546  0.06908126  1
  Se  Se138  1  0.24906587  0.91680138  0.54609267  1
  Se  Se139  1  0.58856650  0.26213083  0.06122150  1
  Se  Se140  1  0.57846425  0.23299106  0.55140425  1
  Se  Se141  1  0.56222291  0.56265792  0.04846637  1
  Se  Se142  1  0.58865155  0.58309282  0.55038209  1
  Se  Se143  1  0.58453406  0.91843921  0.05350626  1
  Se  Se144  1  0.58695146  0.91371364  0.54751147  1
  Se  Se145  1  0.91498621  0.25444124  0.05773009  1
  Se  Se146  1  0.91920522  0.25051674  0.55313907  1
  Se  Se147  1  0.91894788  0.58444384  0.06252292  1
  Se  Se148  1  0.91108312  0.57944050  0.54398010  1
  Se  Se149  1  0.91532410  0.91102453  0.05411183  1
  Se  Se150  1  0.91650013  0.91933346  0.56256587  1
  Se  Se151  1  0.07741454  0.24977723  0.43840054  1
  Se  Se152  1  0.08585088  0.24719912  0.95702702  1
  Se  Se153  1  0.07850688  0.58710775  0.42792862  1
  Se  Se154  1  0.08699190  0.58842700  0.95457713  1
  Se  Se155  1  0.08532276  0.90371949  0.45056153  1
  Se  Se156  1  0.07361096  0.92687128  0.94121274  1
  Se  Se157  1  0.42802841  0.24781697  0.43903194  1
  Se  Se158  1  0.41026916  0.25675613  0.94486873  1
  Se  Se159  1  0.41219640  0.59180442  0.44683765  1
  Se  Se160  1  0.41245566  0.58376508  0.94747577  1
  Se  Se161  1  0.42098263  0.91654255  0.43597420  1
  Se  Se162  1  0.41489307  0.91635060  0.95398501  1
  Se  Se163  1  0.73320547  0.26725328  0.43562516  1
  Se  Se164  1  0.75505067  0.23404602  0.95772871  1
  Se  Se165  1  0.75360952  0.58405672  0.43705130  1
  Se  Se166  1  0.75812215  0.56337290  0.96417462  1
  Se  Se167  1  0.74119380  0.91305630  0.43102000  1
  Se  Se168  1  0.74481567  0.92053407  0.95890045  1
  Se  Se169  1  0.25682918  0.07864332  0.42982568  1
  Se  Se170  1  0.25177151  0.08434213  0.96240778  1
  Se  Se171  1  0.25832129  0.41069413  0.43406715  1
  Se  Se172  1  0.24952523  0.42027737  0.95258721  1
  Se  Se173  1  0.24855130  0.75336016  0.44452036  1
  Se  Se174  1  0.25338885  0.74735135  0.94589196  1
  Se  Se175  1  0.58457346  0.08589789  0.43553684  1
  Se  Se176  1  0.58487575  0.07708119  0.94259513  1
  Se  Se177  1  0.56775255  0.43375652  0.44156253  1
  Se  Se178  1  0.57044305  0.42008153  0.95647907  1
  Se  Se179  1  0.58967578  0.75179091  0.43782882  1
  Se  Se180  1  0.58374420  0.73626148  0.95838329  1
  Se  Se181  1  0.92661384  0.06980173  0.44130636  1
  Se  Se182  1  0.91664589  0.08095662  0.95186394  1
  Se  Se183  1  0.90936575  0.41639752  0.43666986  1
  Se  Se184  1  0.92490428  0.41153989  0.94653487  1
  Se  Se185  1  0.91173375  0.73781433  0.42914780  1
  Se  Se186  1  0.91891917  0.75100073  0.95582358  1
  Se  Se187  1  0.25013226  0.25421085  0.29914220  1
  Se  Se188  1  0.25344101  0.25323632  0.81787709  1
  Se  Se189  1  0.24891051  0.57942709  0.30080208  1
  Se  Se190  1  0.25781603  0.59343983  0.80504658  1
  Se  Se191  1  0.25349632  0.91240819  0.30049233  1
  Se  Se192  1  0.24413634  0.90690250  0.81042314  1
  Se  Se193  1  0.58473522  0.25714089  0.29771999  1
  Se  Se194  1  0.58953930  0.25595965  0.80385615  1
  Se  Se195  1  0.58648692  0.59008409  0.30179317  1
  Se  Se196  1  0.57990938  0.57304877  0.81660147  1
  Se  Se197  1  0.58547687  0.92236911  0.29554248  1
  Se  Se198  1  0.57909786  0.89873229  0.81699506  1
  Se  Se199  1  0.91651720  0.25142361  0.29426446  1
  Se  Se200  1  0.89812325  0.24630962  0.81537701  1
  Se  Se201  1  0.91141038  0.58168746  0.29529096  1
  Se  Se202  1  0.89974132  0.58033781  0.81860068  1
  Se  Se203  1  0.91818561  0.91342168  0.30592504  1
  Se  Se204  1  0.90496898  0.90648255  0.81220574  1
  Se  Se205  1  0.09224409  0.08553714  0.31304058  1
  Se  Se206  1  0.09094761  0.09377848  0.82167649  1
  Se  Se207  1  0.07546879  0.41008411  0.29676761  1
  Se  Se208  1  0.09708169  0.43435634  0.81356368  1
  Se  Se209  1  0.08237367  0.74752254  0.29890359  1
  Se  Se210  1  0.09205105  0.75739273  0.80500541  1
  Se  Se211  1  0.41785289  0.08523949  0.29601513  1
  Se  Se212  1  0.43189873  0.09792290  0.80955667  1
  Se  Se213  1  0.41982977  0.42017948  0.29742406  1
  Se  Se214  1  0.42476771  0.42578687  0.80908242  1
  Se  Se215  1  0.41989800  0.74768716  0.30301264  1
  Se  Se216  1  0.41468946  0.74304330  0.80646812  1
  Se  Se217  1  0.75289620  0.08666367  0.29898825  1
  Se  Se218  1  0.75018283  0.08330470  0.81466660  1
  Se  Se219  1  0.74312665  0.41898680  0.29952621  1
  Se  Se220  1  0.74301247  0.41438173  0.81413655  1
  Se  Se221  1  0.76580503  0.77065394  0.28685851  1
  Se  Se222  1  0.75928400  0.75557156  0.82140464  1
  Se  Se223  1  0.25115926  0.07910470  0.20220818  1
  Se  Se224  1  0.24444077  0.09750282  0.70146893  1
  Se  Se225  1  0.25231317  0.41529425  0.19514473  1
  Se  Se226  1  0.24293623  0.42012226  0.68835156  1
  Se  Se227  1  0.25493432  0.74389190  0.19988354  1
  Se  Se228  1  0.25457416  0.75159800  0.68971363  1
  Se  Se229  1  0.58939442  0.08892562  0.19637113  1
  Se  Se230  1  0.57810701  0.08107692  0.68595071  1
  Se  Se231  1  0.58605941  0.41853624  0.19495240  1
  Se  Se232  1  0.58626751  0.41798166  0.69149814  1
  Se  Se233  1  0.58324153  0.74867732  0.19148054  1
  Se  Se234  1  0.58099645  0.74863133  0.69310931  1
  Se  Se235  1  0.90136963  0.08156228  0.17883476  1
  Se  Se236  1  0.90836454  0.08811631  0.69591426  1
  Se  Se237  1  0.91236496  0.41490159  0.19537182  1
  Se  Se238  1  0.91147335  0.42813110  0.69375227  1
  Se  Se239  1  0.91180599  0.73886540  0.20430517  1
  Se  Se240  1  0.90234495  0.75676047  0.69646571  1
  Se  Se241  1  0.08242633  0.24830975  0.19585904  1
  Se  Se242  1  0.08114386  0.25558607  0.70181307  1
  Se  Se243  1  0.08277274  0.58174664  0.20067515  1
  Se  Se244  1  0.09060214  0.58171757  0.69136532  1
  Se  Se245  1  0.08791745  0.91109560  0.18875225  1
  Se  Se246  1  0.08373357  0.91597619  0.68738880  1
  Se  Se247  1  0.41281031  0.25706056  0.19959786  1
  Se  Se248  1  0.42898565  0.24533155  0.68300106  1
  Se  Se249  1  0.41890672  0.58815800  0.19401219  1
  Se  Se250  1  0.41962757  0.58746686  0.69767447  1
  Se  Se251  1  0.41729931  0.91983215  0.19991128  1
  Se  Se252  1  0.42460079  0.91064007  0.69200847  1
  Se  Se253  1  0.74652464  0.25535725  0.19267092  1
  Se  Se254  1  0.74152491  0.25328277  0.69940153  1
  Se  Se255  1  0.73873710  0.58489032  0.19252535  1
  Se  Se256  1  0.75407269  0.57959683  0.69466778  1
  Se  Se257  1  0.74962932  0.91825697  0.18887137  1
  Se  Se258  1  0.75638927  0.90167318  0.70038635  1
