# generated using pymatgen
data_In86Cu29Se144
_symmetry_space_group_name_H-M   'P 1'
_cell_length_a   17.58079186
_cell_length_b   17.58109714
_cell_length_c   23.43444658
_cell_angle_alpha   89.99766375
_cell_angle_beta   89.99496745
_cell_angle_gamma   89.98306758
_symmetry_Int_Tables_number   1
_chemical_formula_structural   In86Cu29Se144
_chemical_formula_sum   'In86 Cu29 Se144'
_cell_volume   7243.34359079
_cell_formula_units_Z   1
loop_
 _symmetry_equiv_pos_site_id
 _symmetry_equiv_pos_as_xyz
  1  'x, y, z'
loop_
 _atom_site_type_symbol
 _atom_site_label
 _atom_site_symmetry_multiplicity
 _atom_site_fract_x
 _atom_site_fract_y
 _atom_site_fract_z
 _atom_site_occupancy
  In  In0  1  0.00512536  0.17366413  0.13854269  1
  In  In1  1  -0.00068262  0.16156130  0.60796120  1
  In  In2  1  -0.01085236  0.49199223  0.11966855  1
  In  In3  1  -0.01655270  0.50939206  0.61820168  1
  In  In4  1  0.01544497  0.83560380  0.12964515  1
  In  In5  1  0.01516403  0.82348535  0.61662242  1
  In  In6  1  0.33737949  0.16054508  0.13271660  1
  In  In7  1  0.33463980  0.18320174  0.62067164  1
  In  In8  1  0.32186647  0.50487330  0.12271052  1
  In  In9  1  0.34335154  0.49057594  0.62925586  1
  In  In10  1  0.33642812  0.83774446  0.12411171  1
  In  In11  1  0.32259449  0.81860967  0.62185970  1
  In  In12  1  0.67722229  0.17437299  0.12084631  1
  In  In13  1  0.68065240  0.17202966  0.62126787  1
  In  In14  1  0.67460846  0.48891294  0.13007693  1
  In  In15  1  0.66585758  0.50312855  0.62972531  1
  In  In16  1  0.64843529  0.83151437  0.13001068  1
  In  In17  1  0.65011371  0.82832933  0.62062366  1
  In  In18  1  0.16298563  -0.00183742  0.37401995  1
  In  In19  1  0.16132556  -0.00414793  0.88111903  1
  In  In20  1  0.14352267  0.30275086  0.34639835  1
  In  In21  1  0.18012236  0.33503287  0.87373864  1
  In  In22  1  0.17460535  0.67585164  0.37889262  1
  In  In23  1  0.16947287  0.66487089  0.87776294  1
  In  In24  1  0.48422108  -0.00303999  0.36988021  1
  In  In25  1  0.49507853  0.00072641  0.88690956  1
  In  In26  1  0.50026731  0.33418713  0.36998426  1
  In  In27  1  0.49993132  0.33355164  0.87381436  1
  In  In28  1  0.50198035  0.65429730  0.38476487  1
  In  In29  1  0.50702020  0.67216790  0.87260137  1
  In  In30  1  0.85406546  0.00564760  0.37512895  1
  In  In31  1  0.84411718  0.00573800  0.88203650  1
  In  In32  1  0.83066320  0.33466517  0.37984578  1
  In  In33  1  0.82293184  0.34292032  0.88354723  1
  In  In34  1  0.81861353  0.66498942  0.37704627  1
  In  In35  1  0.81691253  0.66138341  0.86974313  1
  In  In36  1  -0.00339306  0.16166890  0.38192377  1
  In  In37  1  -0.00203238  0.15790816  0.87993987  1
  In  In38  1  0.00372489  0.48320113  0.37509377  1
  In  In39  1  -0.00214482  0.50143870  0.88353106  1
  In  In40  1  0.01137975  0.85019136  0.36900267  1
  In  In41  1  0.00559223  0.84118761  0.87978016  1
  In  In42  1  0.30305140  0.14175805  0.34335163  1
  In  In43  1  0.33748645  0.18217447  0.87455823  1
  In  In44  1  0.33947850  0.49830355  0.37868582  1
  In  In45  1  0.32609021  0.49479059  0.87137444  1
  In  In46  1  0.32175881  0.84486424  0.38000984  1
  In  In47  1  0.33525504  0.82959433  0.88026422  1
  In  In48  1  0.66677901  0.18531326  0.37479909  1
  In  In49  1  0.65759919  0.17589190  0.88466460  1
  In  In50  1  0.66443043  0.49570972  0.37864034  1
  In  In51  1  0.67736500  0.50257858  0.86671021  1
  In  In52  1  0.66356127  0.81501631  0.37230644  1
  In  In53  1  0.65888961  0.82058078  0.87434373  1
  In  In54  1  0.18900650  -0.01359515  0.15548893  1
  In  In55  1  0.16059326  -0.00380098  0.60980900  1
  In  In56  1  0.15843415  0.33539392  0.13614978  1
  In  In57  1  0.18059488  0.33496497  0.61935783  1
  In  In58  1  0.17122001  0.66912916  0.11662878  1
  In  In59  1  0.17310780  0.68514677  0.62621186  1
  In  In60  1  0.48611798  -0.00969175  0.12171259  1
  In  In61  1  0.50974876  -0.00735872  0.61761691  1
  In  In62  1  0.51289358  0.32674545  0.12902654  1
  In  In63  1  0.49134180  0.34500152  0.62769751  1
  In  In64  1  0.50005559  0.68508709  0.12788935  1
  In  In65  1  0.49955466  0.66308121  0.62814973  1
  In  In66  1  0.83505990  0.01785486  0.12887738  1
  In  In67  1  0.83295548  0.00464160  0.61487809  1
  In  In68  1  0.83639171  0.32924789  0.12715111  1
  In  In69  1  0.82884809  0.33373633  0.62388931  1
  In  In70  1  0.83353130  0.64889754  0.12541859  1
  In  In71  1  0.82997266  0.64282446  0.62060713  1
  In  In72  1  -0.00067706  0.66598370  0.74855661  1
  In  In73  1  0.16741648  0.50008557  0.49741403  1
  In  In74  1  0.00192051  -0.00083464  0.73685243  1
  In  In75  1  0.33768452  0.66797194  0.25124435  1
  In  In76  1  0.50136735  0.50294262  -0.00333706  1
  In  In77  1  0.84120985  0.83378729  0.49403755  1
  In  In78  1  0.16375078  0.16414589  0.01232034  1
  In  In79  1  0.33273312  -0.00168633  0.75223298  1
  In  In80  1  0.66523846  -0.00058597  0.24777953  1
  In  In81  1  -0.00248657  0.66664153  0.25545474  1
  In  In82  1  0.49618440  0.16737893  0.49203864  1
  In  In83  1  0.82954573  0.83054413  -0.00392629  1
  In  In84  1  0.00113734  0.33357027  0.74114889  1
  In  In85  1  0.66897888  0.00341617  0.74610896  1
  Cu  Cu86  1  0.33878863  0.66735517  0.50236844  1
  Cu  Cu87  1  0.17404478  0.16649114  0.74640390  1
  Cu  Cu88  1  0.00254882  0.66446486  0.00226642  1
  Cu  Cu89  1  0.16971479  0.50211844  0.74826294  1
  Cu  Cu90  1  0.66314756  0.66471285  -0.00277378  1
  Cu  Cu91  1  0.50394053  0.17926946  0.74981037  1
  Cu  Cu92  1  0.33622823  0.33550973  -0.00218096  1
  Cu  Cu93  1  0.50090614  0.16838595  0.24828765  1
  Cu  Cu94  1  0.83414640  0.17525076  0.25320906  1
  Cu  Cu95  1  0.82783690  0.17759698  0.75196486  1
  Cu  Cu96  1  0.49694714  0.82871506  0.75038490  1
  Cu  Cu97  1  0.66981760  -0.00172650  0.49527676  1
  Cu  Cu98  1  0.83467729  0.83324666  0.25610012  1
  Cu  Cu99  1  0.00205304  0.00184430  0.00828045  1
  Cu  Cu100  1  0.32649436  0.67173560  0.00136751  1
  Cu  Cu101  1  0.82786948  0.48961767  0.25040507  1
  Cu  Cu102  1  0.66269899  0.00117391  0.00747185  1
  Cu  Cu103  1  0.32815017  0.32851127  0.49093834  1
  Cu  Cu104  1  0.32832599  0.00175715  0.00754512  1
  Cu  Cu105  1  0.33039681  -0.00161353  0.49240991  1
  Cu  Cu106  1  0.83400058  0.82887059  0.74728860  1
  Cu  Cu107  1  0.50903046  0.50444683  0.25414153  1
  Cu  Cu108  1  -0.00426469  0.33268756  0.49417696  1
  Cu  Cu109  1  0.16347265  0.49899654  0.24503291  1
  Cu  Cu110  1  0.66342650  0.66065542  0.50194867  1
  Cu  Cu111  1  0.67571882  0.33044470  0.00495697  1
  Cu  Cu112  1  0.00158906  0.32974373  0.00827800  1
  Cu  Cu113  1  0.49941860  0.50073593  0.75277342  1
  Cu  Cu114  1  0.66457292  0.34001915  0.50089620  1
  Se  Se115  1  0.08360553  0.07125213  0.07401407  1
  Se  Se116  1  0.08955410  0.08728254  0.54358339  1
  Se  Se117  1  0.08665932  0.41406020  0.05866648  1
  Se  Se118  1  0.07367998  0.41097311  0.55989850  1
  Se  Se119  1  0.08214960  0.75263801  0.05278066  1
  Se  Se120  1  0.08378719  0.73416410  0.54788766  1
  Se  Se121  1  0.41467835  0.08661132  0.05568898  1
  Se  Se122  1  0.40953386  0.07638372  0.55773115  1
  Se  Se123  1  0.41556915  0.41422380  0.06076518  1
  Se  Se124  1  0.40852141  0.40949238  0.54944205  1
  Se  Se125  1  0.41376914  0.75186854  0.05342964  1
  Se  Se126  1  0.42191819  0.75052719  0.55727034  1
  Se  Se127  1  0.75291640  0.08401463  0.05201755  1
  Se  Se128  1  0.74885049  0.08527328  0.54723463  1
  Se  Se129  1  0.75780893  0.41646734  0.05630449  1
  Se  Se130  1  0.74730674  0.42054392  0.55758405  1
  Se  Se131  1  0.74341369  0.74350345  0.06093294  1
  Se  Se132  1  0.74781027  0.74715706  0.55683570  1
  Se  Se133  1  0.25731085  0.25927008  0.06270197  1
  Se  Se134  1  0.24585902  0.24570758  0.54557900  1
  Se  Se135  1  0.24534384  0.58002982  0.04718385  1
  Se  Se136  1  0.25742724  0.58424188  0.56244374  1
  Se  Se137  1  0.24420055  0.92339781  0.06371318  1
  Se  Se138  1  0.25561201  0.91359234  0.55235821  1
  Se  Se139  1  0.58498415  0.24866552  0.05199671  1
  Se  Se140  1  0.58234934  0.25464197  0.55856183  1
  Se  Se141  1  0.58723302  0.58744639  0.06370020  1
  Se  Se142  1  0.57980945  0.57941374  0.55773109  1
  Se  Se143  1  0.57921666  0.91376524  0.05472017  1
  Se  Se144  1  0.58467790  0.91316144  0.54383447  1
  Se  Se145  1  0.92278190  0.24343348  0.06164454  1
  Se  Se146  1  0.91200692  0.25444986  0.55289283  1
  Se  Se147  1  0.91439001  0.58027880  0.04903360  1
  Se  Se148  1  0.92410874  0.59793839  0.54406371  1
  Se  Se149  1  0.91565511  0.91752453  0.06206571  1
  Se  Se150  1  0.93088001  0.92299702  0.55617671  1
  Se  Se151  1  0.08473514  0.25596519  0.44147562  1
  Se  Se152  1  0.08205789  0.25493841  0.94199837  1
  Se  Se153  1  0.07775565  0.58866246  0.43615379  1
  Se  Se154  1  0.08639704  0.58253455  0.94707051  1
  Se  Se155  1  0.09017781  0.91315594  0.44724158  1
  Se  Se156  1  0.08391775  0.91726062  0.95456671  1
  Se  Se157  1  0.40431559  0.24599968  0.42897463  1
  Se  Se158  1  0.42216642  0.25204672  0.94792582  1
  Se  Se159  1  0.41643571  0.57512764  0.45378037  1
  Se  Se160  1  0.40743919  0.59208300  0.93970541  1
  Se  Se161  1  0.41998243  0.91428915  0.44759290  1
  Se  Se162  1  0.40992861  0.91730582  0.95103203  1
  Se  Se163  1  0.74793249  0.25230275  0.45159888  1
  Se  Se164  1  0.75673595  0.24409092  0.94991187  1
  Se  Se165  1  0.74825653  0.57863324  0.44927525  1
  Se  Se166  1  0.74766488  0.58087923  0.94650227  1
  Se  Se167  1  0.74728943  0.91941978  0.43169184  1
  Se  Se168  1  0.73767644  0.92464609  0.93841647  1
  Se  Se169  1  0.25343378  0.08561781  0.43837138  1
  Se  Se170  1  0.25604879  0.08373784  0.94138270  1
  Se  Se171  1  0.24332124  0.40671484  0.43226305  1
  Se  Se172  1  0.24915666  0.41850089  0.94846956  1
  Se  Se173  1  0.25342002  0.75144762  0.45200639  1
  Se  Se174  1  0.24278560  0.75548158  0.94779031  1
  Se  Se175  1  0.58905888  0.07667849  0.43291951  1
  Se  Se176  1  0.58101304  0.08459595  0.95065953  1
  Se  Se177  1  0.57594340  0.41409815  0.44553048  1
  Se  Se178  1  0.59622327  0.41171228  0.94296530  1
  Se  Se179  1  0.58263123  0.74717467  0.44956051  1
  Se  Se180  1  0.57783163  0.75208983  0.95086784  1
  Se  Se181  1  0.91356635  0.08517278  0.45427994  1
  Se  Se182  1  0.91859157  0.08595201  0.95613108  1
  Se  Se183  1  0.91217052  0.42184598  0.44859129  1
  Se  Se184  1  0.92063233  0.41158358  0.94959906  1
  Se  Se185  1  0.92546516  0.74775286  0.42856886  1
  Se  Se186  1  0.92098076  0.73912533  0.93657541  1
  Se  Se187  1  0.27780511  0.27794747  0.30735481  1
  Se  Se188  1  0.25323797  0.25191112  0.79992705  1
  Se  Se189  1  0.24154419  0.57580162  0.30802566  1
  Se  Se190  1  0.24875243  0.58545652  0.80466985  1
  Se  Se191  1  0.25097145  0.92086285  0.30351731  1
  Se  Se192  1  0.24022482  0.91085498  0.81019412  1
  Se  Se193  1  0.58415184  0.25295115  0.29924928  1
  Se  Se194  1  0.58973317  0.25469395  0.80603105  1
  Se  Se195  1  0.58799323  0.58684010  0.30959050  1
  Se  Se196  1  0.58414453  0.58389063  0.80559679  1
  Se  Se197  1  0.57837760  0.90906509  0.30818754  1
  Se  Se198  1  0.57470621  0.91730670  0.80785822  1
  Se  Se199  1  0.91593359  0.25142043  0.31328387  1
  Se  Se200  1  0.91816984  0.24727771  0.81099335  1
  Se  Se201  1  0.90748821  0.57165187  0.31099948  1
  Se  Se202  1  0.91067951  0.57430969  0.80779156  1
  Se  Se203  1  0.92054578  0.92153085  0.29893226  1
  Se  Se204  1  0.91079435  0.91309541  0.80489714  1
  Se  Se205  1  0.09365737  0.10023333  0.31179912  1
  Se  Se206  1  0.09081629  0.08847262  0.80449499  1
  Se  Se207  1  0.07576116  0.41527334  0.29404841  1
  Se  Se208  1  0.08749382  0.42211033  0.80771754  1
  Se  Se209  1  0.09717114  0.75730226  0.30309938  1
  Se  Se210  1  0.08626252  0.75838337  0.80823535  1
  Se  Se211  1  0.41742211  0.07696565  0.29221976  1
  Se  Se212  1  0.42722327  0.09210058  0.80756687  1
  Se  Se213  1  0.41982368  0.42436510  0.30376835  1
  Se  Se214  1  0.41631680  0.41605994  0.80625562  1
  Se  Se215  1  0.41792976  0.75041117  0.32084135  1
  Se  Se216  1  0.41440137  0.75014615  0.80760140  1
  Se  Se217  1  0.75345588  0.08881130  0.31097548  1
  Se  Se218  1  0.75651610  0.08903917  0.81203834  1
  Se  Se219  1  0.74457064  0.41095213  0.30809637  1
  Se  Se220  1  0.75206267  0.40926083  0.80243603  1
  Se  Se221  1  0.74969681  0.74446931  0.29906414  1
  Se  Se222  1  0.74587088  0.75262288  0.80073129  1
  Se  Se223  1  0.24364012  0.10307294  0.20634020  1
  Se  Se224  1  0.24844747  0.08472733  0.68424290  1
  Se  Se225  1  0.25390832  0.41903663  0.19600869  1
  Se  Se226  1  0.25062912  0.41341184  0.69644139  1
  Se  Se227  1  0.24344687  0.75347597  0.19233741  1
  Se  Se228  1  0.25604334  0.74671241  0.70346191  1
  Se  Se229  1  0.57966235  0.08856586  0.18443368  1
  Se  Se230  1  0.57628222  0.09503674  0.68717805  1
  Se  Se231  1  0.58595930  0.41545642  0.19937128  1
  Se  Se232  1  0.58062076  0.41750395  0.69672003  1
  Se  Se233  1  0.58498987  0.74560369  0.20429232  1
  Se  Se234  1  0.58376491  0.74794758  0.69789412  1
  Se  Se235  1  0.91684958  0.08776527  0.20325793  1
  Se  Se236  1  0.90595618  0.09729733  0.68962575  1
  Se  Se237  1  0.91820276  0.41362638  0.19698558  1
  Se  Se238  1  0.90643987  0.42936241  0.69403575  1
  Se  Se239  1  0.90937500  0.75329382  0.18889581  1
  Se  Se240  1  0.91182626  0.75406516  0.68338194  1
  Se  Se241  1  0.09411169  0.24512443  0.20835951  1
  Se  Se242  1  0.09023644  0.23947664  0.68380100  1
  Se  Se243  1  0.08402483  0.58222422  0.18673646  1
  Se  Se244  1  0.08860835  0.57599430  0.68574964  1
  Se  Se245  1  0.07279756  0.92450355  0.20413078  1
  Se  Se246  1  0.09857967  0.90551640  0.69032115  1
  Se  Se247  1  0.41902904  0.25374494  0.19508466  1
  Se  Se248  1  0.41408713  0.25494340  0.69645004  1
  Se  Se249  1  0.42603106  0.57631405  0.18900451  1
  Se  Se250  1  0.41511178  0.58217805  0.69812886  1
  Se  Se251  1  0.42027908  0.90852062  0.19777137  1
  Se  Se252  1  0.42384434  0.91269431  0.68886469  1
  Se  Se253  1  0.74814361  0.25301111  0.19798626  1
  Se  Se254  1  0.74474937  0.25744762  0.69740153  1
  Se  Se255  1  0.74903893  0.57997722  0.19933788  1
  Se  Se256  1  0.74422144  0.59038035  0.69852292  1
  Se  Se257  1  0.75832879  0.90964937  0.18798267  1
  Se  Se258  1  0.75653958  0.91032544  0.68494546  1
