# generated using pymatgen
data_In86Cu29Se144
_symmetry_space_group_name_H-M   'P 1'
_cell_length_a   17.57311141
_cell_length_b   17.57067990
_cell_length_c   23.42502120
_cell_angle_alpha   90.01123707
_cell_angle_beta   90.00740869
_cell_angle_gamma   89.99748823
_symmetry_Int_Tables_number   1
_chemical_formula_structural   In86Cu29Se144
_chemical_formula_sum   'In86 Cu29 Se144'
_cell_volume   7232.97908910
_cell_formula_units_Z   1
loop_
 _symmetry_equiv_pos_site_id
 _symmetry_equiv_pos_as_xyz
  1  'x, y, z'
loop_
 _atom_site_type_symbol
 _atom_site_label
 _atom_site_symmetry_multiplicity
 _atom_site_fract_x
 _atom_site_fract_y
 _atom_site_fract_z
 _atom_site_occupancy
  In  In0  1  -0.01200178  0.16872188  0.13307431  1
  In  In1  1  -0.01503902  0.18136435  0.62841883  1
  In  In2  1  0.00214353  0.50474724  0.11585647  1
  In  In3  1  -0.01264725  0.49709693  0.60935435  1
  In  In4  1  0.00094758  0.83701005  0.11899988  1
  In  In5  1  0.00764203  0.83500795  0.61816581  1
  In  In6  1  0.33625579  0.15523547  0.12447627  1
  In  In7  1  0.33169146  0.14761805  0.62327359  1
  In  In8  1  0.32739352  0.51343526  0.12280536  1
  In  In9  1  0.32904515  0.51353887  0.63154905  1
  In  In10  1  0.33016935  0.83183763  0.11320132  1
  In  In11  1  0.32975047  0.84332720  0.63667075  1
  In  In12  1  0.67002083  0.16203772  0.13590222  1
  In  In13  1  0.67071278  0.16647465  0.61855240  1
  In  In14  1  0.67712567  0.49466192  0.13203512  1
  In  In15  1  0.66935574  0.49490906  0.63263866  1
  In  In16  1  0.66715198  0.83058556  0.12456809  1
  In  In17  1  0.67318645  0.82305672  0.63675308  1
  In  In18  1  0.14672282  0.00665028  0.37495818  1
  In  In19  1  0.15309971  -0.01191740  0.86639337  1
  In  In20  1  0.16748790  0.34426265  0.38364925  1
  In  In21  1  0.16014974  0.35189336  0.86522891  1
  In  In22  1  0.15716818  0.67277958  0.39453302  1
  In  In23  1  0.17331146  0.65778680  0.87281595  1
  In  In24  1  0.51869609  -0.00086763  0.37398386  1
  In  In25  1  0.47906348  -0.03846518  0.84282575  1
  In  In26  1  0.50080657  0.31788700  0.38389654  1
  In  In27  1  0.50694252  0.32202047  0.87074591  1
  In  In28  1  0.50871926  0.66197496  0.37084307  1
  In  In29  1  0.52000349  0.69282575  0.85260459  1
  In  In30  1  0.83253480  -0.00181758  0.37851775  1
  In  In31  1  0.82375728  -0.00697052  0.86623200  1
  In  In32  1  0.82928547  0.34369291  0.38744781  1
  In  In33  1  0.84393327  0.34302055  0.86504511  1
  In  In34  1  0.83160098  0.68022492  0.39214168  1
  In  In35  1  0.82640879  0.67210674  0.88131539  1
  In  In36  1  0.00455292  0.14622477  0.37657480  1
  In  In37  1  -0.00431945  0.16684870  0.86250368  1
  In  In38  1  -0.00682065  0.50878146  0.40131428  1
  In  In39  1  0.00452935  0.49767073  0.87272632  1
  In  In40  1  -0.01357112  0.84108307  0.39043066  1
  In  In41  1  -0.01007946  0.83970026  0.88051618  1
  In  In42  1  0.33199118  0.18221440  0.38603528  1
  In  In43  1  0.34803770  0.15801920  0.87070991  1
  In  In44  1  0.32002961  0.49722357  0.38341423  1
  In  In45  1  0.31272860  0.51324430  0.87109726  1
  In  In46  1  0.33144785  0.82146120  0.37595209  1
  In  In47  1  0.32832152  0.82499868  0.87065909  1
  In  In48  1  0.66752395  0.16533733  0.37822297  1
  In  In49  1  0.66681061  0.16285795  0.86758806  1
  In  In50  1  0.68194356  0.50882330  0.37069990  1
  In  In51  1  0.67764978  0.51015099  0.86910777  1
  In  In52  1  0.67538811  0.84780362  0.36437157  1
  In  In53  1  0.66974109  0.83556595  0.87588929  1
  In  In54  1  0.17224426  -0.01033638  0.12548204  1
  In  In55  1  0.16992848  -0.00753453  0.63192588  1
  In  In56  1  0.15376976  0.34499569  0.12541221  1
  In  In57  1  0.15006963  0.33655697  0.62438772  1
  In  In58  1  0.16745108  0.66752874  0.11419247  1
  In  In59  1  0.16234789  0.67543013  0.61675898  1
  In  In60  1  0.51196947  -0.00855062  0.12697856  1
  In  In61  1  0.49671301  0.00003344  0.63156203  1
  In  In62  1  0.50834662  0.33958849  0.12845873  1
  In  In63  1  0.51454254  0.33481838  0.62298875  1
  In  In64  1  0.50627888  0.68073211  0.12175622  1
  In  In65  1  0.49918524  0.67665255  0.64586358  1
  In  In66  1  0.83492708  -0.00532113  0.12878019  1
  In  In67  1  0.83492267  0.00077107  0.62424272  1
  In  In68  1  0.82686220  0.33114106  0.12754515  1
  In  In69  1  0.83243132  0.33396819  0.61535543  1
  In  In70  1  0.82450862  0.66228808  0.12009662  1
  In  In71  1  0.82991607  0.66025950  0.61666538  1
  In  In72  1  0.33389469  0.32913033  0.75025792  1
  In  In73  1  0.50796210  0.15909495  -0.00281786  1
  In  In74  1  0.49580683  0.50618709  -0.00964266  1
  In  In75  1  -0.00409843  0.32747058  0.25965024  1
  In  In76  1  0.00056158  0.66143980  0.74387460  1
  In  In77  1  0.16081121  0.16904366  0.50351835  1
  In  In78  1  -0.00514376  0.66986072  0.25869657  1
  In  In79  1  0.83269130  0.16587154  0.00377852  1
  In  In80  1  0.34157991  0.66718950  0.24789388  1
  In  In81  1  0.49829412  0.50141366  0.50592131  1
  In  In82  1  0.33443480  0.00203399  0.24687681  1
  In  In83  1  0.50145392  0.83989322  0.50191049  1
  In  In84  1  0.33577569  0.33333927  0.26637629  1
  In  In85  1  0.16719683  0.16564016  -0.00042342  1
  Cu  Cu86  1  0.67499741  -0.00053609  0.49920613  1
  Cu  Cu87  1  0.66610092  0.66894913  -0.00279522  1
  Cu  Cu88  1  0.50204855  0.16718568  0.25521145  1
  Cu  Cu89  1  -0.00393550  -0.00120208  0.50410918  1
  Cu  Cu90  1  0.16487302  0.50318167  0.25376208  1
  Cu  Cu91  1  0.66356637  0.66922238  0.50438814  1
  Cu  Cu92  1  0.67716597  0.33872810  0.00137574  1
  Cu  Cu93  1  0.16290956  0.82933309  0.74851102  1
  Cu  Cu94  1  0.33265112  -0.01320071  -0.01072059  1
  Cu  Cu95  1  0.00443694  0.34577260  -0.00788791  1
  Cu  Cu96  1  0.15970733  0.83756262  0.24936699  1
  Cu  Cu97  1  -0.00222341  -0.00126195  -0.00009952  1
  Cu  Cu98  1  0.83428916  0.49777224  0.25442138  1
  Cu  Cu99  1  0.83306407  0.17178371  0.73986386  1
  Cu  Cu100  1  0.33074573  0.66727745  -0.00746754  1
  Cu  Cu101  1  0.82565114  0.15974997  0.25590488  1
  Cu  Cu102  1  0.32499584  0.33999136  -0.00179850  1
  Cu  Cu103  1  0.66154514  -0.01194183  -0.00602446  1
  Cu  Cu104  1  -0.00109893  0.67017082  -0.00410766  1
  Cu  Cu105  1  0.83091915  0.83661087  0.25318033  1
  Cu  Cu106  1  0.33059528  0.67346780  0.50663282  1
  Cu  Cu107  1  0.66780142  0.33493395  0.50175271  1
  Cu  Cu108  1  0.83640623  0.83649803  0.75261939  1
  Cu  Cu109  1  0.51015196  0.16401124  0.74585283  1
  Cu  Cu110  1  0.83012611  0.50012840  0.74176713  1
  Cu  Cu111  1  0.33300088  -0.00305676  0.50777738  1
  Cu  Cu112  1  0.49980147  0.49747276  0.75062813  1
  Cu  Cu113  1  0.16733400  0.16182325  0.74459217  1
  Cu  Cu114  1  0.51592487  0.49616340  0.25317143  1
  Se  Se115  1  0.07308549  0.08169205  0.06184930  1
  Se  Se116  1  0.07644864  0.07781550  0.56622135  1
  Se  Se117  1  0.08960109  0.42550176  0.04745738  1
  Se  Se118  1  0.07610727  0.40980260  0.54792853  1
  Se  Se119  1  0.08274243  0.75267352  0.05097616  1
  Se  Se120  1  0.07301552  0.74449662  0.54495952  1
  Se  Se121  1  0.41079874  0.06691121  0.05263589  1
  Se  Se122  1  0.42382591  0.07866534  0.55340992  1
  Se  Se123  1  0.41137560  0.41319562  0.05859481  1
  Se  Se124  1  0.40913090  0.41452411  0.56704660  1
  Se  Se125  1  0.41497363  0.74547980  0.04959935  1
  Se  Se126  1  0.41627458  0.74857325  0.56470871  1
  Se  Se127  1  0.73548065  0.07413734  0.05637125  1
  Se  Se128  1  0.75755474  0.08490687  0.55157674  1
  Se  Se129  1  0.75812901  0.42074664  0.05608574  1
  Se  Se130  1  0.74536126  0.42553379  0.55337971  1
  Se  Se131  1  0.74994131  0.75195515  0.05189909  1
  Se  Se132  1  0.74752787  0.75503386  0.55536079  1
  Se  Se133  1  0.25522701  0.25790938  0.06351551  1
  Se  Se134  1  0.25326297  0.25169742  0.56652841  1
  Se  Se135  1  0.24821757  0.58162059  0.04587249  1
  Se  Se136  1  0.24948675  0.58420500  0.55498896  1
  Se  Se137  1  0.24417767  0.91445986  0.04724727  1
  Se  Se138  1  0.24960356  0.91304361  0.55849742  1
  Se  Se139  1  0.59490317  0.25516631  0.05774952  1
  Se  Se140  1  0.58312893  0.24861912  0.54984344  1
  Se  Se141  1  0.58920407  0.58285074  0.05768918  1
  Se  Se142  1  0.58185827  0.59584040  0.56739989  1
  Se  Se143  1  0.57996931  0.90841023  0.05212320  1
  Se  Se144  1  0.59595001  0.92133133  0.56291566  1
  Se  Se145  1  0.92880724  0.26346383  0.05532033  1
  Se  Se146  1  0.91413129  0.24857146  0.54760753  1
  Se  Se147  1  0.91631277  0.58753123  0.05217120  1
  Se  Se148  1  0.92357239  0.59925211  0.54427322  1
  Se  Se149  1  0.91132662  0.91812593  0.05333099  1
  Se  Se150  1  0.91262324  0.91225176  0.55440080  1
  Se  Se151  1  0.07185623  0.25406730  0.43959651  1
  Se  Se152  1  0.07822610  0.25402814  0.93682296  1
  Se  Se153  1  0.11985573  0.55055625  0.44639470  1
  Se  Se154  1  0.08060774  0.58563781  0.94163891  1
  Se  Se155  1  0.08433895  0.91982663  0.45042088  1
  Se  Se156  1  0.08300624  0.91635296  0.94759344  1
  Se  Se157  1  0.41491862  0.25368335  0.45772531  1
  Se  Se158  1  0.40984218  0.25650855  0.94559845  1
  Se  Se159  1  0.40975997  0.59592415  0.44307091  1
  Se  Se160  1  0.41417868  0.59737472  0.92776500  1
  Se  Se161  1  0.40994492  0.92558426  0.43773821  1
  Se  Se162  1  0.41975824  0.90845535  0.93590064  1
  Se  Se163  1  0.74839249  0.24890916  0.44809254  1
  Se  Se164  1  0.74916384  0.25461439  0.93811480  1
  Se  Se165  1  0.74785334  0.58568331  0.45119929  1
  Se  Se166  1  0.75017387  0.58066053  0.94939551  1
  Se  Se167  1  0.75265298  0.90911407  0.44687631  1
  Se  Se168  1  0.75841393  0.91394442  0.94615818  1
  Se  Se169  1  0.25236247  0.07511521  0.44322510  1
  Se  Se170  1  0.25482542  0.07594899  0.93606676  1
  Se  Se171  1  0.27050185  0.39487967  0.45147048  1
  Se  Se172  1  0.24514659  0.41934817  0.94120387  1
  Se  Se173  1  0.24881428  0.75881604  0.45373321  1
  Se  Se174  1  0.24260184  0.75018987  0.94326615  1
  Se  Se175  1  0.58572169  0.08163379  0.44962180  1
  Se  Se176  1  0.58518796  0.06871368  0.93183863  1
  Se  Se177  1  0.58951324  0.41932955  0.44047109  1
  Se  Se178  1  0.59105089  0.40997682  0.93958741  1
  Se  Se179  1  0.58946983  0.74942738  0.44021659  1
  Se  Se180  1  0.58316552  0.75089064  0.94247976  1
  Se  Se181  1  0.91441508  0.08155058  0.44911927  1
  Se  Se182  1  0.92040117  0.08021323  0.93912940  1
  Se  Se183  1  0.91735366  0.41199514  0.45903334  1
  Se  Se184  1  0.91271906  0.42345674  0.94264416  1
  Se  Se185  1  0.94714643  0.72479618  0.45337650  1
  Se  Se186  1  0.91126180  0.75415739  0.94875160  1
  Se  Se187  1  0.23408737  0.24243088  0.31210959  1
  Se  Se188  1  0.24290578  0.23922515  0.81241495  1
  Se  Se189  1  0.24453645  0.58792081  0.31108494  1
  Se  Se190  1  0.23867216  0.58134374  0.79229723  1
  Se  Se191  1  0.24524397  0.91246966  0.31022685  1
  Se  Se192  1  0.24732019  0.91367588  0.80200193  1
  Se  Se193  1  0.58449753  0.25096923  0.30825386  1
  Se  Se194  1  0.59009933  0.25123730  0.79772280  1
  Se  Se195  1  0.59505091  0.58754975  0.30159299  1
  Se  Se196  1  0.58781807  0.58222119  0.79954827  1
  Se  Se197  1  0.57811682  0.91361103  0.29863704  1
  Se  Se198  1  0.61272913  0.93633181  0.80586251  1
  Se  Se199  1  0.90480919  0.23888181  0.31796750  1
  Se  Se200  1  0.91684706  0.25369409  0.79591842  1
  Se  Se201  1  0.91019762  0.57608655  0.31900101  1
  Se  Se202  1  0.90539070  0.58053440  0.80702121  1
  Se  Se203  1  0.91753789  0.91387623  0.30945498  1
  Se  Se204  1  0.92235425  0.92044908  0.80244640  1
  Se  Se205  1  0.07824827  0.07963299  0.29569476  1
  Se  Se206  1  0.08103911  0.08096548  0.79909374  1
  Se  Se207  1  0.08120601  0.42839064  0.31332382  1
  Se  Se208  1  0.06658349  0.41245490  0.79557786  1
  Se  Se209  1  0.08777572  0.75912459  0.31587260  1
  Se  Se210  1  0.08064322  0.75332757  0.81057025  1
  Se  Se211  1  0.41617454  0.09295680  0.31491085  1
  Se  Se212  1  0.41975853  0.08178756  0.79446808  1
  Se  Se213  1  0.42903915  0.42961574  0.31779194  1
  Se  Se214  1  0.41989000  0.42080745  0.81459357  1
  Se  Se215  1  0.43097026  0.76053952  0.30510122  1
  Se  Se216  1  0.40412373  0.74235898  0.79808718  1
  Se  Se217  1  0.74376013  0.07534007  0.30905311  1
  Se  Se218  1  0.75563320  0.08891382  0.79889951  1
  Se  Se219  1  0.75306693  0.41047909  0.30601462  1
  Se  Se220  1  0.74894742  0.41758703  0.80025729  1
  Se  Se221  1  0.75793356  0.74689692  0.31012061  1
  Se  Se222  1  0.75358493  0.75154430  0.80588573  1
  Se  Se223  1  0.23733892  0.09445584  0.19411879  1
  Se  Se224  1  0.25473494  0.07555103  0.70021531  1
  Se  Se225  1  0.24927109  0.42350320  0.19687261  1
  Se  Se226  1  0.24271245  0.41821864  0.69305968  1
  Se  Se227  1  0.24175677  0.75573063  0.19123926  1
  Se  Se228  1  0.24408923  0.74730450  0.69271620  1
  Se  Se229  1  0.57927722  0.08142635  0.19889114  1
  Se  Se230  1  0.59204124  0.08235116  0.69073493  1
  Se  Se231  1  0.59452973  0.40886866  0.20015063  1
  Se  Se232  1  0.58401330  0.41293207  0.70049374  1
  Se  Se233  1  0.59128048  0.74408786  0.19537192  1
  Se  Se234  1  0.58203342  0.76032551  0.70995160  1
  Se  Se235  1  0.91124327  0.08160225  0.19958282  1
  Se  Se236  1  0.91884937  0.08231136  0.69461978  1
  Se  Se237  1  0.91778474  0.42384802  0.19252086  1
  Se  Se238  1  0.91275997  0.41971035  0.68623304  1
  Se  Se239  1  0.91066578  0.75527613  0.19173329  1
  Se  Se240  1  0.91026349  0.75546687  0.68776545  1
  Se  Se241  1  0.09045864  0.24650693  0.19464316  1
  Se  Se242  1  0.08239461  0.24821956  0.69725667  1
  Se  Se243  1  0.08731297  0.58448546  0.19267650  1
  Se  Se244  1  0.08392231  0.57432470  0.67977005  1
  Se  Se245  1  0.07883966  0.91816937  0.19302514  1
  Se  Se246  1  0.07805990  0.91305679  0.69657475  1
  Se  Se247  1  0.42072952  0.24542226  0.19311497  1
  Se  Se248  1  0.42330435  0.24191306  0.68732241  1
  Se  Se249  1  0.43220813  0.57109171  0.19080643  1
  Se  Se250  1  0.41405876  0.58404098  0.70447306  1
  Se  Se251  1  0.41772066  0.90456551  0.18921565  1
  Se  Se252  1  0.42881453  0.90836411  0.70145822  1
  Se  Se253  1  0.75177397  0.24987955  0.20054618  1
  Se  Se254  1  0.74870199  0.25524773  0.68744790  1
  Se  Se255  1  0.75562861  0.58384458  0.19903146  1
  Se  Se256  1  0.74871311  0.59076014  0.69380785  1
  Se  Se257  1  0.74766608  0.91602543  0.19571391  1
  Se  Se258  1  0.75435855  0.91886828  0.69628740  1
