# generated using pymatgen
data_In86Cu29Se144
_symmetry_space_group_name_H-M   'P 1'
_cell_length_a   17.57226836
_cell_length_b   17.57103883
_cell_length_c   23.42806947
_cell_angle_alpha   90.00689092
_cell_angle_beta   89.98608978
_cell_angle_gamma   89.99887504
_symmetry_Int_Tables_number   1
_chemical_formula_structural   In86Cu29Se144
_chemical_formula_sum   'In86 Cu29 Se144'
_cell_volume   7233.72097436
_cell_formula_units_Z   1
loop_
 _symmetry_equiv_pos_site_id
 _symmetry_equiv_pos_as_xyz
  1  'x, y, z'
loop_
 _atom_site_type_symbol
 _atom_site_label
 _atom_site_symmetry_multiplicity
 _atom_site_fract_x
 _atom_site_fract_y
 _atom_site_fract_z
 _atom_site_occupancy
  In  In0  1  -0.00089473  0.16194461  0.13657522  1
  In  In1  1  0.01391619  0.17215917  0.61223316  1
  In  In2  1  -0.00694807  0.50898045  0.13080544  1
  In  In3  1  0.01723964  0.49322548  0.64638723  1
  In  In4  1  -0.00398812  0.83643946  0.12991820  1
  In  In5  1  -0.00117479  0.82605171  0.61708619  1
  In  In6  1  0.32098393  0.16917101  0.12629955  1
  In  In7  1  0.33044351  0.16318199  0.62425891  1
  In  In8  1  0.34807447  0.50598712  0.11640694  1
  In  In9  1  0.33882718  0.49669039  0.63848578  1
  In  In10  1  0.34074200  0.82463398  0.12893442  1
  In  In11  1  0.32128242  0.83710583  0.63822804  1
  In  In12  1  0.67073679  0.16381629  0.12928604  1
  In  In13  1  0.66466879  0.16567588  0.61468945  1
  In  In14  1  0.67656275  0.50847897  0.11452647  1
  In  In15  1  0.66203271  0.51819039  0.63276666  1
  In  In16  1  0.65001774  0.82380403  0.11338444  1
  In  In17  1  0.66959869  0.81608322  0.62245008  1
  In  In18  1  0.16647586  -0.00365144  0.37750984  1
  In  In19  1  0.18155901  -0.00544213  0.86511647  1
  In  In20  1  0.15445196  0.33357270  0.37699921  1
  In  In21  1  0.18826597  0.36469229  0.83768747  1
  In  In22  1  0.17638486  0.67767803  0.37343456  1
  In  In23  1  0.17301122  0.66899951  0.84457085  1
  In  In24  1  0.49610506  0.01029947  0.37545718  1
  In  In25  1  0.48628149  -0.00152370  0.87691593  1
  In  In26  1  0.49040852  0.34145165  0.38701576  1
  In  In27  1  0.49043579  0.34544341  0.87350304  1
  In  In28  1  0.49020946  0.66004699  0.37093034  1
  In  In29  1  0.50665170  0.66292479  0.87068670  1
  In  In30  1  0.84463766  -0.01368153  0.38245273  1
  In  In31  1  0.82709625  -0.01125928  0.88245890  1
  In  In32  1  0.83930596  0.32304428  0.37801444  1
  In  In33  1  0.85099678  0.34293004  0.87461477  1
  In  In34  1  0.84202036  0.67473010  0.36831871  1
  In  In35  1  0.82903004  0.66887978  0.87792347  1
  In  In36  1  0.00465999  0.16161569  0.37882105  1
  In  In37  1  0.00384053  0.18032588  0.86948178  1
  In  In38  1  0.00102718  0.49888325  0.36702019  1
  In  In39  1  0.00062795  0.50218822  0.87041973  1
  In  In40  1  0.00152905  0.83111192  0.37572162  1
  In  In41  1  -0.00229349  0.81607073  0.87253035  1
  In  In42  1  0.33908368  0.16076683  0.38373250  1
  In  In43  1  0.32868526  0.17533120  0.85657149  1
  In  In44  1  0.33388488  0.52093954  0.38422442  1
  In  In45  1  0.34785660  0.51139373  0.85504466  1
  In  In46  1  0.31938996  0.81913344  0.37307882  1
  In  In47  1  0.33758661  0.83749804  0.86569776  1
  In  In48  1  0.66306260  0.17196512  0.38484614  1
  In  In49  1  0.66403211  0.16167439  0.87485580  1
  In  In50  1  0.65120192  0.50411565  0.37614174  1
  In  In51  1  0.64598350  0.51923317  0.88474246  1
  In  In52  1  0.68017252  0.83097056  0.37424879  1
  In  In53  1  0.68042058  0.82273862  0.88899329  1
  In  In54  1  0.16721961  -0.00159839  0.13490716  1
  In  In55  1  0.18131622  0.00780415  0.61809565  1
  In  In56  1  0.16255648  0.32549444  0.12500223  1
  In  In57  1  0.18609226  0.31649164  0.64789681  1
  In  In58  1  0.16418313  0.66860668  0.13232834  1
  In  In59  1  0.16379116  0.66998830  0.63450654  1
  In  In60  1  0.50221985  -0.01945992  0.12674516  1
  In  In61  1  0.48192910  -0.00149529  0.62388996  1
  In  In62  1  0.49379198  0.35367536  0.11664995  1
  In  In63  1  0.49342945  0.32897543  0.62094983  1
  In  In64  1  0.49901625  0.66786361  0.12263020  1
  In  In65  1  0.49997748  0.65829334  0.63521186  1
  In  In66  1  0.84139582  -0.00017689  0.12643170  1
  In  In67  1  0.83355734  -0.00361864  0.61222293  1
  In  In68  1  0.83307220  0.34406612  0.12415983  1
  In  In69  1  0.84542759  0.33152543  0.62449781  1
  In  In70  1  0.83179795  0.66535408  0.12463344  1
  In  In71  1  0.83916169  0.66929591  0.62799160  1
  In  In72  1  0.66703125  0.34135059  0.75668600  1
  In  In73  1  0.16679697  0.17354994  -0.00337692  1
  In  In74  1  0.16882331  0.49994861  0.51228598  1
  In  In75  1  0.49813262  0.83169204  0.50593519  1
  In  In76  1  0.66201611  -0.00757365  0.75548070  1
  In  In77  1  0.50304154  0.16317193  -0.00511477  1
  In  In78  1  0.67192722  0.33726009  0.25227702  1
  In  In79  1  0.16818285  0.83197304  -0.01116477  1
  In  In80  1  0.83113891  0.50311847  0.50879140  1
  In  In81  1  0.00777008  0.00310330  0.74330363  1
  In  In82  1  0.66983362  -0.00512268  0.25256782  1
  In  In83  1  0.16922279  0.50312014  -0.01771151  1
  In  In84  1  0.33063108  0.34148684  0.24592671  1
  In  In85  1  0.83400334  0.16516822  0.00794318  1
  Cu  Cu86  1  0.66088148  0.33675467  0.50145996  1
  Cu  Cu87  1  0.00514409  0.66555789  0.50040747  1
  Cu  Cu88  1  0.50022375  0.82506717  0.74876987  1
  Cu  Cu89  1  0.16348528  0.83415136  0.25361328  1
  Cu  Cu90  1  0.66849984  0.66813060  0.50479758  1
  Cu  Cu91  1  0.16549007  0.50390252  0.25442610  1
  Cu  Cu92  1  0.66866516  0.33501906  -0.00268126  1
  Cu  Cu93  1  0.00349640  -0.00577167  0.49840067  1
  Cu  Cu94  1  -0.00712500  0.66708100  -0.00096573  1
  Cu  Cu95  1  0.33864283  0.66452336  -0.00555584  1
  Cu  Cu96  1  0.32930726  -0.00168487  0.50138777  1
  Cu  Cu97  1  0.66291756  0.66276392  0.00087407  1
  Cu  Cu98  1  0.00570792  0.34253076  -0.00352456  1
  Cu  Cu99  1  0.00227993  0.32750232  0.50300577  1
  Cu  Cu100  1  0.83421484  0.82623643  0.24888173  1
  Cu  Cu101  1  0.32723332  0.33389124  0.50972890  1
  Cu  Cu102  1  0.16637294  0.16405330  0.25509906  1
  Cu  Cu103  1  0.84452151  0.15861345  0.26008175  1
  Cu  Cu104  1  0.83585095  0.50195527  0.24575256  1
  Cu  Cu105  1  0.49215806  0.16932711  0.25561567  1
  Cu  Cu106  1  0.66599419  0.00123993  0.49533229  1
  Cu  Cu107  1  0.33513205  -0.00312552  -0.00004661  1
  Cu  Cu108  1  0.49978350  0.51225493  0.24788525  1
  Cu  Cu109  1  0.49534689  0.82852682  0.24766270  1
  Cu  Cu110  1  0.83760182  0.16755743  0.74483592  1
  Cu  Cu111  1  -0.00100784  -0.00211636  0.00143171  1
  Cu  Cu112  1  0.83270580  0.82865645  0.75132298  1
  Cu  Cu113  1  0.83324501  0.51053533  0.75412091  1
  Cu  Cu114  1  0.49126011  0.16450884  0.74507125  1
  Se  Se115  1  0.07966694  0.07918676  0.05925923  1
  Se  Se116  1  0.08918094  0.07888863  0.54834476  1
  Se  Se117  1  0.08539456  0.42222460  0.05779939  1
  Se  Se118  1  0.07962238  0.40462564  0.56675661  1
  Se  Se119  1  0.07991246  0.74675863  0.05566555  1
  Se  Se120  1  0.09138123  0.74544593  0.55371098  1
  Se  Se121  1  0.41106216  0.08014848  0.06151128  1
  Se  Se122  1  0.41437554  0.08489186  0.55066731  1
  Se  Se123  1  0.40999869  0.41814542  0.04253037  1
  Se  Se124  1  0.41094714  0.42073736  0.55848898  1
  Se  Se125  1  0.41526420  0.74991523  0.05160811  1
  Se  Se126  1  0.41238186  0.74828160  0.57055093  1
  Se  Se127  1  0.73892335  0.07066590  0.05858877  1
  Se  Se128  1  0.75102783  0.08502904  0.54813468  1
  Se  Se129  1  0.75517111  0.41674705  0.04900058  1
  Se  Se130  1  0.73840429  0.41267316  0.56709842  1
  Se  Se131  1  0.74798984  0.74558096  0.05428374  1
  Se  Se132  1  0.76068516  0.74770949  0.55194087  1
  Se  Se133  1  0.26194481  0.26605459  0.05232482  1
  Se  Se134  1  0.24274795  0.24954473  0.55901413  1
  Se  Se135  1  0.24943653  0.59278577  0.05379117  1
  Se  Se136  1  0.25996264  0.58983550  0.56708311  1
  Se  Se137  1  0.25058225  0.91896433  0.05852147  1
  Se  Se138  1  0.25320322  0.90844586  0.55442135  1
  Se  Se139  1  0.59180891  0.25587920  0.06067977  1
  Se  Se140  1  0.57753027  0.24886309  0.55102966  1
  Se  Se141  1  0.57644079  0.57943370  0.05303271  1
  Se  Se142  1  0.58178261  0.58764848  0.55601624  1
  Se  Se143  1  0.57732675  0.91703589  0.04764588  1
  Se  Se144  1  0.59173134  0.92442210  0.56379483  1
  Se  Se145  1  0.93213444  0.25821254  0.05978765  1
  Se  Se146  1  0.91195995  0.24481175  0.55035860  1
  Se  Se147  1  0.91504428  0.58147935  0.05425178  1
  Se  Se148  1  0.93374387  0.58149113  0.56434920  1
  Se  Se149  1  0.91774865  0.91510619  0.05516211  1
  Se  Se150  1  0.91682599  0.90999422  0.54819340  1
  Se  Se151  1  0.08677471  0.24588789  0.44943287  1
  Se  Se152  1  0.08744279  0.26859724  0.93498739  1
  Se  Se153  1  0.08227402  0.58129737  0.44090997  1
  Se  Se154  1  0.08096576  0.60465026  0.93272251  1
  Se  Se155  1  0.08679953  0.90923829  0.44594455  1
  Se  Se156  1  0.07672276  0.92732420  0.93377691  1
  Se  Se157  1  0.41159055  0.25274895  0.45199654  1
  Se  Se158  1  0.40833563  0.24840525  0.93748768  1
  Se  Se159  1  0.42764954  0.58455995  0.45245098  1
  Se  Se160  1  0.41715750  0.58005713  0.93827635  1
  Se  Se161  1  0.41097156  0.91858809  0.44029232  1
  Se  Se162  1  0.41236168  0.90898687  0.94629110  1
  Se  Se163  1  0.74835932  0.25663429  0.44945073  1
  Se  Se164  1  0.74924555  0.25330596  0.93908497  1
  Se  Se165  1  0.74720232  0.58876280  0.44069616  1
  Se  Se166  1  0.75022279  0.58207225  0.94765983  1
  Se  Se167  1  0.75044125  0.91272036  0.44921351  1
  Se  Se168  1  0.75164898  0.91559307  0.95652891  1
  Se  Se169  1  0.24684598  0.08260181  0.44721913  1
  Se  Se170  1  0.25965060  0.08061640  0.93961016  1
  Se  Se171  1  0.25425422  0.41238553  0.44178048  1
  Se  Se172  1  0.26071846  0.41201803  0.92868999  1
  Se  Se173  1  0.25688363  0.73964464  0.45237434  1
  Se  Se174  1  0.25404561  0.73595732  0.93105703  1
  Se  Se175  1  0.57795641  0.08512033  0.44835407  1
  Se  Se176  1  0.59413375  0.06596519  0.94253000  1
  Se  Se177  1  0.57914854  0.42379542  0.45104024  1
  Se  Se178  1  0.58012849  0.41329838  0.94531565  1
  Se  Se179  1  0.58911378  0.74703254  0.44154059  1
  Se  Se180  1  0.57976222  0.74559718  0.94621111  1
  Se  Se181  1  0.91842135  0.08064487  0.44728737  1
  Se  Se182  1  0.92545057  0.08402617  0.93978489  1
  Se  Se183  1  0.92419961  0.41519599  0.44625443  1
  Se  Se184  1  0.92032904  0.42790381  0.94842551  1
  Se  Se185  1  0.91941106  0.74562989  0.44588930  1
  Se  Se186  1  0.91067219  0.75501281  0.94854527  1
  Se  Se187  1  0.24892640  0.24899868  0.31071806  1
  Se  Se188  1  0.23855928  0.24407534  0.78778893  1
  Se  Se189  1  0.25234920  0.58468536  0.30561320  1
  Se  Se190  1  0.22161363  0.54365383  0.80053158  1
  Se  Se191  1  0.24986429  0.91518989  0.30655821  1
  Se  Se192  1  0.24597472  0.90474282  0.79500751  1
  Se  Se193  1  0.57356632  0.25208962  0.31145569  1
  Se  Se194  1  0.57356804  0.24023279  0.80786665  1
  Se  Se195  1  0.58637880  0.59123733  0.30158248  1
  Se  Se196  1  0.58249896  0.57886751  0.79802372  1
  Se  Se197  1  0.57398985  0.90699083  0.31159731  1
  Se  Se198  1  0.57596850  0.90265861  0.81604887  1
  Se  Se199  1  0.92514888  0.24957666  0.30792821  1
  Se  Se200  1  0.91409273  0.25303234  0.80027197  1
  Se  Se201  1  0.91888842  0.58448021  0.30135469  1
  Se  Se202  1  0.91745333  0.59327025  0.80790931  1
  Se  Se203  1  0.91527925  0.91061067  0.30416780  1
  Se  Se204  1  0.91187154  0.91645134  0.80643414  1
  Se  Se205  1  0.08336611  0.07888301  0.30709540  1
  Se  Se206  1  0.09349012  0.09209337  0.80706911  1
  Se  Se207  1  0.08368434  0.41307259  0.30040729  1
  Se  Se208  1  0.05520970  0.39946068  0.80248872  1
  Se  Se209  1  0.08206112  0.74683901  0.30541708  1
  Se  Se210  1  0.09563517  0.77653611  0.79823469  1
  Se  Se211  1  0.40898634  0.08314521  0.30398681  1
  Se  Se212  1  0.41423349  0.07826202  0.80148229  1
  Se  Se213  1  0.42120216  0.42850640  0.30831811  1
  Se  Se214  1  0.40916513  0.40370610  0.79450421  1
  Se  Se215  1  0.41198618  0.74758546  0.30353330  1
  Se  Se216  1  0.41662976  0.74319576  0.80344242  1
  Se  Se217  1  0.75315775  0.08694282  0.31658723  1
  Se  Se218  1  0.76164826  0.08734221  0.80685238  1
  Se  Se219  1  0.76006497  0.42700743  0.31476335  1
  Se  Se220  1  0.75482581  0.43084443  0.81733310  1
  Se  Se221  1  0.74693307  0.74469015  0.29980396  1
  Se  Se222  1  0.74601370  0.75054029  0.80616676  1
  Se  Se223  1  0.25173996  0.08479038  0.19959883  1
  Se  Se224  1  0.25543005  0.07869773  0.69615127  1
  Se  Se225  1  0.24157342  0.43090197  0.18453264  1
  Se  Se226  1  0.22393270  0.44261440  0.69583601  1
  Se  Se227  1  0.24795080  0.75320627  0.19713149  1
  Se  Se228  1  0.25911588  0.73625212  0.70413920  1
  Se  Se229  1  0.57468350  0.08900028  0.19622653  1
  Se  Se230  1  0.57951132  0.08609532  0.69064884  1
  Se  Se231  1  0.58076568  0.42607005  0.19154597  1
  Se  Se232  1  0.57692527  0.41965237  0.69084314  1
  Se  Se233  1  0.58219501  0.74909167  0.19398195  1
  Se  Se234  1  0.58870092  0.74651029  0.69738921  1
  Se  Se235  1  0.92016869  0.07306417  0.20257885  1
  Se  Se236  1  0.91167699  0.08656320  0.68298040  1
  Se  Se237  1  0.91855972  0.41312034  0.19711035  1
  Se  Se238  1  0.90723089  0.42134409  0.69831693  1
  Se  Se239  1  0.91844921  0.74420375  0.19442233  1
  Se  Se240  1  0.92083650  0.75418326  0.69611123  1
  Se  Se241  1  0.08563007  0.24879550  0.19917297  1
  Se  Se242  1  0.06820214  0.25340892  0.69340233  1
  Se  Se243  1  0.08082617  0.58594695  0.19925747  1
  Se  Se244  1  0.06453324  0.60770630  0.70312015  1
  Se  Se245  1  0.07990303  0.91706424  0.19903152  1
  Se  Se246  1  0.09016867  0.91423230  0.68037394  1
  Se  Se247  1  0.42585288  0.25117053  0.18750399  1
  Se  Se248  1  0.41189423  0.25126666  0.69297960  1
  Se  Se249  1  0.41179536  0.58914644  0.19362846  1
  Se  Se250  1  0.42207462  0.57774398  0.70717754  1
  Se  Se251  1  0.41208305  0.91718783  0.19922021  1
  Se  Se252  1  0.41889018  0.91505393  0.70056960  1
  Se  Se253  1  0.76479086  0.23904394  0.19749869  1
  Se  Se254  1  0.74837929  0.24570424  0.69114060  1
  Se  Se255  1  0.74766159  0.58145514  0.19429113  1
  Se  Se256  1  0.75257248  0.59277713  0.69872177  1
  Se  Se257  1  0.75238347  0.90561226  0.18776743  1
  Se  Se258  1  0.75527260  0.91126501  0.69046461  1
