# generated using pymatgen
data_In86Cu29Se144
_symmetry_space_group_name_H-M   'P 1'
_cell_length_a   17.57993077
_cell_length_b   17.58097184
_cell_length_c   23.44333710
_cell_angle_alpha   89.98834791
_cell_angle_beta   89.98586479
_cell_angle_gamma   89.99512932
_symmetry_Int_Tables_number   1
_chemical_formula_structural   In86Cu29Se144
_chemical_formula_sum   'In86 Cu29 Se144'
_cell_volume   7245.68496648
_cell_formula_units_Z   1
loop_
 _symmetry_equiv_pos_site_id
 _symmetry_equiv_pos_as_xyz
  1  'x, y, z'
loop_
 _atom_site_type_symbol
 _atom_site_label
 _atom_site_symmetry_multiplicity
 _atom_site_fract_x
 _atom_site_fract_y
 _atom_site_fract_z
 _atom_site_occupancy
  In  In0  1  0.01284021  0.16797155  0.12618418  1
  In  In1  1  0.00443920  0.16653820  0.63378029  1
  In  In2  1  -0.01018351  0.50752030  0.12802848  1
  In  In3  1  0.00573066  0.49280594  0.63234931  1
  In  In4  1  -0.00926378  0.81707450  0.10842700  1
  In  In5  1  -0.00261896  0.83139463  0.62512385  1
  In  In6  1  0.33428596  0.17058210  0.11648550  1
  In  In7  1  0.33361607  0.16687285  0.61645547  1
  In  In8  1  0.35136916  0.49995312  0.13042167  1
  In  In9  1  0.32437856  0.51120652  0.62331549  1
  In  In10  1  0.31458933  0.83063597  0.12530856  1
  In  In11  1  0.32884585  0.84287489  0.62224741  1
  In  In12  1  0.65081867  0.18160508  0.14121527  1
  In  In13  1  0.66165709  0.17283437  0.63052821  1
  In  In14  1  0.66183075  0.49012075  0.11688855  1
  In  In15  1  0.67319607  0.49698769  0.63085844  1
  In  In16  1  0.68327330  0.83029514  0.12403708  1
  In  In17  1  0.68479462  0.82318749  0.63219120  1
  In  In18  1  0.16257325  0.00294260  0.38607573  1
  In  In19  1  0.15427871  0.00887942  0.87626945  1
  In  In20  1  0.15389113  0.34092131  0.38922323  1
  In  In21  1  0.15479729  0.32734369  0.87132438  1
  In  In22  1  0.15896284  0.66699419  0.37426409  1
  In  In23  1  0.16206318  0.67898572  0.87987447  1
  In  In24  1  0.51322785  0.00625912  0.37023470  1
  In  In25  1  0.51619496  0.00623860  0.87467253  1
  In  In26  1  0.50501449  0.32370606  0.37193381  1
  In  In27  1  0.50874510  0.32375588  0.88288449  1
  In  In28  1  0.49802116  0.67818782  0.36923117  1
  In  In29  1  0.50015749  0.65145567  0.87910921  1
  In  In30  1  0.81688994  -0.00178044  0.37723442  1
  In  In31  1  0.83337188  -0.00662036  0.87019642  1
  In  In32  1  0.83595998  0.33574981  0.36815786  1
  In  In33  1  0.84409751  0.34455293  0.86867217  1
  In  In34  1  0.84518393  0.65648887  0.37824733  1
  In  In35  1  0.83822116  0.67044818  0.87698548  1
  In  In36  1  0.00172293  0.17984120  0.37830683  1
  In  In37  1  0.01114264  0.16948888  0.86186825  1
  In  In38  1  -0.00157001  0.50273482  0.37055824  1
  In  In39  1  -0.00691682  0.49949308  0.87475179  1
  In  In40  1  0.00599773  0.82535099  0.38348052  1
  In  In41  1  -0.00269637  0.83118254  0.87437342  1
  In  In42  1  0.33508202  0.16642718  0.38131154  1
  In  In43  1  0.32836075  0.17202310  0.88244334  1
  In  In44  1  0.31971650  0.49561972  0.37127047  1
  In  In45  1  0.33907547  0.50987738  0.88178204  1
  In  In46  1  0.32628258  0.82403144  0.37119144  1
  In  In47  1  0.32503266  0.82351412  0.87742503  1
  In  In48  1  0.66095039  0.16734115  0.36951364  1
  In  In49  1  0.66431429  0.16293198  0.87124693  1
  In  In50  1  0.67526426  0.49565015  0.37303408  1
  In  In51  1  0.67039215  0.49972042  0.87552582  1
  In  In52  1  0.66323835  0.83862573  0.37965104  1
  In  In53  1  0.68413871  0.84313457  0.87185617  1
  In  In54  1  0.16823178  -0.00117723  0.11702085  1
  In  In55  1  0.16105828  -0.00382204  0.62015902  1
  In  In56  1  0.16814431  0.32105338  0.12538582  1
  In  In57  1  0.14282628  0.31975402  0.60695230  1
  In  In58  1  0.15464346  0.67033754  0.13050897  1
  In  In59  1  0.15337709  0.65511053  0.61738950  1
  In  In60  1  0.50363100  0.01575598  0.12473153  1
  In  In61  1  0.50215001  0.01597298  0.62403136  1
  In  In62  1  0.50970624  0.33956527  0.12363216  1
  In  In63  1  0.51737502  0.32680476  0.62262286  1
  In  In64  1  0.50342831  0.64552140  0.13052105  1
  In  In65  1  0.51001373  0.67354899  0.62538780  1
  In  In66  1  0.82950730  -0.01197559  0.12301467  1
  In  In67  1  0.84493634  -0.00876994  0.63355712  1
  In  In68  1  0.82523197  0.34207937  0.12844863  1
  In  In69  1  0.83350355  0.33256538  0.63279408  1
  In  In70  1  0.84565376  0.66782960  0.11282365  1
  In  In71  1  0.82502392  0.67843693  0.63002284  1
  In  In72  1  0.33280700  0.00072846  0.74204538  1
  In  In73  1  0.32875940  0.33720855  0.75320594  1
  In  In74  1  0.33543094  -0.00116750  0.25539201  1
  In  In75  1  0.66882872  0.66363487  0.24782678  1
  In  In76  1  0.83220760  0.16275202  -0.00177813  1
  In  In77  1  0.49766790  0.83835694  0.49443051  1
  In  In78  1  0.16487526  0.49892976  -0.00391134  1
  In  In79  1  -0.00502308  -0.00286714  0.24567356  1
  In  In80  1  0.49998744  0.83190186  -0.00392858  1
  In  In81  1  0.49632014  0.49604886  0.49615404  1
  In  In82  1  0.33650637  0.33536712  0.24885527  1
  In  In83  1  0.33329765  0.66729473  0.75277830  1
  In  In84  1  0.83645265  0.49583637  0.50161688  1
  In  In85  1  0.83412331  0.16422062  0.50248898  1
  Cu  Cu86  1  0.66588407  -0.00159330  0.50122919  1
  Cu  Cu87  1  -0.00270232  0.66872077  0.50153872  1
  Cu  Cu88  1  0.51703812  0.83274500  0.75187508  1
  Cu  Cu89  1  0.83278453  0.50464770  0.75221841  1
  Cu  Cu90  1  0.66418810  0.00839613  -0.00204985  1
  Cu  Cu91  1  0.49780019  0.83735275  0.25090116  1
  Cu  Cu92  1  0.33527068  0.33012428  0.00567786  1
  Cu  Cu93  1  0.50372855  0.16906540  0.75215415  1
  Cu  Cu94  1  0.51152048  0.49723512  0.75226979  1
  Cu  Cu95  1  0.16839267  0.17114011  0.25205433  1
  Cu  Cu96  1  0.83188247  0.16837331  0.25560088  1
  Cu  Cu97  1  0.15756969  0.49716105  0.74968684  1
  Cu  Cu98  1  0.83165400  0.16518606  0.75156893  1
  Cu  Cu99  1  0.83914502  0.83180939  0.75229483  1
  Cu  Cu100  1  0.66828459  0.33539589  0.00096310  1
  Cu  Cu101  1  0.00606733  -0.00316988  -0.00244068  1
  Cu  Cu102  1  0.33001062  0.00329115  0.50089699  1
  Cu  Cu103  1  0.33389021  0.33608887  0.49570985  1
  Cu  Cu104  1  -0.00403977  -0.00298575  0.50733333  1
  Cu  Cu105  1  0.67383437  0.66345793  -0.00059971  1
  Cu  Cu106  1  0.15410022  0.82541940  0.24792575  1
  Cu  Cu107  1  0.83531388  0.49797562  0.24720116  1
  Cu  Cu108  1  0.32168639  0.67058276  0.49520636  1
  Cu  Cu109  1  0.33628735  0.66250762  0.00612322  1
  Cu  Cu110  1  -0.00031567  0.33052079  -0.00535794  1
  Cu  Cu111  1  0.16011595  0.83272273  0.74807011  1
  Cu  Cu112  1  0.16262934  0.50297261  0.25432653  1
  Cu  Cu113  1  0.83499549  0.82987815  0.24705676  1
  Cu  Cu114  1  0.33204369  0.00134511  0.00025671  1
  Se  Se115  1  0.08368996  0.08453465  0.05221342  1
  Se  Se116  1  0.07717054  0.08525375  0.55692299  1
  Se  Se117  1  0.07924877  0.40832735  0.05890210  1
  Se  Se118  1  0.08892796  0.43456493  0.55262699  1
  Se  Se119  1  0.09814451  0.75407715  0.05104128  1
  Se  Se120  1  0.08270442  0.75279579  0.55336300  1
  Se  Se121  1  0.41749663  0.08387198  0.05109332  1
  Se  Se122  1  0.41909442  0.08504550  0.54917530  1
  Se  Se123  1  0.41858460  0.41589935  0.05502371  1
  Se  Se124  1  0.40981893  0.41045867  0.56430187  1
  Se  Se125  1  0.41608592  0.74633743  0.06438450  1
  Se  Se126  1  0.40775394  0.74332613  0.55667178  1
  Se  Se127  1  0.74067151  0.08440745  0.06475638  1
  Se  Se128  1  0.74717646  0.07400815  0.56490190  1
  Se  Se129  1  0.75606628  0.41866019  0.04941402  1
  Se  Se130  1  0.74305231  0.40401321  0.55745011  1
  Se  Se131  1  0.75536338  0.75156528  0.04909905  1
  Se  Se132  1  0.74681058  0.74699909  0.55177984  1
  Se  Se133  1  0.24394075  0.24612660  0.04893527  1
  Se  Se134  1  0.25137465  0.25263926  0.55058606  1
  Se  Se135  1  0.25376511  0.58091439  0.06399270  1
  Se  Se136  1  0.24421012  0.58220125  0.54808206  1
  Se  Se137  1  0.24911447  0.91416844  0.04876211  1
  Se  Se138  1  0.24717720  0.91623972  0.54994649  1
  Se  Se139  1  0.58700152  0.25015503  0.05524022  1
  Se  Se140  1  0.57973599  0.23550782  0.55168733  1
  Se  Se141  1  0.58544271  0.58424795  0.05125674  1
  Se  Se142  1  0.58833582  0.58229805  0.55827430  1
  Se  Se143  1  0.58959838  0.92003832  0.05816650  1
  Se  Se144  1  0.58600258  0.91782300  0.56303993  1
  Se  Se145  1  0.92062837  0.25337946  0.05977190  1
  Se  Se146  1  0.92220598  0.25538214  0.56093262  1
  Se  Se147  1  0.92089237  0.57682454  0.04722872  1
  Se  Se148  1  0.91926376  0.58881227  0.56426131  1
  Se  Se149  1  0.91660053  0.91992170  0.05054706  1
  Se  Se150  1  0.91082189  0.91125970  0.55484067  1
  Se  Se151  1  0.08991150  0.23898590  0.45265947  1
  Se  Se152  1  0.08086216  0.24385111  0.94412942  1
  Se  Se153  1  0.07559351  0.58448507  0.44356673  1
  Se  Se154  1  0.07290906  0.59313033  0.94449547  1
  Se  Se155  1  0.08065253  0.91640836  0.45079988  1
  Se  Se156  1  0.08669615  0.91203459  0.94277353  1
  Se  Se157  1  0.41953534  0.25318463  0.44553359  1
  Se  Se158  1  0.41785724  0.24766327  0.94940685  1
  Se  Se159  1  0.40813238  0.59289122  0.43791152  1
  Se  Se160  1  0.42223604  0.57910669  0.95642949  1
  Se  Se161  1  0.40680004  0.92804506  0.43302965  1
  Se  Se162  1  0.41067570  0.92478099  0.93564753  1
  Se  Se163  1  0.74929348  0.25301789  0.43872050  1
  Se  Se164  1  0.74857226  0.25778159  0.93783626  1
  Se  Se165  1  0.74266799  0.58854289  0.44528090  1
  Se  Se166  1  0.75537659  0.58137792  0.94338653  1
  Se  Se167  1  0.74917697  0.91204745  0.45172469  1
  Se  Se168  1  0.75168842  0.92539434  0.94882703  1
  Se  Se169  1  0.24702884  0.08919196  0.44916375  1
  Se  Se170  1  0.24672077  0.08156766  0.94484222  1
  Se  Se171  1  0.24803490  0.42284013  0.44985373  1
  Se  Se172  1  0.25748352  0.40512956  0.93805694  1
  Se  Se173  1  0.23945721  0.75566806  0.44368575  1
  Se  Se174  1  0.25284143  0.74505342  0.95287813  1
  Se  Se175  1  0.58777586  0.08364377  0.44571365  1
  Se  Se176  1  0.58109155  0.09410920  0.94897698  1
  Se  Se177  1  0.59333052  0.40813827  0.44280337  1
  Se  Se178  1  0.58476797  0.41867957  0.94600024  1
  Se  Se179  1  0.58929840  0.73830641  0.44634853  1
  Se  Se180  1  0.59374989  0.74474017  0.93782733  1
  Se  Se181  1  0.92269079  0.07356755  0.43861729  1
  Se  Se182  1  0.92635328  0.07942742  0.93708679  1
  Se  Se183  1  0.92644869  0.40610982  0.44286958  1
  Se  Se184  1  0.91582447  0.41811091  0.94834224  1
  Se  Se185  1  0.91148451  0.74949502  0.44830269  1
  Se  Se186  1  0.90671738  0.76394955  0.94584318  1
  Se  Se187  1  0.24548710  0.25117835  0.31326974  1
  Se  Se188  1  0.24077380  0.23757852  0.80437023  1
  Se  Se189  1  0.24651838  0.58763802  0.30491950  1
  Se  Se190  1  0.24020243  0.57535083  0.81076529  1
  Se  Se191  1  0.23178147  0.91186432  0.30651454  1
  Se  Se192  1  0.24669035  0.90975116  0.80587380  1
  Se  Se193  1  0.58923714  0.25549298  0.29878426  1
  Se  Se194  1  0.58625092  0.25448508  0.80407932  1
  Se  Se195  1  0.57813097  0.57741457  0.30942467  1
  Se  Se196  1  0.58785169  0.58594040  0.80569323  1
  Se  Se197  1  0.58645667  0.91371542  0.30342609  1
  Se  Se198  1  0.59219715  0.92135496  0.80569209  1
  Se  Se199  1  0.92123848  0.25044212  0.30271107  1
  Se  Se200  1  0.91652084  0.25062588  0.80226023  1
  Se  Se201  1  0.91690415  0.58426621  0.29926365  1
  Se  Se202  1  0.91801598  0.58677391  0.80485445  1
  Se  Se203  1  0.90989432  0.91048019  0.31172860  1
  Se  Se204  1  0.92313792  0.91857830  0.80205305  1
  Se  Se205  1  0.08689356  0.08526177  0.30702139  1
  Se  Se206  1  0.08360416  0.07622772  0.79553274  1
  Se  Se207  1  0.08500839  0.41414380  0.30757386  1
  Se  Se208  1  0.07680157  0.41566073  0.80605694  1
  Se  Se209  1  0.07114046  0.74573560  0.30396535  1
  Se  Se210  1  0.08177409  0.74781601  0.80371707  1
  Se  Se211  1  0.42534008  0.09692837  0.30525847  1
  Se  Se212  1  0.41871509  0.08917763  0.80926449  1
  Se  Se213  1  0.42438376  0.42505782  0.31005666  1
  Se  Se214  1  0.42356825  0.42459920  0.81208952  1
  Se  Se215  1  0.41192341  0.75257528  0.29855430  1
  Se  Se216  1  0.42941992  0.75772068  0.81017379  1
  Se  Se217  1  0.74779332  0.08211058  0.30376945  1
  Se  Se218  1  0.74957479  0.08085936  0.80516635  1
  Se  Se219  1  0.75028277  0.41592426  0.29946345  1
  Se  Se220  1  0.74923917  0.41730178  0.80297096  1
  Se  Se221  1  0.75590571  0.75239739  0.31162105  1
  Se  Se222  1  0.75291779  0.74878438  0.80441900  1
  Se  Se223  1  0.24614730  0.08904292  0.19174518  1
  Se  Se224  1  0.24193318  0.09284788  0.68762801  1
  Se  Se225  1  0.24124648  0.42509870  0.18996344  1
  Se  Se226  1  0.24112498  0.42265935  0.68900279  1
  Se  Se227  1  0.24613219  0.74607932  0.19935545  1
  Se  Se228  1  0.24442517  0.75302568  0.68877169  1
  Se  Se229  1  0.58960646  0.07375539  0.20077700  1
  Se  Se230  1  0.58542461  0.08238579  0.70013010  1
  Se  Se231  1  0.57864204  0.42825881  0.19425272  1
  Se  Se232  1  0.58750439  0.41178500  0.69608943  1
  Se  Se233  1  0.57801628  0.75758427  0.18806721  1
  Se  Se234  1  0.59302547  0.74429222  0.69859186  1
  Se  Se235  1  0.90622942  0.09199468  0.18768954  1
  Se  Se236  1  0.91847979  0.08368380  0.69962301  1
  Se  Se237  1  0.92034966  0.41259360  0.19596973  1
  Se  Se238  1  0.91507964  0.41780560  0.69954291  1
  Se  Se239  1  0.91575982  0.74974431  0.18989546  1
  Se  Se240  1  0.92024929  0.74757304  0.69747962  1
  Se  Se241  1  0.08250206  0.25328538  0.20060265  1
  Se  Se242  1  0.08284275  0.26124083  0.69588837  1
  Se  Se243  1  0.07778175  0.58234306  0.19819230  1
  Se  Se244  1  0.07992823  0.58849226  0.69893303  1
  Se  Se245  1  0.08344707  0.90899855  0.18427092  1
  Se  Se246  1  0.08153058  0.91730280  0.69262850  1
  Se  Se247  1  0.42283355  0.24322569  0.18903578  1
  Se  Se248  1  0.42000486  0.24620179  0.69213567  1
  Se  Se249  1  0.41223008  0.58870029  0.20426669  1
  Se  Se250  1  0.42730000  0.57644650  0.69327466  1
  Se  Se251  1  0.41873706  0.91254500  0.18610678  1
  Se  Se252  1  0.43168120  0.90660068  0.69091292  1
  Se  Se253  1  0.75235221  0.25425000  0.19948339  1
  Se  Se254  1  0.74841201  0.24986832  0.69923699  1
  Se  Se255  1  0.75798172  0.57890594  0.18409306  1
  Se  Se256  1  0.74907371  0.58627385  0.69762773  1
  Se  Se257  1  0.74943835  0.91614796  0.19963677  1
  Se  Se258  1  0.75273671  0.91670808  0.70112186  1
