# generated using pymatgen
data_In86Cu29Se144
_symmetry_space_group_name_H-M   'P 1'
_cell_length_a   17.59061129
_cell_length_b   17.58959527
_cell_length_c   23.45360939
_cell_angle_alpha   90.00140264
_cell_angle_beta   90.01854037
_cell_angle_gamma   90.00292910
_symmetry_Int_Tables_number   1
_chemical_formula_structural   In86Cu29Se144
_chemical_formula_sum   'In86 Cu29 Se144'
_cell_volume   7256.82154161
_cell_formula_units_Z   1
loop_
 _symmetry_equiv_pos_site_id
 _symmetry_equiv_pos_as_xyz
  1  'x, y, z'
loop_
 _atom_site_type_symbol
 _atom_site_label
 _atom_site_symmetry_multiplicity
 _atom_site_fract_x
 _atom_site_fract_y
 _atom_site_fract_z
 _atom_site_occupancy
  In  In0  1  0.01337478  0.14938850  0.13567336  1
  In  In1  1  -0.00821232  0.16420787  0.62191149  1
  In  In2  1  -0.01446236  0.51259721  0.13259991  1
  In  In3  1  0.00565396  0.50568726  0.61290075  1
  In  In4  1  -0.00700565  0.83631229  0.12577919  1
  In  In5  1  -0.00347595  0.83014464  0.62317883  1
  In  In6  1  0.33299120  0.16575663  0.12777767  1
  In  In7  1  0.34434256  0.17071934  0.62852480  1
  In  In8  1  0.33917186  0.49070789  0.13108238  1
  In  In9  1  0.31712301  0.49794515  0.62259642  1
  In  In10  1  0.35147073  0.82239968  0.14664763  1
  In  In11  1  0.31712920  0.80495470  0.59273275  1
  In  In12  1  0.67025017  0.17669486  0.12307793  1
  In  In13  1  0.66558429  0.15545517  0.62257379  1
  In  In14  1  0.67968506  0.51000222  0.12185715  1
  In  In15  1  0.67900145  0.49036253  0.62254618  1
  In  In16  1  0.65803298  0.82088112  0.12830390  1
  In  In17  1  0.66565006  0.83324936  0.61296181  1
  In  In18  1  0.14285981  -0.01555676  0.36906222  1
  In  In19  1  0.17294059  0.00888950  0.87454406  1
  In  In20  1  0.17125081  0.34594782  0.37231540  1
  In  In21  1  0.16408502  0.31873535  0.87719624  1
  In  In22  1  0.16989477  0.67174604  0.37340065  1
  In  In23  1  0.15995900  0.67917081  0.87748780  1
  In  In24  1  0.48509603  -0.00863097  0.36124075  1
  In  In25  1  0.50475519  -0.00248735  0.89188923  1
  In  In26  1  0.49916876  0.34204529  0.37019134  1
  In  In27  1  0.48949881  0.34228842  0.88478359  1
  In  In28  1  0.50407618  0.67854801  0.35802947  1
  In  In29  1  0.49792133  0.66511208  0.89197465  1
  In  In30  1  0.84941202  -0.00792475  0.38346702  1
  In  In31  1  0.83661277  -0.01376289  0.87617334  1
  In  In32  1  0.84697923  0.32033822  0.38775364  1
  In  In33  1  0.84753933  0.34170663  0.87893841  1
  In  In34  1  0.83416279  0.66618568  0.37184154  1
  In  In35  1  0.84500585  0.66712116  0.88565419  1
  In  In36  1  -0.02278464  0.15379450  0.35733698  1
  In  In37  1  0.01517845  0.16620315  0.87950830  1
  In  In38  1  0.00379820  0.50453705  0.37147971  1
  In  In39  1  -0.01169337  0.50329691  0.88255588  1
  In  In40  1  0.00499851  0.83121571  0.37673004  1
  In  In41  1  -0.00547260  0.82942299  0.86889358  1
  In  In42  1  0.33488947  0.17117161  0.36608569  1
  In  In43  1  0.32255495  0.17086723  0.88529136  1
  In  In44  1  0.32921891  0.49699466  0.36717466  1
  In  In45  1  0.34254311  0.50628470  0.88003078  1
  In  In46  1  0.32701166  0.82964071  0.37211562  1
  In  In47  1  0.33002607  0.84273153  0.88243081  1
  In  In48  1  0.68720027  0.16893345  0.37614007  1
  In  In49  1  0.66465766  0.15231387  0.88286986  1
  In  In50  1  0.66179480  0.50759281  0.37381905  1
  In  In51  1  0.66899323  0.50201301  0.88119479  1
  In  In52  1  0.67632090  0.82814168  0.37332141  1
  In  In53  1  0.66744153  0.82831007  0.88502902  1
  In  In54  1  0.16043089  0.01145077  0.12914195  1
  In  In55  1  0.16083287  -0.01832338  0.61706450  1
  In  In56  1  0.17425892  0.32389616  0.13198435  1
  In  In57  1  0.16483168  0.34411064  0.62264444  1
  In  In58  1  0.15735107  0.67714680  0.13660590  1
  In  In59  1  0.15961553  0.65120179  0.61229839  1
  In  In60  1  0.48940295  -0.01062040  0.12607288  1
  In  In61  1  0.50109673  -0.00542433  0.62120462  1
  In  In62  1  0.49389502  0.32588421  0.11799912  1
  In  In63  1  0.49508058  0.32190864  0.63011493  1
  In  In64  1  0.50545386  0.66543824  0.13126501  1
  In  In65  1  0.48629848  0.67215564  0.61984401  1
  In  In66  1  0.86720497  -0.00932878  0.12813022  1
  In  In67  1  0.84656558  0.00851064  0.60750447  1
  In  In68  1  0.82933169  0.34181588  0.13091220  1
  In  In69  1  0.84012440  0.34397002  0.60573119  1
  In  In70  1  0.83342316  0.66608221  0.12750786  1
  In  In71  1  0.84973666  0.68268687  0.60916893  1
  In  In72  1  0.66924637  -0.00399299  0.25067463  1
  In  In73  1  0.00337145  0.33361197  0.74887906  1
  In  In74  1  0.50931962  0.16097103  0.50089298  1
  In  In75  1  0.50169785  0.50811957  0.49082268  1
  In  In76  1  0.83239547  0.17094334  0.00228594  1
  In  In77  1  0.66958228  0.66626552  0.74902748  1
  In  In78  1  0.16422449  0.84126192  0.01164873  1
  In  In79  1  0.16230302  0.16660216  0.49377335  1
  In  In80  1  0.16595313  0.49955239  0.00439672  1
  In  In81  1  0.66528811  -0.00420744  0.74629311  1
  In  In82  1  0.66899040  0.32590424  0.74721887  1
  In  In83  1  0.33356616  0.00114586  0.74815633  1
  In  In84  1  0.32589729  0.66670783  0.74902923  1
  In  In85  1  0.66785872  0.33741828  0.24826238  1
  Cu  Cu86  1  0.84097781  0.50705331  0.75114694  1
  Cu  Cu87  1  0.83721995  0.16372579  0.74229033  1
  Cu  Cu88  1  0.33681398  0.66868302  0.01540639  1
  Cu  Cu89  1  0.15418438  0.82747486  0.74409661  1
  Cu  Cu90  1  0.66493973  -0.00011912  0.01057701  1
  Cu  Cu91  1  0.17102342  0.16136241  0.75322957  1
  Cu  Cu92  1  0.48879023  0.17492961  0.76011923  1
  Cu  Cu93  1  0.01121898  0.33892030  0.49232716  1
  Cu  Cu94  1  0.66725209  0.66969184  0.00607595  1
  Cu  Cu95  1  0.00042514  0.33464269  0.00720964  1
  Cu  Cu96  1  0.49063630  0.83442637  0.75054397  1
  Cu  Cu97  1  0.33672532  -0.00150089  0.00929514  1
  Cu  Cu98  1  0.16791788  0.17156369  0.25432675  1
  Cu  Cu99  1  0.66101251  0.34098727  0.00207891  1
  Cu  Cu100  1  0.66627295  0.66393211  0.49210400  1
  Cu  Cu101  1  0.49963020  0.17091510  0.24515825  1
  Cu  Cu102  1  0.16275372  0.50083097  0.24792363  1
  Cu  Cu103  1  0.84140381  0.83250088  0.74594124  1
  Cu  Cu104  1  0.33520117  0.33758681  0.49680116  1
  Cu  Cu105  1  0.66571892  -0.00073359  0.49245825  1
  Cu  Cu106  1  0.49331741  0.49473661  0.75807190  1
  Cu  Cu107  1  0.16572647  0.83814296  0.25185782  1
  Cu  Cu108  1  0.16390114  0.49769321  0.74606265  1
  Cu  Cu109  1  0.33285426  0.32774271  0.00685609  1
  Cu  Cu110  1  0.00113803  0.66634209  0.49211727  1
  Cu  Cu111  1  0.49651221  0.50141499  0.24845597  1
  Cu  Cu112  1  0.33015230  -0.00558482  0.48697665  1
  Cu  Cu113  1  0.83513661  0.50053057  0.25406953  1
  Cu  Cu114  1  0.83964197  0.83045981  0.25200583  1
  Se  Se115  1  0.07756223  0.07901469  0.05330869  1
  Se  Se116  1  0.07545932  0.07561014  0.55427992  1
  Se  Se117  1  0.07864477  0.41462412  0.06911088  1
  Se  Se118  1  0.09262775  0.42171371  0.54717355  1
  Se  Se119  1  0.07335164  0.73970801  0.05623684  1
  Se  Se120  1  0.07979487  0.74659448  0.55294332  1
  Se  Se121  1  0.42003236  0.08564368  0.05896618  1
  Se  Se122  1  0.40423593  0.07397037  0.55243371  1
  Se  Se123  1  0.41540291  0.41797835  0.05260796  1
  Se  Se124  1  0.41768678  0.41389271  0.55893150  1
  Se  Se125  1  0.42187801  0.75364374  0.06369624  1
  Se  Se126  1  0.43652530  0.75944932  0.54149606  1
  Se  Se127  1  0.75340438  0.07519551  0.06669247  1
  Se  Se128  1  0.74509717  0.08345174  0.54840470  1
  Se  Se129  1  0.75246405  0.41605250  0.05436585  1
  Se  Se130  1  0.75036334  0.42196857  0.54304233  1
  Se  Se131  1  0.75105134  0.75289519  0.05881804  1
  Se  Se132  1  0.74736369  0.74879622  0.54636079  1
  Se  Se133  1  0.24679967  0.24448754  0.05600988  1
  Se  Se134  1  0.25787526  0.25373900  0.55744361  1
  Se  Se135  1  0.25021157  0.58992353  0.06909890  1
  Se  Se136  1  0.27911371  0.60681191  0.55671082  1
  Se  Se137  1  0.26212369  0.91707244  0.07294830  1
  Se  Se138  1  0.24567605  0.91462617  0.54257841  1
  Se  Se139  1  0.58472999  0.24889754  0.05131782  1
  Se  Se140  1  0.59261500  0.25894955  0.55891464  1
  Se  Se141  1  0.58411020  0.58373714  0.05713443  1
  Se  Se142  1  0.59143255  0.58893819  0.56204792  1
  Se  Se143  1  0.58269988  0.91367989  0.06087848  1
  Se  Se144  1  0.58101826  0.92014484  0.54833475  1
  Se  Se145  1  0.92069417  0.25355992  0.06745099  1
  Se  Se146  1  0.93034250  0.25612863  0.54909880  1
  Se  Se147  1  0.90529636  0.57783009  0.05517422  1
  Se  Se148  1  0.91606542  0.58139045  0.54548076  1
  Se  Se149  1  0.92498979  0.91379402  0.04611082  1
  Se  Se150  1  0.90020297  0.89478087  0.55395095  1
  Se  Se151  1  0.07783457  0.25197548  0.42881529  1
  Se  Se152  1  0.08326874  0.25175292  0.95418190  1
  Se  Se153  1  0.08836816  0.58416360  0.44219396  1
  Se  Se154  1  0.07689680  0.59316570  0.94645956  1
  Se  Se155  1  0.07172247  0.92149022  0.45048439  1
  Se  Se156  1  0.08489283  0.91851576  0.93617313  1
  Se  Se157  1  0.41709335  0.25445347  0.44291807  1
  Se  Se158  1  0.41659993  0.24700013  0.94961779  1
  Se  Se159  1  0.41419031  0.59291711  0.42954797  1
  Se  Se160  1  0.41301189  0.58238168  0.95810541  1
  Se  Se161  1  0.41837520  0.91270811  0.43936461  1
  Se  Se162  1  0.41632073  0.91261759  0.95410966  1
  Se  Se163  1  0.74681306  0.25380646  0.45184096  1
  Se  Se164  1  0.74206029  0.26253006  0.93785889  1
  Se  Se165  1  0.75153580  0.58165215  0.44183455  1
  Se  Se166  1  0.74838153  0.58915945  0.94645274  1
  Se  Se167  1  0.75132483  0.91464809  0.44358525  1
  Se  Se168  1  0.74392119  0.92336244  0.94781224  1
  Se  Se169  1  0.25260075  0.08083336  0.43208860  1
  Se  Se170  1  0.25199422  0.07674715  0.95268124  1
  Se  Se171  1  0.25329624  0.42248185  0.44612002  1
  Se  Se172  1  0.25465478  0.40839261  0.94242669  1
  Se  Se173  1  0.23620766  0.76445802  0.44489307  1
  Se  Se174  1  0.25697083  0.74400689  0.95072723  1
  Se  Se175  1  0.58573925  0.07431637  0.42926945  1
  Se  Se176  1  0.58258136  0.08635744  0.95917032  1
  Se  Se177  1  0.59203784  0.40655311  0.44310953  1
  Se  Se178  1  0.57983559  0.42461625  0.94742442  1
  Se  Se179  1  0.58482153  0.74591041  0.43701441  1
  Se  Se180  1  0.58018777  0.75331883  0.95415607  1
  Se  Se181  1  0.91395906  0.09559436  0.44549017  1
  Se  Se182  1  0.91990622  0.08187511  0.94046490  1
  Se  Se183  1  0.92314032  0.42249232  0.44406492  1
  Se  Se184  1  0.91630719  0.41941715  0.95657117  1
  Se  Se185  1  0.91452293  0.74886493  0.44239098  1
  Se  Se186  1  0.90398203  0.77444982  0.94600240  1
  Se  Se187  1  0.25135944  0.25859852  0.30363441  1
  Se  Se188  1  0.25111847  0.24678462  0.80571713  1
  Se  Se189  1  0.24603510  0.58334919  0.30234203  1
  Se  Se190  1  0.23788065  0.57628935  0.81268590  1
  Se  Se191  1  0.24752420  0.92295943  0.30570912  1
  Se  Se192  1  0.23983234  0.90485384  0.80317677  1
  Se  Se193  1  0.58170097  0.24087301  0.30992551  1
  Se  Se194  1  0.58057358  0.24578198  0.81624569  1
  Se  Se195  1  0.58547703  0.58191554  0.29860106  1
  Se  Se196  1  0.57290163  0.58113863  0.81188880  1
  Se  Se197  1  0.57838475  0.90208950  0.30317121  1
  Se  Se198  1  0.57392685  0.91063599  0.81131585  1
  Se  Se199  1  0.91556847  0.26389889  0.30084233  1
  Se  Se200  1  0.91209020  0.24195040  0.80803837  1
  Se  Se201  1  0.91977686  0.58662529  0.30258618  1
  Se  Se202  1  0.91914810  0.58819404  0.80830708  1
  Se  Se203  1  0.92124027  0.91472488  0.30580883  1
  Se  Se204  1  0.91929722  0.92099719  0.79920789  1
  Se  Se205  1  0.08181166  0.08339693  0.30004873  1
  Se  Se206  1  0.08373006  0.08158696  0.80401842  1
  Se  Se207  1  0.08101247  0.41650106  0.30149077  1
  Se  Se208  1  0.08746346  0.42407847  0.81439594  1
  Se  Se209  1  0.08274246  0.75081823  0.30310667  1
  Se  Se210  1  0.07740726  0.74339897  0.80088283  1
  Se  Se211  1  0.41478780  0.08773573  0.29686995  1
  Se  Se212  1  0.42061839  0.08221699  0.81756510  1
  Se  Se213  1  0.41464789  0.41343211  0.29901795  1
  Se  Se214  1  0.40783896  0.41381183  0.80856961  1
  Se  Se215  1  0.40445922  0.75018324  0.29803916  1
  Se  Se216  1  0.41689768  0.75335891  0.81383988  1
  Se  Se217  1  0.76397775  0.08142019  0.30782984  1
  Se  Se218  1  0.75666355  0.08868448  0.80604376  1
  Se  Se219  1  0.75600740  0.41876621  0.31415702  1
  Se  Se220  1  0.75874094  0.42300300  0.80605123  1
  Se  Se221  1  0.75199548  0.74738790  0.29988474  1
  Se  Se222  1  0.75628969  0.75870654  0.80853317  1
  Se  Se223  1  0.24904742  0.08675915  0.19872122  1
  Se  Se224  1  0.24148352  0.08641451  0.68354697  1
  Se  Se225  1  0.24902869  0.41591660  0.19863870  1
  Se  Se226  1  0.24932823  0.41267756  0.69806206  1
  Se  Se227  1  0.24910658  0.74869266  0.20432194  1
  Se  Se228  1  0.24145418  0.75521522  0.68471925  1
  Se  Se229  1  0.58258165  0.08969584  0.18876189  1
  Se  Se230  1  0.56546260  0.09358939  0.69658772  1
  Se  Se231  1  0.57782943  0.42229702  0.18545038  1
  Se  Se232  1  0.57593658  0.42382863  0.69346315  1
  Se  Se233  1  0.58535198  0.74464282  0.20382370  1
  Se  Se234  1  0.57407366  0.75691249  0.69148632  1
  Se  Se235  1  0.91660309  0.08346460  0.20323839  1
  Se  Se236  1  0.91689160  0.07660640  0.69150166  1
  Se  Se237  1  0.91657523  0.41650909  0.20056024  1
  Se  Se238  1  0.91365381  0.42282840  0.68857374  1
  Se  Se239  1  0.92071237  0.74716450  0.19600020  1
  Se  Se240  1  0.91959306  0.74197042  0.69502420  1
  Se  Se241  1  0.08166349  0.25070912  0.19911332  1
  Se  Se242  1  0.09295306  0.24076229  0.68958792  1
  Se  Se243  1  0.07686669  0.58664885  0.20021868  1
  Se  Se244  1  0.08306346  0.57895474  0.69056703  1
  Se  Se245  1  0.08338774  0.91524168  0.19212129  1
  Se  Se246  1  0.07691922  0.91726578  0.69333587  1
  Se  Se247  1  0.41530555  0.25483897  0.19477300  1
  Se  Se248  1  0.40799667  0.25661304  0.70502876  1
  Se  Se249  1  0.41313886  0.58486202  0.19649267  1
  Se  Se250  1  0.42017448  0.57525221  0.69294444  1
  Se  Se251  1  0.41588926  0.92686013  0.20819899  1
  Se  Se252  1  0.41274966  0.90725172  0.68475317  1
  Se  Se253  1  0.76073491  0.23932606  0.19883914  1
  Se  Se254  1  0.76211245  0.24517800  0.68207773  1
  Se  Se255  1  0.75150860  0.58384809  0.20051226  1
  Se  Se256  1  0.76171432  0.58229231  0.68731215  1
  Se  Se257  1  0.76147194  0.91081413  0.18838329  1
  Se  Se258  1  0.75507892  0.90864503  0.68591662  1
