# generated using pymatgen
data_In86Cu29Se144
_symmetry_space_group_name_H-M   'P 1'
_cell_length_a   17.58430108
_cell_length_b   17.58260334
_cell_length_c   23.43749991
_cell_angle_alpha   90.00096385
_cell_angle_beta   89.97694160
_cell_angle_gamma   89.98173222
_symmetry_Int_Tables_number   1
_chemical_formula_structural   In86Cu29Se144
_chemical_formula_sum   'In86 Cu29 Se144'
_cell_volume   7246.35348791
_cell_formula_units_Z   1
loop_
 _symmetry_equiv_pos_site_id
 _symmetry_equiv_pos_as_xyz
  1  'x, y, z'
loop_
 _atom_site_type_symbol
 _atom_site_label
 _atom_site_symmetry_multiplicity
 _atom_site_fract_x
 _atom_site_fract_y
 _atom_site_fract_z
 _atom_site_occupancy
  In  In0  1  0.00091894  0.16950717  0.12839081  1
  In  In1  1  0.00408188  0.15436582  0.63481804  1
  In  In2  1  -0.01210604  0.50662060  0.13181838  1
  In  In3  1  -0.00467903  0.50685348  0.62990003  1
  In  In4  1  0.00373566  0.82498671  0.12902372  1
  In  In5  1  0.00632903  0.83411481  0.62099557  1
  In  In6  1  0.33571203  0.16747026  0.11635546  1
  In  In7  1  0.33813993  0.16331518  0.61547397  1
  In  In8  1  0.34345366  0.48609331  0.12616021  1
  In  In9  1  0.34820790  0.50471499  0.62330785  1
  In  In10  1  0.33228152  0.84588351  0.12497848  1
  In  In11  1  0.32089392  0.82790215  0.61372794  1
  In  In12  1  0.69044745  0.19259631  0.09866766  1
  In  In13  1  0.66277729  0.17364571  0.62264288  1
  In  In14  1  0.66744988  0.49494583  0.12845172  1
  In  In15  1  0.67306063  0.50056799  0.61708871  1
  In  In16  1  0.65598990  0.82929400  0.13326766  1
  In  In17  1  0.66894977  0.83486991  0.60769710  1
  In  In18  1  0.15843881  0.00868426  0.38339840  1
  In  In19  1  0.15417882  0.00707482  0.88081777  1
  In  In20  1  0.15170937  0.32661753  0.37323209  1
  In  In21  1  0.14830171  0.33145945  0.87466774  1
  In  In22  1  0.15766993  0.68232328  0.38090833  1
  In  In23  1  0.17133981  0.67597670  0.86945703  1
  In  In24  1  0.50827651  -0.00049199  0.39427019  1
  In  In25  1  0.49896372  0.01549761  0.87206250  1
  In  In26  1  0.50558543  0.32953532  0.37163471  1
  In  In27  1  0.50480776  0.32813983  0.88355339  1
  In  In28  1  0.51430165  0.65329802  0.38188783  1
  In  In29  1  0.49339480  0.66464739  0.87251582  1
  In  In30  1  0.83340920  -0.02295145  0.37643784  1
  In  In31  1  0.84461587  -0.00213776  0.87606515  1
  In  In32  1  0.84020983  0.34354890  0.36622074  1
  In  In33  1  0.83886181  0.32607620  0.88900529  1
  In  In34  1  0.83316800  0.66740711  0.37458685  1
  In  In35  1  0.83359049  0.65194355  0.87608669  1
  In  In36  1  0.00366084  0.17114133  0.36976910  1
  In  In37  1  -0.00190491  0.16758348  0.87872116  1
  In  In38  1  -0.00805647  0.49866844  0.37273064  1
  In  In39  1  -0.00614717  0.49326016  0.86821810  1
  In  In40  1  -0.00620196  0.83064046  0.37284530  1
  In  In41  1  0.00820170  0.84494364  0.86630575  1
  In  In42  1  0.34123871  0.15318136  0.38866421  1
  In  In43  1  0.33028428  0.16013277  0.87633058  1
  In  In44  1  0.34217146  0.50286229  0.37798632  1
  In  In45  1  0.33632274  0.51362902  0.87467207  1
  In  In46  1  0.32883894  0.84793766  0.39202073  1
  In  In47  1  0.33161139  0.81524053  0.86896495  1
  In  In48  1  0.65601944  0.16898999  0.37047844  1
  In  In49  1  0.66160736  0.17365245  0.89368527  1
  In  In50  1  0.66276774  0.50109960  0.36658930  1
  In  In51  1  0.67669686  0.48374363  0.89641078  1
  In  In52  1  0.68379187  0.82204591  0.39040936  1
  In  In53  1  0.66473219  0.83495601  0.87340000  1
  In  In54  1  0.16141477  -0.00649145  0.11874602  1
  In  In55  1  0.15909150  -0.00961403  0.61457694  1
  In  In56  1  0.17194377  0.31886267  0.12715454  1
  In  In57  1  0.16285069  0.31992145  0.62608069  1
  In  In58  1  0.15143286  0.66463842  0.12281661  1
  In  In59  1  0.15542982  0.68110790  0.62932264  1
  In  In60  1  0.50032357  0.00458122  0.12616301  1
  In  In61  1  0.50656184  0.00419628  0.60870227  1
  In  In62  1  0.53328383  0.35591590  0.09512958  1
  In  In63  1  0.50089647  0.33557301  0.61661769  1
  In  In64  1  0.51578716  0.66084963  0.13754796  1
  In  In65  1  0.49777229  0.66289303  0.62222571  1
  In  In66  1  0.83065808  0.02083616  0.12492468  1
  In  In67  1  0.84745911  0.00067134  0.62612523  1
  In  In68  1  0.83324892  0.33771814  0.12701285  1
  In  In69  1  0.83245721  0.34617411  0.62351251  1
  In  In70  1  0.83809765  0.65514894  0.13004725  1
  In  In71  1  0.85921410  0.67860064  0.60446959  1
  In  In72  1  0.16782792  0.49838912  0.00001437  1
  In  In73  1  0.33220286  0.32766660  0.25421986  1
  In  In74  1  0.33398196  0.00249989  0.26096703  1
  In  In75  1  0.32696309  -0.00537971  0.74053538  1
  In  In76  1  0.32914703  0.67106802  0.26072028  1
  In  In77  1  0.66964852  0.00090479  0.25443478  1
  In  In78  1  0.67272682  0.00404031  0.74728401  1
  In  In79  1  0.16273220  0.50446851  0.49411210  1
  In  In80  1  0.66926706  0.65771317  0.74906521  1
  In  In81  1  0.33163354  0.33612836  0.74114366  1
  In  In82  1  0.82991446  0.16367996  0.50269296  1
  In  In83  1  0.83526148  0.83621035  -0.00262147  1
  In  In84  1  0.66934962  0.33398858  0.76345083  1
  In  In85  1  0.49463116  0.83497489  0.00123230  1
  Cu  Cu86  1  0.50584671  0.17478375  0.24532706  1
  Cu  Cu87  1  0.16510073  0.83426154  0.74302401  1
  Cu  Cu88  1  0.66699973  0.33843499  0.49385222  1
  Cu  Cu89  1  -0.00058818  0.33176008  0.00385521  1
  Cu  Cu90  1  0.15835421  0.16489325  0.75149676  1
  Cu  Cu91  1  0.15441708  0.50189939  0.25341989  1
  Cu  Cu92  1  0.83741515  0.17198899  0.75735424  1
  Cu  Cu93  1  0.16230858  0.15914201  0.25096566  1
  Cu  Cu94  1  0.66565696  0.65739685  0.49597915  1
  Cu  Cu95  1  0.84406596  0.50466404  0.74678012  1
  Cu  Cu96  1  0.33661896  0.66733523  -0.00108574  1
  Cu  Cu97  1  0.83492240  0.17216626  0.24625954  1
  Cu  Cu98  1  0.83557999  0.82838155  0.25306210  1
  Cu  Cu99  1  0.50399228  0.50073117  0.75010067  1
  Cu  Cu100  1  0.00114087  0.32752794  0.49541707  1
  Cu  Cu101  1  0.32331586  -0.00473229  -0.00387972  1
  Cu  Cu102  1  0.15615059  0.83143369  0.24942261  1
  Cu  Cu103  1  0.66834601  0.66060145  0.00701739  1
  Cu  Cu104  1  -0.00146259  -0.00533148  0.49934164  1
  Cu  Cu105  1  0.00311522  0.66941648  0.00183373  1
  Cu  Cu106  1  0.16665523  0.50579278  0.75347727  1
  Cu  Cu107  1  0.33440524  0.66668269  0.49906913  1
  Cu  Cu108  1  0.82760598  0.50041782  0.25059898  1
  Cu  Cu109  1  0.33377635  0.33277144  0.50344368  1
  Cu  Cu110  1  0.33182158  0.32583239  -0.00292893  1
  Cu  Cu111  1  -0.00231204  0.00768111  0.00123203  1
  Cu  Cu112  1  0.49666613  0.83158086  0.74246896  1
  Cu  Cu113  1  0.50347131  0.82813851  0.26309985  1
  Cu  Cu114  1  0.84349161  0.82627183  0.74417905  1
  Se  Se115  1  0.08301284  0.08742250  0.05654061  1
  Se  Se116  1  0.07545600  0.08388812  0.55374677  1
  Se  Se117  1  0.08066696  0.41244711  0.06475223  1
  Se  Se118  1  0.08029659  0.40949860  0.55709815  1
  Se  Se119  1  0.08584535  0.75556074  0.05100939  1
  Se  Se120  1  0.08918213  0.75509424  0.55014234  1
  Se  Se121  1  0.40993022  0.06947861  0.05385283  1
  Se  Se122  1  0.42949391  0.09723233  0.54645758  1
  Se  Se123  1  0.41286816  0.41507207  0.04619652  1
  Se  Se124  1  0.41860895  0.42048018  0.54974722  1
  Se  Se125  1  0.41396964  0.74165836  0.06665504  1
  Se  Se126  1  0.41809828  0.74847571  0.55398743  1
  Se  Se127  1  0.75093755  0.07974980  0.04557905  1
  Se  Se128  1  0.74253973  0.07310480  0.56362013  1
  Se  Se129  1  0.75158171  0.41849189  0.05744022  1
  Se  Se130  1  0.75338280  0.41729561  0.54743165  1
  Se  Se131  1  0.74586737  0.74878214  0.06211383  1
  Se  Se132  1  0.75040951  0.74252988  0.54687201  1
  Se  Se133  1  0.24583406  0.24572419  0.04936632  1
  Se  Se134  1  0.24900399  0.24979712  0.55404638  1
  Se  Se135  1  0.25877018  0.58668963  0.06301301  1
  Se  Se136  1  0.25222515  0.58789876  0.56031377  1
  Se  Se137  1  0.24532907  0.90933998  0.05054013  1
  Se  Se138  1  0.26194573  0.93239996  0.55028364  1
  Se  Se139  1  0.55695391  0.22063326  0.05925022  1
  Se  Se140  1  0.58726389  0.25441614  0.54999931  1
  Se  Se141  1  0.58091323  0.58194186  0.05923527  1
  Se  Se142  1  0.58142259  0.57994431  0.55435728  1
  Se  Se143  1  0.59111767  0.92061993  0.05816425  1
  Se  Se144  1  0.58025631  0.91209413  0.54380292  1
  Se  Se145  1  0.91656722  0.25036064  0.05914217  1
  Se  Se146  1  0.92244611  0.25200504  0.56230435  1
  Se  Se147  1  0.91917003  0.58508962  0.05281751  1
  Se  Se148  1  0.90940114  0.56134273  0.55096143  1
  Se  Se149  1  0.92072645  0.92359641  0.06246616  1
  Se  Se150  1  0.91481151  0.91335202  0.55360911  1
  Se  Se151  1  0.08503535  0.24040514  0.44810958  1
  Se  Se152  1  0.08234217  0.24808957  0.95025577  1
  Se  Se153  1  0.06588980  0.59497129  0.44373282  1
  Se  Se154  1  0.08087455  0.58814048  0.93815934  1
  Se  Se155  1  0.07948394  0.91181551  0.44312401  1
  Se  Se156  1  0.07635354  0.91749993  0.94828381  1
  Se  Se157  1  0.41745968  0.25636445  0.44321079  1
  Se  Se158  1  0.41457700  0.24193244  0.94366071  1
  Se  Se159  1  0.41943538  0.58128395  0.45025482  1
  Se  Se160  1  0.42164652  0.58372011  0.94859392  1
  Se  Se161  1  0.41536163  0.92522596  0.45777168  1
  Se  Se162  1  0.40691162  0.91974914  0.93343515  1
  Se  Se163  1  0.75031038  0.25640483  0.43673614  1
  Se  Se164  1  0.73206264  0.27359638  0.95306055  1
  Se  Se165  1  0.74772624  0.57834773  0.43830086  1
  Se  Se166  1  0.75656865  0.58210110  0.95397465  1
  Se  Se167  1  0.73779006  0.93234677  0.45109371  1
  Se  Se168  1  0.74015628  0.92554951  0.94091843  1
  Se  Se169  1  0.25057428  0.07705085  0.45187827  1
  Se  Se170  1  0.24376839  0.08532540  0.94637822  1
  Se  Se171  1  0.25350091  0.40682690  0.43798489  1
  Se  Se172  1  0.25518050  0.40925931  0.93533610  1
  Se  Se173  1  0.24780335  0.75125131  0.45093416  1
  Se  Se174  1  0.25088716  0.74848571  0.94711848  1
  Se  Se175  1  0.58884497  0.09662694  0.45023742  1
  Se  Se176  1  0.58273588  0.07342024  0.94827469  1
  Se  Se177  1  0.58203991  0.41897257  0.43972216  1
  Se  Se178  1  0.57149600  0.41916642  0.95358591  1
  Se  Se179  1  0.58131400  0.74870645  0.44944393  1
  Se  Se180  1  0.59088541  0.74103844  0.94389624  1
  Se  Se181  1  0.91939092  0.07752151  0.43901562  1
  Se  Se182  1  0.91144981  0.08742272  0.94817886  1
  Se  Se183  1  0.91795789  0.41277954  0.44536646  1
  Se  Se184  1  0.92319904  0.42012230  0.94852867  1
  Se  Se185  1  0.89923009  0.76440277  0.44191852  1
  Se  Se186  1  0.92434816  0.74602065  0.93681348  1
  Se  Se187  1  0.24625216  0.23278439  0.31385108  1
  Se  Se188  1  0.24327561  0.24702559  0.80639079  1
  Se  Se189  1  0.23570352  0.57634357  0.31644807  1
  Se  Se190  1  0.25339917  0.58796187  0.80293362  1
  Se  Se191  1  0.23862130  0.90812715  0.31071328  1
  Se  Se192  1  0.24189065  0.91217993  0.81001802  1
  Se  Se193  1  0.59028489  0.25778852  0.29686228  1
  Se  Se194  1  0.57578543  0.23629645  0.80987559  1
  Se  Se195  1  0.57968434  0.58615853  0.29917919  1
  Se  Se196  1  0.58823882  0.56859591  0.81633222  1
  Se  Se197  1  0.58379905  0.91265302  0.31913660  1
  Se  Se198  1  0.57282022  0.91195052  0.80403713  1
  Se  Se199  1  0.92021185  0.25262310  0.30147444  1
  Se  Se200  1  0.91780877  0.25686794  0.81095284  1
  Se  Se201  1  0.91321665  0.58348161  0.30297268  1
  Se  Se202  1  0.92336006  0.59041863  0.80154840  1
  Se  Se203  1  0.91930392  0.91760890  0.29897977  1
  Se  Se204  1  0.91484281  0.91828656  0.79938935  1
  Se  Se205  1  0.07941788  0.07615132  0.30432835  1
  Se  Se206  1  0.07603657  0.08253453  0.80613603  1
  Se  Se207  1  0.07608408  0.41323587  0.30509059  1
  Se  Se208  1  0.08320942  0.41699106  0.79972048  1
  Se  Se209  1  0.07612742  0.74562173  0.30224187  1
  Se  Se210  1  0.08307744  0.75190919  0.80053195  1
  Se  Se211  1  0.43563322  0.09044142  0.31059737  1
  Se  Se212  1  0.41545018  0.09031463  0.79747023  1
  Se  Se213  1  0.42330236  0.42553467  0.30400818  1
  Se  Se214  1  0.42234572  0.41843754  0.80891865  1
  Se  Se215  1  0.41635783  0.75866815  0.32359508  1
  Se  Se216  1  0.41965306  0.74473127  0.79724703  1
  Se  Se217  1  0.76369815  0.09040360  0.31309549  1
  Se  Se218  1  0.75207802  0.09429446  0.81561892  1
  Se  Se219  1  0.74471564  0.41246727  0.29955525  1
  Se  Se220  1  0.76506529  0.42850911  0.81255093  1
  Se  Se221  1  0.74678664  0.75089687  0.30561651  1
  Se  Se222  1  0.75879728  0.75544341  0.80766965  1
  Se  Se223  1  0.24882126  0.08506697  0.19134019  1
  Se  Se224  1  0.23875549  0.09226444  0.68637543  1
  Se  Se225  1  0.23972588  0.42423198  0.19564718  1
  Se  Se226  1  0.24054001  0.42958152  0.68496348  1
  Se  Se227  1  0.24421551  0.75597328  0.19119207  1
  Se  Se228  1  0.25404645  0.75174035  0.69483309  1
  Se  Se229  1  0.58767134  0.09022324  0.18962894  1
  Se  Se230  1  0.57602463  0.08845436  0.69069141  1
  Se  Se231  1  0.57488878  0.41200095  0.18984520  1
  Se  Se232  1  0.58517334  0.41987968  0.69231011  1
  Se  Se233  1  0.58771432  0.74748540  0.20954225  1
  Se  Se234  1  0.58771135  0.75548459  0.68860138  1
  Se  Se235  1  0.91930865  0.08473613  0.19854394  1
  Se  Se236  1  0.91317639  0.08162689  0.70412815  1
  Se  Se237  1  0.91541490  0.41613491  0.20030665  1
  Se  Se238  1  0.92090203  0.41202546  0.69667277  1
  Se  Se239  1  0.91662906  0.74555411  0.19577380  1
  Se  Se240  1  0.92510017  0.74524871  0.68942101  1
  Se  Se241  1  0.08507473  0.25071451  0.20002515  1
  Se  Se242  1  0.07631210  0.25194714  0.69992841  1
  Se  Se243  1  0.07746944  0.58774426  0.19789626  1
  Se  Se244  1  0.08404798  0.58610928  0.69574268  1
  Se  Se245  1  0.08118508  0.91910635  0.19354137  1
  Se  Se246  1  0.08202456  0.92091716  0.69341269  1
  Se  Se247  1  0.41967566  0.24832874  0.18654224  1
  Se  Se248  1  0.42571921  0.24472493  0.68894336  1
  Se  Se249  1  0.41414836  0.58002740  0.19724706  1
  Se  Se250  1  0.42086875  0.58513049  0.69903374  1
  Se  Se251  1  0.42731204  0.90939876  0.20075728  1
  Se  Se252  1  0.42349255  0.91274347  0.68035686  1
  Se  Se253  1  0.74696695  0.24827385  0.19135285  1
  Se  Se254  1  0.75661471  0.24735571  0.69491412  1
  Se  Se255  1  0.74480937  0.58472897  0.19725941  1
  Se  Se256  1  0.76450589  0.58229889  0.68467354  1
  Se  Se257  1  0.75926248  0.91143204  0.19011966  1
  Se  Se258  1  0.75526504  0.90414831  0.68875606  1
