# generated using pymatgen
data_In86Cu29Se144
_symmetry_space_group_name_H-M   'P 1'
_cell_length_a   17.57559500
_cell_length_b   17.57891181
_cell_length_c   23.44195292
_cell_angle_alpha   89.98699070
_cell_angle_beta   90.00692474
_cell_angle_gamma   89.98492317
_symmetry_Int_Tables_number   1
_chemical_formula_structural   In86Cu29Se144
_chemical_formula_sum   'In86 Cu29 Se144'
_cell_volume   7242.62140604
_cell_formula_units_Z   1
loop_
 _symmetry_equiv_pos_site_id
 _symmetry_equiv_pos_as_xyz
  1  'x, y, z'
loop_
 _atom_site_type_symbol
 _atom_site_label
 _atom_site_symmetry_multiplicity
 _atom_site_fract_x
 _atom_site_fract_y
 _atom_site_fract_z
 _atom_site_occupancy
  In  In0  1  -0.00603134  0.17951844  0.12585912  1
  In  In1  1  -0.00519630  0.15485531  0.61185857  1
  In  In2  1  0.01392006  0.50757341  0.11820851  1
  In  In3  1  -0.00227638  0.49663872  0.61498454  1
  In  In4  1  -0.00805642  0.82595100  0.12170992  1
  In  In5  1  0.01665165  0.83543629  0.62330629  1
  In  In6  1  0.34855099  0.16639907  0.12883173  1
  In  In7  1  0.32004879  0.15806810  0.61885860  1
  In  In8  1  0.33083361  0.50360388  0.12664313  1
  In  In9  1  0.33062044  0.51276437  0.62747182  1
  In  In10  1  0.31610592  0.83052146  0.11668432  1
  In  In11  1  0.31618320  0.84542054  0.64651845  1
  In  In12  1  0.66501857  0.16505102  0.13006851  1
  In  In13  1  0.66980368  0.16426377  0.63085008  1
  In  In14  1  0.65538545  0.48560182  0.11439058  1
  In  In15  1  0.66183097  0.48441003  0.63055701  1
  In  In16  1  0.68040750  0.83500973  0.12103266  1
  In  In17  1  0.67454788  0.84370740  0.63046148  1
  In  In18  1  0.16502792  0.00692233  0.39569627  1
  In  In19  1  0.15726907  -0.01177541  0.86913622  1
  In  In20  1  0.17899403  0.32589412  0.37800586  1
  In  In21  1  0.17911176  0.33870544  0.87841245  1
  In  In22  1  0.16529288  0.66518612  0.37254929  1
  In  In23  1  0.18520111  0.66174968  0.88446840  1
  In  In24  1  0.50219764  -0.00893383  0.37073286  1
  In  In25  1  0.51410531  0.00610520  0.86380302  1
  In  In26  1  0.50232374  0.32618751  0.35712081  1
  In  In27  1  0.50760899  0.32253537  0.88475867  1
  In  In28  1  0.48643628  0.67676349  0.36806736  1
  In  In29  1  0.47659691  0.66299965  0.87660753  1
  In  In30  1  0.84268980  0.01408480  0.38137237  1
  In  In31  1  0.83104449  0.00494869  0.87776911  1
  In  In32  1  0.83284342  0.33351862  0.37440527  1
  In  In33  1  0.82258402  0.34299174  0.88310505  1
  In  In34  1  0.82854267  0.64733868  0.37225891  1
  In  In35  1  0.83608308  0.66454579  0.88565879  1
  In  In36  1  0.00204575  0.15775344  0.38761703  1
  In  In37  1  -0.00216778  0.14933909  0.87361399  1
  In  In38  1  -0.00780385  0.50756587  0.37304409  1
  In  In39  1  0.00352500  0.50365851  0.88130073  1
  In  In40  1  0.02095395  0.83371362  0.37848267  1
  In  In41  1  -0.00740611  0.84031148  0.88002001  1
  In  In42  1  0.32466937  0.16928710  0.36535699  1
  In  In43  1  0.34879481  0.17088748  0.87726747  1
  In  In44  1  0.32662846  0.49149138  0.36685034  1
  In  In45  1  0.33178554  0.50752346  0.88775866  1
  In  In46  1  0.32797609  0.82411546  0.37113208  1
  In  In47  1  0.33132548  0.82484644  0.86495050  1
  In  In48  1  0.67651949  0.17576417  0.36560583  1
  In  In49  1  0.66729318  0.16893397  0.87642204  1
  In  In50  1  0.67836054  0.49005877  0.37146299  1
  In  In51  1  0.66817569  0.49342619  0.88232269  1
  In  In52  1  0.65466442  0.83643957  0.37075771  1
  In  In53  1  0.66416212  0.84999579  0.87586537  1
  In  In54  1  0.17830021  -0.00501841  0.12313241  1
  In  In55  1  0.16797113  -0.00406895  0.62497814  1
  In  In56  1  0.16421397  0.34622774  0.12997494  1
  In  In57  1  0.15991403  0.32690170  0.61044354  1
  In  In58  1  0.16625314  0.66496070  0.12719187  1
  In  In59  1  0.17300683  0.67531354  0.61771526  1
  In  In60  1  0.50333902  0.01882914  0.11970089  1
  In  In61  1  0.49193161  0.00055993  0.63879629  1
  In  In62  1  0.49900792  0.32973784  0.13290946  1
  In  In63  1  0.51205097  0.34250365  0.63313342  1
  In  In64  1  0.49388223  0.65377938  0.11752335  1
  In  In65  1  0.47805772  0.66176454  0.63642730  1
  In  In66  1  0.82284857  -0.00557979  0.12122604  1
  In  In67  1  0.82638138  0.01420814  0.63208569  1
  In  In68  1  0.82438659  0.32220557  0.11731175  1
  In  In69  1  0.82741752  0.32559293  0.62039047  1
  In  In70  1  0.84189636  0.67331048  0.11770138  1
  In  In71  1  0.84325462  0.66672931  0.62454534  1
  In  In72  1  0.66323384  0.66063981  0.24103447  1
  In  In73  1  0.49681592  0.83332701  -0.00979505  1
  In  In74  1  0.49407142  0.16120907  0.50266241  1
  In  In75  1  0.66015254  0.67362373  0.76091824  1
  In  In76  1  0.33844990  0.33224001  0.74997630  1
  In  In77  1  0.00131293  0.33637251  0.24945995  1
  In  In78  1  0.00131253  -0.00230912  0.26326934  1
  In  In79  1  0.00665673  0.67278636  0.74533587  1
  In  In80  1  -0.00430853  0.32783242  0.74230831  1
  In  In81  1  0.50046606  0.49883683  0.50414250  1
  In  In82  1  0.49395718  0.83398943  0.50128985  1
  In  In83  1  0.84060001  0.83700546  0.50125935  1
  In  In84  1  0.33644329  0.00141541  0.25029886  1
  In  In85  1  0.16346423  0.16851820  0.00163837  1
  Cu  Cu86  1  0.67347529  0.33263541  0.49725691  1
  Cu  Cu87  1  0.00007884  0.34115826  0.49257517  1
  Cu  Cu88  1  0.66674266  0.00876734  -0.00241759  1
  Cu  Cu89  1  0.16653912  0.83048111  0.24968035  1
  Cu  Cu90  1  -0.00155210  0.66023541  0.49699429  1
  Cu  Cu91  1  0.66973834  0.66379071  0.00013882  1
  Cu  Cu92  1  0.67048384  0.00857562  0.50328386  1
  Cu  Cu93  1  0.50026845  0.50111183  0.24245842  1
  Cu  Cu94  1  0.66760389  0.65763217  0.50109410  1
  Cu  Cu95  1  -0.00586926  0.33515351  0.00013514  1
  Cu  Cu96  1  -0.00586316  -0.00282269  0.00031165  1
  Cu  Cu97  1  0.33320833  0.00259238  -0.00210209  1
  Cu  Cu98  1  0.32314150  0.66610408  0.49758165  1
  Cu  Cu99  1  0.16907491  0.15305781  0.74678975  1
  Cu  Cu100  1  0.16995716  0.83005082  0.75035537  1
  Cu  Cu101  1  0.82471180  0.50336913  0.75497512  1
  Cu  Cu102  1  0.66586718  0.32838872  0.00402725  1
  Cu  Cu103  1  0.83072787  0.16988766  0.75099884  1
  Cu  Cu104  1  0.50347602  0.16929821  0.75375546  1
  Cu  Cu105  1  0.33149212  0.33543621  0.49459764  1
  Cu  Cu106  1  0.83199897  0.49485620  0.24532378  1
  Cu  Cu107  1  0.33724403  0.34084179  0.00585241  1
  Cu  Cu108  1  0.16978234  0.50707756  0.24857644  1
  Cu  Cu109  1  0.83388420  0.85157989  0.75476142  1
  Cu  Cu110  1  0.49759690  0.83910868  0.24359572  1
  Cu  Cu111  1  0.00994237  0.66973524  0.00064373  1
  Cu  Cu112  1  0.17049907  0.49930996  0.75200675  1
  Cu  Cu113  1  0.83098135  0.16007780  0.25017472  1
  Cu  Cu114  1  0.83285380  0.83107138  0.24547311  1
  Se  Se115  1  0.07393003  0.07635915  0.06295915  1
  Se  Se116  1  0.10660689  0.09652207  0.55755126  1
  Se  Se117  1  0.08510716  0.41247836  0.05105955  1
  Se  Se118  1  0.08578256  0.42185453  0.54640529  1
  Se  Se119  1  0.08805071  0.75412765  0.05725804  1
  Se  Se120  1  0.07985916  0.74650514  0.54937520  1
  Se  Se121  1  0.41515523  0.08899533  0.04820657  1
  Se  Se122  1  0.40762250  0.06344096  0.55681435  1
  Se  Se123  1  0.42082005  0.41817127  0.06360372  1
  Se  Se124  1  0.40934608  0.40699280  0.56251164  1
  Se  Se125  1  0.40873217  0.74539106  0.05279914  1
  Se  Se126  1  0.40488940  0.74248480  0.55916444  1
  Se  Se127  1  0.74882909  0.08782130  0.05593623  1
  Se  Se128  1  0.75214829  0.09281417  0.55517840  1
  Se  Se129  1  0.75438131  0.41678299  0.04971978  1
  Se  Se130  1  0.74813194  0.41865735  0.55553460  1
  Se  Se131  1  0.75300567  0.75103025  0.04897849  1
  Se  Se132  1  0.74321375  0.74530009  0.55795442  1
  Se  Se133  1  0.25424811  0.25582196  0.06280072  1
  Se  Se134  1  0.25206586  0.24748707  0.54723364  1
  Se  Se135  1  0.24078254  0.57675768  0.05830522  1
  Se  Se136  1  0.24528701  0.57843738  0.55198748  1
  Se  Se137  1  0.24574092  0.91820388  0.04410931  1
  Se  Se138  1  0.24749416  0.90210176  0.56138292  1
  Se  Se139  1  0.58246387  0.24936220  0.06134192  1
  Se  Se140  1  0.58717608  0.25702467  0.55697781  1
  Se  Se141  1  0.58264050  0.58106857  0.04895032  1
  Se  Se142  1  0.58483660  0.59091033  0.56723382  1
  Se  Se143  1  0.58683109  0.92089689  0.05500572  1
  Se  Se144  1  0.58740754  0.92646069  0.55941522  1
  Se  Se145  1  0.91395223  0.24520899  0.04830478  1
  Se  Se146  1  0.92280198  0.25834246  0.55310243  1
  Se  Se147  1  0.92322989  0.58537816  0.05189155  1
  Se  Se148  1  0.91075895  0.58175602  0.55062049  1
  Se  Se149  1  0.91141369  0.91385289  0.05555480  1
  Se  Se150  1  0.91971216  0.92551733  0.56731774  1
  Se  Se151  1  0.08478716  0.25401604  0.44454052  1
  Se  Se152  1  0.07481704  0.25675147  0.93658063  1
  Se  Se153  1  0.08323973  0.58087822  0.44170457  1
  Se  Se154  1  0.09020703  0.58342795  0.94710597  1
  Se  Se155  1  0.06830956  0.92795618  0.45268155  1
  Se  Se156  1  0.08224877  0.91765150  0.94852019  1
  Se  Se157  1  0.41790186  0.25891937  0.43826980  1
  Se  Se158  1  0.41605282  0.25056850  0.95480085  1
  Se  Se159  1  0.41116408  0.58836329  0.44113851  1
  Se  Se160  1  0.42071051  0.58145497  0.95640211  1
  Se  Se161  1  0.40524438  0.92181719  0.43897310  1
  Se  Se162  1  0.41253829  0.92908896  0.93212769  1
  Se  Se163  1  0.75386078  0.24666611  0.44392164  1
  Se  Se164  1  0.75008003  0.24794353  0.94837262  1
  Se  Se165  1  0.74740420  0.57431558  0.44699196  1
  Se  Se166  1  0.75353512  0.57742668  0.94920696  1
  Se  Se167  1  0.74054418  0.91968759  0.44182971  1
  Se  Se168  1  0.74984529  0.92033341  0.94836986  1
  Se  Se169  1  0.26767398  0.08734153  0.44436143  1
  Se  Se170  1  0.24984458  0.08223314  0.93642381  1
  Se  Se171  1  0.24862953  0.42293430  0.44567964  1
  Se  Se172  1  0.24830826  0.41885915  0.95343036  1
  Se  Se173  1  0.24342471  0.75219945  0.44386839  1
  Se  Se174  1  0.25533284  0.76116115  0.94580938  1
  Se  Se175  1  0.58830170  0.08010507  0.43844903  1
  Se  Se176  1  0.57912307  0.08627372  0.94346740  1
  Se  Se177  1  0.58475467  0.40742192  0.43931091  1
  Se  Se178  1  0.58311347  0.41398585  0.95190526  1
  Se  Se179  1  0.58693475  0.73809002  0.44245253  1
  Se  Se180  1  0.59145518  0.74117013  0.93522095  1
  Se  Se181  1  0.91740128  0.08364200  0.45830141  1
  Se  Se182  1  0.91363364  0.08573384  0.95013087  1
  Se  Se183  1  0.91201544  0.42135957  0.44122078  1
  Se  Se184  1  0.91565030  0.42246548  0.94621571  1
  Se  Se185  1  0.91753437  0.74051908  0.43612024  1
  Se  Se186  1  0.92019458  0.75023269  0.94967329  1
  Se  Se187  1  0.25639146  0.26244733  0.29793967  1
  Se  Se188  1  0.24313487  0.23904181  0.80724429  1
  Se  Se189  1  0.25449520  0.58941477  0.30305680  1
  Se  Se190  1  0.25311884  0.57786659  0.80809261  1
  Se  Se191  1  0.23787191  0.91858869  0.31046751  1
  Se  Se192  1  0.25147241  0.91812949  0.80161767  1
  Se  Se193  1  0.59248530  0.24859684  0.29485508  1
  Se  Se194  1  0.58567949  0.25345074  0.80593184  1
  Se  Se195  1  0.57647934  0.57758628  0.31105725  1
  Se  Se196  1  0.57595891  0.57728568  0.81623812  1
  Se  Se197  1  0.58420568  0.91805044  0.29583061  1
  Se  Se198  1  0.58409399  0.91087313  0.79746030  1
  Se  Se199  1  0.91762542  0.23729753  0.30896902  1
  Se  Se200  1  0.91069497  0.24837004  0.81309472  1
  Se  Se201  1  0.91304883  0.58189707  0.29624417  1
  Se  Se202  1  0.91421876  0.58244962  0.80655093  1
  Se  Se203  1  0.90749082  0.90297475  0.31656615  1
  Se  Se204  1  0.92183736  0.92817680  0.80823647  1
  Se  Se205  1  0.09648521  0.09055281  0.31355285  1
  Se  Se206  1  0.08000979  0.07711667  0.80018377  1
  Se  Se207  1  0.09107699  0.42442234  0.31028610  1
  Se  Se208  1  0.08636383  0.41780594  0.80681471  1
  Se  Se209  1  0.08101635  0.74752682  0.30172023  1
  Se  Se210  1  0.08996736  0.75332981  0.81508829  1
  Se  Se211  1  0.42986039  0.09137900  0.30645589  1
  Se  Se212  1  0.41634206  0.08620275  0.80286237  1
  Se  Se213  1  0.41817684  0.41936179  0.29910191  1
  Se  Se214  1  0.41677779  0.41371359  0.82116569  1
  Se  Se215  1  0.41170476  0.75624563  0.29442065  1
  Se  Se216  1  0.42843256  0.75563857  0.80005711  1
  Se  Se217  1  0.75370065  0.07454565  0.30641480  1
  Se  Se218  1  0.74918438  0.08585673  0.80653489  1
  Se  Se219  1  0.75237207  0.40870901  0.29823507  1
  Se  Se220  1  0.74561533  0.41608964  0.80572403  1
  Se  Se221  1  0.74975956  0.75045651  0.30705406  1
  Se  Se222  1  0.76412932  0.75938451  0.81287934  1
  Se  Se223  1  0.24320916  0.09166743  0.19231724  1
  Se  Se224  1  0.25762983  0.07398148  0.69618130  1
  Se  Se225  1  0.25194171  0.41929415  0.19940872  1
  Se  Se226  1  0.23967266  0.41278730  0.68841653  1
  Se  Se227  1  0.25124818  0.75047788  0.19559986  1
  Se  Se228  1  0.24779713  0.73568662  0.70190568  1
  Se  Se229  1  0.58633639  0.07665830  0.19737989  1
  Se  Se230  1  0.58408341  0.08423738  0.69828333  1
  Se  Se231  1  0.58884645  0.41619682  0.19749672  1
  Se  Se232  1  0.58073483  0.42187358  0.70803136  1
  Se  Se233  1  0.57534281  0.75640244  0.18221707  1
  Se  Se234  1  0.58070449  0.75281272  0.68637939  1
  Se  Se235  1  0.91613599  0.08196413  0.19240611  1
  Se  Se236  1  0.91934093  0.09319697  0.69608543  1
  Se  Se237  1  0.91387294  0.41868310  0.18239843  1
  Se  Se238  1  0.90576183  0.42782907  0.69125652  1
  Se  Se239  1  0.91707772  0.74600543  0.19710607  1
  Se  Se240  1  0.90927498  0.76740662  0.69337921  1
  Se  Se241  1  0.09354061  0.24145533  0.19506379  1
  Se  Se242  1  0.09222219  0.23969273  0.68881017  1
  Se  Se243  1  0.07958036  0.58591252  0.19810550  1
  Se  Se244  1  0.08933949  0.57374407  0.68779237  1
  Se  Se245  1  0.08582384  0.91406037  0.19189092  1
  Se  Se246  1  0.08604927  0.91535523  0.69915773  1
  Se  Se247  1  0.41392607  0.25112954  0.20257024  1
  Se  Se248  1  0.42255768  0.23924780  0.68529508  1
  Se  Se249  1  0.41523670  0.58836731  0.19662408  1
  Se  Se250  1  0.42292076  0.56089911  0.70355789  1
  Se  Se251  1  0.41722266  0.91438608  0.17938289  1
  Se  Se252  1  0.42852203  0.90069569  0.70275048  1
  Se  Se253  1  0.75403311  0.24838691  0.19672696  1
  Se  Se254  1  0.74830183  0.25502958  0.69764369  1
  Se  Se255  1  0.75462095  0.57448776  0.18106113  1
  Se  Se256  1  0.75103372  0.58794553  0.69319731  1
  Se  Se257  1  0.74810254  0.91675486  0.19833890  1
  Se  Se258  1  0.74643905  0.92945905  0.70171203  1
