# generated using pymatgen
data_In86Cu29Se144
_symmetry_space_group_name_H-M   'P 1'
_cell_length_a   17.58972205
_cell_length_b   17.59018031
_cell_length_c   23.45582084
_cell_angle_alpha   90.02071888
_cell_angle_beta   90.00385609
_cell_angle_gamma   90.01943402
_symmetry_Int_Tables_number   1
_chemical_formula_structural   In86Cu29Se144
_chemical_formula_sum   'In86 Cu29 Se144'
_cell_volume   7257.37976175
_cell_formula_units_Z   1
loop_
 _symmetry_equiv_pos_site_id
 _symmetry_equiv_pos_as_xyz
  1  'x, y, z'
loop_
 _atom_site_type_symbol
 _atom_site_label
 _atom_site_symmetry_multiplicity
 _atom_site_fract_x
 _atom_site_fract_y
 _atom_site_fract_z
 _atom_site_occupancy
  In  In0  1  0.00500201  0.17174918  0.11388511  1
  In  In1  1  0.01124417  0.17917079  0.61922931  1
  In  In2  1  -0.02199037  0.49822642  0.12552609  1
  In  In3  1  -0.00012224  0.49093828  0.62701507  1
  In  In4  1  -0.01182820  0.84693854  0.12254298  1
  In  In5  1  -0.00311467  0.82009228  0.62452202  1
  In  In6  1  0.33311188  0.18203143  0.12591717  1
  In  In7  1  0.33014282  0.18487793  0.62660381  1
  In  In8  1  0.32637273  0.49463803  0.12851129  1
  In  In9  1  0.33442800  0.50119521  0.62086884  1
  In  In10  1  0.33862033  0.82940645  0.12419135  1
  In  In11  1  0.32158165  0.83347376  0.62230451  1
  In  In12  1  0.67409364  0.16112452  0.12873565  1
  In  In13  1  0.67373461  0.15951316  0.63179837  1
  In  In14  1  0.70236994  0.46706640  0.16487481  1
  In  In15  1  0.66931288  0.49749729  0.62360179  1
  In  In16  1  0.70000633  0.81169196  0.15003819  1
  In  In17  1  0.66736888  0.82841459  0.62627028  1
  In  In18  1  0.16087994  0.00364151  0.38543372  1
  In  In19  1  0.17393218  0.01298523  0.87451719  1
  In  In20  1  0.16374793  0.33170434  0.37691108  1
  In  In21  1  0.15949122  0.33065227  0.86661917  1
  In  In22  1  0.16858634  0.66117640  0.39032902  1
  In  In23  1  0.15623427  0.65706834  0.86103322  1
  In  In24  1  0.51453814  -0.00553433  0.37171635  1
  In  In25  1  0.50037072  -0.00904690  0.87741220  1
  In  In26  1  0.51295537  0.35898105  0.35958343  1
  In  In27  1  0.51298156  0.34089406  0.86258156  1
  In  In28  1  0.50967124  0.65591017  0.37971225  1
  In  In29  1  0.50020694  0.66553530  0.86327383  1
  In  In30  1  0.83231933  0.00273550  0.37079717  1
  In  In31  1  0.82629929  0.01552771  0.88965005  1
  In  In32  1  0.83142736  0.33641976  0.37595775  1
  In  In33  1  0.83079636  0.33218434  0.87445154  1
  In  In34  1  0.81399125  0.65755305  0.36920542  1
  In  In35  1  0.83392240  0.66816829  0.87381549  1
  In  In36  1  -0.01764587  0.17576503  0.38619289  1
  In  In37  1  -0.01272525  0.18181792  0.88973589  1
  In  In38  1  0.00645302  0.49393329  0.38047927  1
  In  In39  1  -0.03221384  0.47714117  0.84459272  1
  In  In40  1  -0.00509454  0.84001821  0.37527055  1
  In  In41  1  -0.00575971  0.82040050  0.87107554  1
  In  In42  1  0.31832651  0.17473195  0.38140593  1
  In  In43  1  0.32417970  0.17229005  0.87544341  1
  In  In44  1  0.34045194  0.49040155  0.38663507  1
  In  In45  1  0.33360072  0.49789981  0.86051563  1
  In  In46  1  0.33018959  0.82271585  0.37765271  1
  In  In47  1  0.34013611  0.82646981  0.87069618  1
  In  In48  1  0.67364105  0.18303382  0.37058189  1
  In  In49  1  0.68779973  0.19087401  0.85871745  1
  In  In50  1  0.67199626  0.49658036  0.37816235  1
  In  In51  1  0.68763739  0.51239776  0.85700303  1
  In  In52  1  0.66211944  0.82720172  0.35499162  1
  In  In53  1  0.67135613  0.83937952  0.87304457  1
  In  In54  1  0.14354877  0.01237096  0.12511643  1
  In  In55  1  0.16322651  0.00110637  0.61677064  1
  In  In56  1  0.16906676  0.32279543  0.12934153  1
  In  In57  1  0.16798076  0.33759567  0.62171233  1
  In  In58  1  0.17374604  0.66762009  0.12615636  1
  In  In59  1  0.16603710  0.66483601  0.62074620  1
  In  In60  1  0.50797583  -0.00319222  0.13015774  1
  In  In61  1  0.51708648  0.01526477  0.62872572  1
  In  In62  1  0.51002478  0.33749135  0.14261607  1
  In  In63  1  0.48986353  0.33501924  0.63087657  1
  In  In64  1  0.52900669  0.66912180  0.12891834  1
  In  In65  1  0.51615305  0.64849382  0.62961510  1
  In  In66  1  0.82963650  -0.00701192  0.10434735  1
  In  In67  1  0.81971799  0.00356498  0.62936201  1
  In  In68  1  0.84136036  0.32904410  0.12848935  1
  In  In69  1  0.83921450  0.33857512  0.62799800  1
  In  In70  1  0.82577230  0.65511364  0.11867946  1
  In  In71  1  0.85346422  0.63575905  0.65197837  1
  In  In72  1  0.49795414  0.82826668  0.49457406  1
  In  In73  1  -0.00016491  0.65777072  0.25115784  1
  In  In74  1  -0.00395684  0.00101018  0.76068166  1
  In  In75  1  0.15415809  0.49639895  -0.01356256  1
  In  In76  1  0.15580360  0.83530391  -0.00267945  1
  In  In77  1  0.33738006  0.00602501  0.24695227  1
  In  In78  1  0.35090445  0.65142279  0.26700748  1
  In  In79  1  0.49456999  0.17528352  0.50408303  1
  In  In80  1  0.50457554  0.16833164  0.00228018  1
  In  In81  1  -0.01012587  0.00475103  0.25026335  1
  In  In82  1  0.51171983  0.49793878  0.00374956  1
  In  In83  1  0.50451056  0.83232970  0.00060256  1
  In  In84  1  0.83217226  0.82598993  0.49578270  1
  In  In85  1  0.33731027  -0.00041312  0.74960122  1
  Cu  Cu86  1  0.33315226  0.66308838  -0.00823736  1
  Cu  Cu87  1  0.17420773  0.50422813  0.73915682  1
  Cu  Cu88  1  0.31971354  0.00721259  0.00606361  1
  Cu  Cu89  1  0.17361239  0.82806245  0.25508374  1
  Cu  Cu90  1  0.33435370  0.32995285  0.00153212  1
  Cu  Cu91  1  -0.00133833  0.33373156  0.50096607  1
  Cu  Cu92  1  0.67082345  0.33594276  0.49866903  1
  Cu  Cu93  1  -0.00471916  0.34192285  -0.00366742  1
  Cu  Cu94  1  0.81999773  0.83076345  0.75113950  1
  Cu  Cu95  1  0.84426803  0.16940644  0.75223419  1
  Cu  Cu96  1  -0.00331399  0.65964918  0.50708416  1
  Cu  Cu97  1  0.67891037  0.33838658  0.00136672  1
  Cu  Cu98  1  0.66554415  0.00324190  -0.00000220  1
  Cu  Cu99  1  -0.01129366  0.66705504  -0.00294715  1
  Cu  Cu100  1  0.16677073  0.17794550  0.74779808  1
  Cu  Cu101  1  0.49634838  0.49458781  0.74361043  1
  Cu  Cu102  1  0.16229868  0.82802217  0.74505676  1
  Cu  Cu103  1  0.33202790  0.66730163  0.50372188  1
  Cu  Cu104  1  0.49659483  0.82910957  0.74755551  1
  Cu  Cu105  1  0.16534663  0.48626978  0.25236323  1
  Cu  Cu106  1  -0.00521356  -0.00116946  0.49983611  1
  Cu  Cu107  1  0.83608906  0.16963447  0.25112770  1
  Cu  Cu108  1  0.67155815  0.00368843  0.49766456  1
  Cu  Cu109  1  0.32893878  0.00121119  0.50207494  1
  Cu  Cu110  1  0.15602596  0.17427417  0.25346089  1
  Cu  Cu111  1  0.67597913  0.65819325  0.50530944  1
  Cu  Cu112  1  0.49345029  0.16922022  0.25182292  1
  Cu  Cu113  1  0.67612265  0.66248257  0.00039586  1
  Cu  Cu114  1  0.32955980  0.33475025  0.50028864  1
  Se  Se115  1  0.08292446  0.08564256  0.04441250  1
  Se  Se116  1  0.07943697  0.08370535  0.55082916  1
  Se  Se117  1  0.07780467  0.41475902  0.06138633  1
  Se  Se118  1  0.08325830  0.41759066  0.55238019  1
  Se  Se119  1  0.07313875  0.73984967  0.06045189  1
  Se  Se120  1  0.08128660  0.74969106  0.55174028  1
  Se  Se121  1  0.40993641  0.07745898  0.06379367  1
  Se  Se122  1  0.40922397  0.07691642  0.56332653  1
  Se  Se123  1  0.41482546  0.40778609  0.06137973  1
  Se  Se124  1  0.41763031  0.41316399  0.55394111  1
  Se  Se125  1  0.41512995  0.73397832  0.05724138  1
  Se  Se126  1  0.41722632  0.74340821  0.56342971  1
  Se  Se127  1  0.74841679  0.09257006  0.04821267  1
  Se  Se128  1  0.75151697  0.08579637  0.55316230  1
  Se  Se129  1  0.75100543  0.41831475  0.06651388  1
  Se  Se130  1  0.75391829  0.41573379  0.55553767  1
  Se  Se131  1  0.75081610  0.75414502  0.05574083  1
  Se  Se132  1  0.75559151  0.73843572  0.56516301  1
  Se  Se133  1  0.24681045  0.24896217  0.05173590  1
  Se  Se134  1  0.24597222  0.24885467  0.55067769  1
  Se  Se135  1  0.25195577  0.58314178  0.05083121  1
  Se  Se136  1  0.24835341  0.58097158  0.55199020  1
  Se  Se137  1  0.24636795  0.91985961  0.06500893  1
  Se  Se138  1  0.24466554  0.91432381  0.55066853  1
  Se  Se139  1  0.59040503  0.26416199  0.06164768  1
  Se  Se140  1  0.59294196  0.25584640  0.56255979  1
  Se  Se141  1  0.60687735  0.57899922  0.06345904  1
  Se  Se142  1  0.58412324  0.57524879  0.54932504  1
  Se  Se143  1  0.59474657  0.91731418  0.06172585  1
  Se  Se144  1  0.58777523  0.92264501  0.55380123  1
  Se  Se145  1  0.91538550  0.25449592  0.04951308  1
  Se  Se146  1  0.91473272  0.25157743  0.55543951  1
  Se  Se147  1  0.91001363  0.57711543  0.04794192  1
  Se  Se148  1  0.91298197  0.57870996  0.56106947  1
  Se  Se149  1  0.93109954  0.92539676  0.04269955  1
  Se  Se150  1  0.91484214  0.91987928  0.56162867  1
  Se  Se151  1  0.08174769  0.24811370  0.44760348  1
  Se  Se152  1  0.08688652  0.26164948  0.94759671  1
  Se  Se153  1  0.08257382  0.57726328  0.45362728  1
  Se  Se154  1  0.06313645  0.58850972  0.93276939  1
  Se  Se155  1  0.07769751  0.91353472  0.44769382  1
  Se  Se156  1  0.07761431  0.92331667  0.92979755  1
  Se  Se157  1  0.41601287  0.26425214  0.43650542  1
  Se  Se158  1  0.41969533  0.25910212  0.93924809  1
  Se  Se159  1  0.41628228  0.58822352  0.44828219  1
  Se  Se160  1  0.41623219  0.58104500  0.93773384  1
  Se  Se161  1  0.40884894  0.92791283  0.43908759  1
  Se  Se162  1  0.39973580  0.92310213  0.94811963  1
  Se  Se163  1  0.75380775  0.24934943  0.44852594  1
  Se  Se164  1  0.75339404  0.24782626  0.94774239  1
  Se  Se165  1  0.75725705  0.57612577  0.45027173  1
  Se  Se166  1  0.75355941  0.57906319  0.94217797  1
  Se  Se167  1  0.73995800  0.91513656  0.43663235  1
  Se  Se168  1  0.74721313  0.91596053  0.94812415  1
  Se  Se169  1  0.24549308  0.08745270  0.45152898  1
  Se  Se170  1  0.24615264  0.09341469  0.94959431  1
  Se  Se171  1  0.24312187  0.41672479  0.44852379  1
  Se  Se172  1  0.26030994  0.41177128  0.93770335  1
  Se  Se173  1  0.24900886  0.75407642  0.45274844  1
  Se  Se174  1  0.24765979  0.74266396  0.93699477  1
  Se  Se175  1  0.58719689  0.08606594  0.44275108  1
  Se  Se176  1  0.58913614  0.08195577  0.93711434  1
  Se  Se177  1  0.58247494  0.41614743  0.44657800  1
  Se  Se178  1  0.59826820  0.41287836  0.93843784  1
  Se  Se179  1  0.60348128  0.74618246  0.44421015  1
  Se  Se180  1  0.58848685  0.73632474  0.94069266  1
  Se  Se181  1  0.90722667  0.07776845  0.44747798  1
  Se  Se182  1  0.92774869  0.07850377  0.95203019  1
  Se  Se183  1  0.91564081  0.41599250  0.44651909  1
  Se  Se184  1  0.91443784  0.42258710  0.93897468  1
  Se  Se185  1  0.92305572  0.73418263  0.43670229  1
  Se  Se186  1  0.90860365  0.75581269  0.94702569  1
  Se  Se187  1  0.24765203  0.25167114  0.30403569  1
  Se  Se188  1  0.25519062  0.25681826  0.80055797  1
  Se  Se189  1  0.23832751  0.57397286  0.31317736  1
  Se  Se190  1  0.25430176  0.58837114  0.79662444  1
  Se  Se191  1  0.24596170  0.91763904  0.31173578  1
  Se  Se192  1  0.24077740  0.90804824  0.80692076  1
  Se  Se193  1  0.57992835  0.25224105  0.30234354  1
  Se  Se194  1  0.57468997  0.23764276  0.80029538  1
  Se  Se195  1  0.59765571  0.58924362  0.30972952  1
  Se  Se196  1  0.57903503  0.57731064  0.79859544  1
  Se  Se197  1  0.59458162  0.93010796  0.29598126  1
  Se  Se198  1  0.57623392  0.91049618  0.80519064  1
  Se  Se199  1  0.91660121  0.25251423  0.30639302  1
  Se  Se200  1  0.92411035  0.25397629  0.80636785  1
  Se  Se201  1  0.90975881  0.56970707  0.30973627  1
  Se  Se202  1  0.91688371  0.59758938  0.79762875  1
  Se  Se203  1  0.90207774  0.90343489  0.30096020  1
  Se  Se204  1  0.89861699  0.91212783  0.81293004  1
  Se  Se205  1  0.08184368  0.08999106  0.31363618  1
  Se  Se206  1  0.08681996  0.10082583  0.81043407  1
  Se  Se207  1  0.07787013  0.40998380  0.30603775  1
  Se  Se208  1  0.09286975  0.42688077  0.79931230  1
  Se  Se209  1  0.09071766  0.75029760  0.31338441  1
  Se  Se210  1  0.07582820  0.74773574  0.79686330  1
  Se  Se211  1  0.41932724  0.09148727  0.31673455  1
  Se  Se212  1  0.42039961  0.08723785  0.81399116  1
  Se  Se213  1  0.40848847  0.42844455  0.30204234  1
  Se  Se214  1  0.41476839  0.40930161  0.79697293  1
  Se  Se215  1  0.43469600  0.75935652  0.31355173  1
  Se  Se216  1  0.41076409  0.74498811  0.79676646  1
  Se  Se217  1  0.75050704  0.08938580  0.30526193  1
  Se  Se218  1  0.76092037  0.08313958  0.80451503  1
  Se  Se219  1  0.73789588  0.40371756  0.30621400  1
  Se  Se220  1  0.73981808  0.39827538  0.80197581  1
  Se  Se221  1  0.76447192  0.75698150  0.29838910  1
  Se  Se222  1  0.74127068  0.74532311  0.80612483  1
  Se  Se223  1  0.23711875  0.09266725  0.19315131  1
  Se  Se224  1  0.24077643  0.08712462  0.69186233  1
  Se  Se225  1  0.25108508  0.40841112  0.19727260  1
  Se  Se226  1  0.25589459  0.41485496  0.69096056  1
  Se  Se227  1  0.25771578  0.74725699  0.20007928  1
  Se  Se228  1  0.24855688  0.74795904  0.69281784  1
  Se  Se229  1  0.57767861  0.09114585  0.19579280  1
  Se  Se230  1  0.59582480  0.07928573  0.70520034  1
  Se  Se231  1  0.56983624  0.43874038  0.20609960  1
  Se  Se232  1  0.58438908  0.41374874  0.69261902  1
  Se  Se233  1  0.57605106  0.76906319  0.19888503  1
  Se  Se234  1  0.58230727  0.74862071  0.69445692  1
  Se  Se235  1  0.90944411  0.09201961  0.18345452  1
  Se  Se236  1  0.91979720  0.08792324  0.68893018  1
  Se  Se237  1  0.91167347  0.41859013  0.20069067  1
  Se  Se238  1  0.90798058  0.42782235  0.70051779  1
  Se  Se239  1  0.91836582  0.74754030  0.18643654  1
  Se  Se240  1  0.91223360  0.75587673  0.70000536  1
  Se  Se241  1  0.07299509  0.24996821  0.19432910  1
  Se  Se242  1  0.08292853  0.25970280  0.69446306  1
  Se  Se243  1  0.09452311  0.57080668  0.18818748  1
  Se  Se244  1  0.08354138  0.58362295  0.69016451  1
  Se  Se245  1  0.08944726  0.90787856  0.19710217  1
  Se  Se246  1  0.08310325  0.91570806  0.69147350  1
  Se  Se247  1  0.41269027  0.25516363  0.19983366  1
  Se  Se248  1  0.43260621  0.22888572  0.69540778  1
  Se  Se249  1  0.42330677  0.58343771  0.18360131  1
  Se  Se250  1  0.41463381  0.58323119  0.69339267  1
  Se  Se251  1  0.42457379  0.90457398  0.19687245  1
  Se  Se252  1  0.42505220  0.91269820  0.68442472  1
  Se  Se253  1  0.74966875  0.25030481  0.19617513  1
  Se  Se254  1  0.75958453  0.24690005  0.69500183  1
  Se  Se255  1  0.74271536  0.60030273  0.19885094  1
  Se  Se256  1  0.72502439  0.59873210  0.69383235  1
  Se  Se257  1  0.75466539  0.93702732  0.18805113  1
  Se  Se258  1  0.74227770  0.91656362  0.69641443  1
