# generated using pymatgen
data_In86Cu29Se144
_symmetry_space_group_name_H-M   'P 1'
_cell_length_a   17.58048475
_cell_length_b   17.58037424
_cell_length_c   23.44437626
_cell_angle_alpha   90.01678121
_cell_angle_beta   90.03716283
_cell_angle_gamma   89.99518313
_symmetry_Int_Tables_number   1
_chemical_formula_structural   In86Cu29Se144
_chemical_formula_sum   'In86 Cu29 Se144'
_cell_volume   7245.98670491
_cell_formula_units_Z   1
loop_
 _symmetry_equiv_pos_site_id
 _symmetry_equiv_pos_as_xyz
  1  'x, y, z'
loop_
 _atom_site_type_symbol
 _atom_site_label
 _atom_site_symmetry_multiplicity
 _atom_site_fract_x
 _atom_site_fract_y
 _atom_site_fract_z
 _atom_site_occupancy
  In  In0  1  -0.00123257  0.15959248  0.12018466  1
  In  In1  1  0.01287031  0.16011244  0.62484576  1
  In  In2  1  0.00951733  0.50260483  0.12354633  1
  In  In3  1  0.00989311  0.49220344  0.63203095  1
  In  In4  1  0.00353413  0.83168670  0.12447683  1
  In  In5  1  0.00689373  0.83169741  0.62623957  1
  In  In6  1  0.32857166  0.16403939  0.11868619  1
  In  In7  1  0.31715894  0.16661677  0.62675951  1
  In  In8  1  0.32946389  0.50227019  0.11471813  1
  In  In9  1  0.34462756  0.50949365  0.61847662  1
  In  In10  1  0.33408255  0.83656808  0.11802384  1
  In  In11  1  0.33153052  0.83273681  0.62799387  1
  In  In12  1  0.65531531  0.16874255  0.12655443  1
  In  In13  1  0.66943148  0.15405474  0.62103275  1
  In  In14  1  0.65600967  0.51853026  0.13422268  1
  In  In15  1  0.66728988  0.51840068  0.62345793  1
  In  In16  1  0.65395202  0.83324017  0.13947558  1
  In  In17  1  0.65092496  0.83524445  0.62134855  1
  In  In18  1  0.16058555  -0.00355760  0.39175314  1
  In  In19  1  0.16514621  -0.00702057  0.87613047  1
  In  In20  1  0.17091818  0.33051432  0.38107157  1
  In  In21  1  0.15108652  0.33980573  0.88512817  1
  In  In22  1  0.15914903  0.67952902  0.38280426  1
  In  In23  1  0.16901326  0.66921389  0.87045163  1
  In  In24  1  0.49854746  -0.02783793  0.37393850  1
  In  In25  1  0.48864090  0.00485026  0.88423713  1
  In  In26  1  0.50543959  0.34234056  0.37602494  1
  In  In27  1  0.48961036  0.33696573  0.88351176  1
  In  In28  1  0.50070975  0.66574438  0.37617551  1
  In  In29  1  0.49714086  0.66862670  0.87490579  1
  In  In30  1  0.84163774  0.00412251  0.36997796  1
  In  In31  1  0.83704175  -0.01153536  0.87299180  1
  In  In32  1  0.82761473  0.32180330  0.37694401  1
  In  In33  1  0.84571702  0.32643831  0.87226524  1
  In  In34  1  0.83643006  0.65912194  0.36191207  1
  In  In35  1  0.83450331  0.67008652  0.86630441  1
  In  In36  1  0.01000113  0.14767681  0.38678368  1
  In  In37  1  0.01116071  0.16723951  0.87096315  1
  In  In38  1  0.00524760  0.51450354  0.37385904  1
  In  In39  1  0.00579992  0.50675222  0.86777067  1
  In  In40  1  0.00152115  0.83534781  0.36776082  1
  In  In41  1  0.02008718  0.84972882  0.86093448  1
  In  In42  1  0.32202799  0.13968433  0.39014650  1
  In  In43  1  0.33283296  0.15660587  0.87752609  1
  In  In44  1  0.33360031  0.50376723  0.38113470  1
  In  In45  1  0.32335826  0.50815582  0.87724432  1
  In  In46  1  0.33344599  0.83882989  0.39006736  1
  In  In47  1  0.33204542  0.83245539  0.87474758  1
  In  In48  1  0.68403810  0.16690420  0.37729317  1
  In  In49  1  0.66376534  0.15135560  0.87969284  1
  In  In50  1  0.65467283  0.50791449  0.36691640  1
  In  In51  1  0.65157114  0.50465897  0.87850974  1
  In  In52  1  0.65580187  0.82284311  0.36415854  1
  In  In53  1  0.66827754  0.82007980  0.87675902  1
  In  In54  1  0.15463684  -0.00606215  0.11127228  1
  In  In55  1  0.17015694  -0.00458634  0.62729615  1
  In  In56  1  0.15870718  0.33481146  0.11023322  1
  In  In57  1  0.15715210  0.32713773  0.62126942  1
  In  In58  1  0.16142550  0.66319804  0.11483476  1
  In  In59  1  0.16977602  0.66846664  0.62627087  1
  In  In60  1  0.49829489  -0.00084629  0.12519883  1
  In  In61  1  0.49837159  -0.01557762  0.62335021  1
  In  In62  1  0.49615075  0.33064483  0.11869076  1
  In  In63  1  0.48497442  0.34117019  0.62592217  1
  In  In64  1  0.50071891  0.67083627  0.12370119  1
  In  In65  1  0.49870858  0.67191873  0.62617021  1
  In  In66  1  0.84019746  -0.00727236  0.13297204  1
  In  In67  1  0.84534635  0.01349191  0.61542623  1
  In  In68  1  0.83550475  0.33647374  0.12388929  1
  In  In69  1  0.85451172  0.33312152  0.62481488  1
  In  In70  1  0.82867164  0.66913276  0.13748334  1
  In  In71  1  0.83378972  0.66809959  0.63049730  1
  In  In72  1  0.33473724  0.66938653  0.24989582  1
  In  In73  1  0.32472059  0.33491681  0.75394138  1
  In  In74  1  0.67126105  0.33668154  0.24879221  1
  In  In75  1  0.83416795  0.50013227  0.00444007  1
  In  In76  1  -0.00078391  0.33459234  0.24208376  1
  In  In77  1  0.83443550  0.16632636  -0.00051510  1
  In  In78  1  0.83404545  0.49683841  0.49340296  1
  In  In79  1  0.67162634  0.33516831  0.75588286  1
  In  In80  1  0.67236748  -0.01062065  0.74910712  1
  In  In81  1  0.84203765  0.83992164  0.49943482  1
  In  In82  1  0.83663626  0.83123588  0.00721852  1
  In  In83  1  0.33443567  -0.00657785  0.25262325  1
  In  In84  1  0.33038479  0.33590766  0.25813108  1
  In  In85  1  0.50013569  0.17096103  0.49989174  1
  Cu  Cu86  1  0.50371230  0.51241211  0.74894671  1
  Cu  Cu87  1  0.49611261  0.15945785  0.75843331  1
  Cu  Cu88  1  0.00464834  0.67143968  -0.00652208  1
  Cu  Cu89  1  0.16572785  0.50516290  0.24450909  1
  Cu  Cu90  1  0.65846550  0.33399031  0.00106422  1
  Cu  Cu91  1  0.65735053  -0.00388150  0.00814010  1
  Cu  Cu92  1  0.33508572  0.66996820  0.50530790  1
  Cu  Cu93  1  0.33406430  0.34436060  0.49903469  1
  Cu  Cu94  1  0.66718416  0.33919303  0.49744854  1
  Cu  Cu95  1  0.17032393  0.83207678  0.74841041  1
  Cu  Cu96  1  0.16308878  0.15369355  0.25482664  1
  Cu  Cu97  1  0.65604173  0.66593066  0.00222086  1
  Cu  Cu98  1  0.65660134  0.67369819  0.49781483  1
  Cu  Cu99  1  0.33198490  0.66586577  -0.00441966  1
  Cu  Cu100  1  0.50055647  0.16106050  0.24925477  1
  Cu  Cu101  1  0.15911329  0.83327186  0.24962903  1
  Cu  Cu102  1  0.49808497  0.82921583  0.75049919  1
  Cu  Cu103  1  0.83834814  0.83294904  0.74591363  1
  Cu  Cu104  1  0.16273477  0.15985464  0.74993430  1
  Cu  Cu105  1  0.66649576  -0.00317549  0.49489259  1
  Cu  Cu106  1  0.33310949  0.32752051  -0.00420208  1
  Cu  Cu107  1  0.00320904  0.66497620  0.50231402  1
  Cu  Cu108  1  0.33150236  -0.00433400  -0.00049846  1
  Cu  Cu109  1  0.16922203  0.50489419  0.74970834  1
  Cu  Cu110  1  0.84304564  0.15781507  0.25357252  1
  Cu  Cu111  1  0.84637267  0.16885748  0.74532036  1
  Cu  Cu112  1  0.83701910  0.50420908  0.74709303  1
  Cu  Cu113  1  0.00253699  0.32704869  0.50408188  1
  Cu  Cu114  1  0.83273557  0.83684634  0.25098348  1
  Se  Se115  1  0.09371292  0.10064595  0.05021656  1
  Se  Se116  1  0.10767561  0.09389454  0.55530738  1
  Se  Se117  1  0.07909182  0.42525880  0.04793851  1
  Se  Se118  1  0.08245349  0.41865139  0.55282998  1
  Se  Se119  1  0.08384058  0.75580852  0.05005918  1
  Se  Se120  1  0.08501026  0.74884608  0.55536323  1
  Se  Se121  1  0.41458138  0.07878088  0.05539131  1
  Se  Se122  1  0.41435949  0.08458773  0.56364436  1
  Se  Se123  1  0.41283227  0.41305944  0.05162056  1
  Se  Se124  1  0.42432945  0.42388129  0.54792652  1
  Se  Se125  1  0.41409252  0.74658078  0.05374554  1
  Se  Se126  1  0.41931995  0.75561646  0.55631596  1
  Se  Se127  1  0.74534540  0.07582703  0.06263496  1
  Se  Se128  1  0.74944675  0.08094749  0.54700564  1
  Se  Se129  1  0.73533225  0.41366443  0.06254810  1
  Se  Se130  1  0.74814126  0.41275582  0.56384867  1
  Se  Se131  1  0.73952349  0.74381617  0.06256122  1
  Se  Se132  1  0.74606543  0.74699703  0.55590044  1
  Se  Se133  1  0.24830656  0.24834457  0.05085166  1
  Se  Se134  1  0.25587137  0.26007478  0.55503974  1
  Se  Se135  1  0.24542400  0.58194137  0.04669766  1
  Se  Se136  1  0.24963905  0.58425793  0.55480173  1
  Se  Se137  1  0.24592663  0.91154810  0.04982300  1
  Se  Se138  1  0.24645060  0.90898217  0.55799836  1
  Se  Se139  1  0.57843767  0.24484059  0.05186555  1
  Se  Se140  1  0.58951400  0.26141820  0.56341868  1
  Se  Se141  1  0.57544446  0.57928849  0.05379289  1
  Se  Se142  1  0.57875541  0.58734884  0.55323919  1
  Se  Se143  1  0.58001880  0.90789308  0.06085257  1
  Se  Se144  1  0.57959774  0.91616292  0.54602401  1
  Se  Se145  1  0.92465831  0.26285530  0.05404997  1
  Se  Se146  1  0.92230989  0.24145997  0.55651301  1
  Se  Se147  1  0.92082504  0.60008150  0.05836521  1
  Se  Se148  1  0.91970013  0.58372331  0.55952030  1
  Se  Se149  1  0.92808196  0.93058222  0.05451537  1
  Se  Se150  1  0.93796767  0.92957823  0.55217422  1
  Se  Se151  1  0.08552388  0.24797974  0.44624366  1
  Se  Se152  1  0.08068353  0.24332374  0.94937842  1
  Se  Se153  1  0.08794574  0.58189402  0.44944724  1
  Se  Se154  1  0.08501053  0.58580472  0.94044163  1
  Se  Se155  1  0.07973757  0.89817498  0.44664762  1
  Se  Se156  1  0.08204814  0.91245758  0.94658013  1
  Se  Se157  1  0.40599393  0.25714090  0.43634848  1
  Se  Se158  1  0.41665940  0.24066091  0.94583153  1
  Se  Se159  1  0.41662343  0.58832694  0.44705746  1
  Se  Se160  1  0.41706485  0.58199618  0.94344791  1
  Se  Se161  1  0.39648837  0.94735920  0.44817924  1
  Se  Se162  1  0.41589284  0.91006474  0.94856667  1
  Se  Se163  1  0.75209677  0.24935533  0.45444847  1
  Se  Se164  1  0.74054165  0.25865729  0.93943244  1
  Se  Se165  1  0.74229887  0.59335487  0.44063150  1
  Se  Se166  1  0.74589389  0.59297146  0.94332770  1
  Se  Se167  1  0.74551224  0.91548787  0.43440604  1
  Se  Se168  1  0.74109033  0.92184673  0.94619530  1
  Se  Se169  1  0.22552377  0.09142636  0.46357049  1
  Se  Se170  1  0.24750036  0.07803410  0.94587088  1
  Se  Se171  1  0.24589323  0.42318974  0.44660218  1
  Se  Se172  1  0.25193962  0.41449788  0.94395871  1
  Se  Se173  1  0.24933997  0.75121747  0.45207081  1
  Se  Se174  1  0.24785327  0.74995282  0.94345822  1
  Se  Se175  1  0.58560717  0.08058851  0.43628946  1
  Se  Se176  1  0.57928913  0.08196081  0.95238217  1
  Se  Se177  1  0.58781279  0.42391107  0.44438057  1
  Se  Se178  1  0.57700232  0.41964032  0.94855220  1
  Se  Se179  1  0.57640480  0.75820903  0.44413351  1
  Se  Se180  1  0.57835778  0.75205048  0.94723987  1
  Se  Se181  1  0.90207478  0.08993822  0.44693390  1
  Se  Se182  1  0.92051658  0.07646930  0.93854805  1
  Se  Se183  1  0.92879973  0.40602381  0.43697776  1
  Se  Se184  1  0.92368282  0.41611341  0.94074960  1
  Se  Se185  1  0.91839015  0.73709630  0.43989999  1
  Se  Se186  1  0.92080678  0.75126376  0.93624060  1
  Se  Se187  1  0.24753894  0.23115228  0.31273635  1
  Se  Se188  1  0.23835152  0.24309541  0.81312763  1
  Se  Se189  1  0.24195391  0.58159867  0.30988893  1
  Se  Se190  1  0.25470749  0.58790824  0.80020149  1
  Se  Se191  1  0.24034569  0.90856571  0.31267893  1
  Se  Se192  1  0.25094086  0.91588542  0.80479591  1
  Se  Se193  1  0.57970376  0.24337452  0.30941786  1
  Se  Se194  1  0.57766924  0.24292391  0.81310819  1
  Se  Se195  1  0.58459783  0.59890778  0.29917231  1
  Se  Se196  1  0.58792543  0.59179640  0.80419124  1
  Se  Se197  1  0.59132381  0.92473632  0.29940517  1
  Se  Se198  1  0.57731622  0.91140824  0.81267571  1
  Se  Se199  1  0.92151914  0.24273837  0.31071481  1
  Se  Se200  1  0.92725299  0.25101564  0.80107239  1
  Se  Se201  1  0.92429964  0.57893762  0.29797669  1
  Se  Se202  1  0.92028817  0.58821440  0.80041299  1
  Se  Se203  1  0.91993469  0.91974610  0.30026318  1
  Se  Se204  1  0.91843657  0.91965565  0.79783669  1
  Se  Se205  1  0.08582852  0.07065006  0.31130868  1
  Se  Se206  1  0.08216632  0.07408874  0.80352102  1
  Se  Se207  1  0.09307612  0.41777632  0.30588341  1
  Se  Se208  1  0.08893564  0.41779361  0.80274473  1
  Se  Se209  1  0.08080619  0.74396866  0.30193589  1
  Se  Se210  1  0.08370761  0.74654943  0.79852869  1
  Se  Se211  1  0.42084625  0.08856995  0.31379687  1
  Se  Se212  1  0.41108965  0.07399804  0.80511592  1
  Se  Se213  1  0.42559392  0.43144131  0.30616018  1
  Se  Se214  1  0.42394337  0.42615774  0.80611985  1
  Se  Se215  1  0.41559099  0.76272205  0.31303233  1
  Se  Se216  1  0.41364091  0.74799220  0.80454435  1
  Se  Se217  1  0.74956742  0.08156750  0.30224319  1
  Se  Se218  1  0.76121120  0.09062082  0.80471117  1
  Se  Se219  1  0.76057606  0.42407103  0.31130446  1
  Se  Se220  1  0.75985084  0.42920980  0.81456843  1
  Se  Se221  1  0.75187920  0.74848408  0.30108548  1
  Se  Se222  1  0.75065039  0.75469336  0.79943007  1
  Se  Se223  1  0.24484749  0.08109979  0.19069024  1
  Se  Se224  1  0.25138237  0.07961379  0.69998758  1
  Se  Se225  1  0.24240706  0.41800693  0.18843779  1
  Se  Se226  1  0.24666125  0.42427616  0.68611418  1
  Se  Se227  1  0.24233856  0.75660197  0.18907325  1
  Se  Se228  1  0.25391359  0.74615464  0.69790854  1
  Se  Se229  1  0.58303694  0.07964690  0.19567791  1
  Se  Se230  1  0.57770640  0.08513609  0.69469660  1
  Se  Se231  1  0.57071944  0.41829548  0.19343585  1
  Se  Se232  1  0.57994103  0.42257896  0.69261573  1
  Se  Se233  1  0.58745771  0.73072549  0.20160936  1
  Se  Se234  1  0.58623894  0.75071510  0.69708036  1
  Se  Se235  1  0.92630207  0.08065039  0.19579007  1
  Se  Se236  1  0.92449619  0.08001559  0.69380726  1
  Se  Se237  1  0.90690448  0.43153439  0.19144573  1
  Se  Se238  1  0.92071162  0.41522162  0.70089114  1
  Se  Se239  1  0.91820371  0.75636995  0.19594541  1
  Se  Se240  1  0.92252319  0.74864809  0.69451013  1
  Se  Se241  1  0.09596232  0.24175574  0.19118552  1
  Se  Se242  1  0.08425186  0.24992260  0.69766037  1
  Se  Se243  1  0.08385763  0.59060977  0.19330670  1
  Se  Se244  1  0.08400462  0.58680627  0.69600485  1
  Se  Se245  1  0.08444302  0.92011959  0.19216880  1
  Se  Se246  1  0.08452342  0.91621049  0.69717661  1
  Se  Se247  1  0.41698144  0.24300228  0.19446071  1
  Se  Se248  1  0.42065326  0.24271529  0.69673125  1
  Se  Se249  1  0.41650092  0.57397040  0.18944610  1
  Se  Se250  1  0.41506603  0.58859318  0.69552925  1
  Se  Se251  1  0.42416142  0.90194556  0.19533705  1
  Se  Se252  1  0.41687372  0.91592042  0.69863530  1
  Se  Se253  1  0.76301850  0.23912976  0.19263132  1
  Se  Se254  1  0.75513505  0.24345842  0.68985348  1
  Se  Se255  1  0.75539272  0.57546657  0.20064387  1
  Se  Se256  1  0.74878320  0.58696234  0.69899925  1
  Se  Se257  1  0.74740160  0.91857079  0.19804121  1
  Se  Se258  1  0.76167593  0.91080132  0.67968196  1
