# generated using pymatgen
data_In86Cu29Se144
_symmetry_space_group_name_H-M   'P 1'
_cell_length_a   17.58437542
_cell_length_b   17.58405967
_cell_length_c   23.43709985
_cell_angle_alpha   89.99369737
_cell_angle_beta   89.98349257
_cell_angle_gamma   89.98238190
_symmetry_Int_Tables_number   1
_chemical_formula_structural   In86Cu29Se144
_chemical_formula_sum   'In86 Cu29 Se144'
_cell_volume   7246.86089600
_cell_formula_units_Z   1
loop_
 _symmetry_equiv_pos_site_id
 _symmetry_equiv_pos_as_xyz
  1  'x, y, z'
loop_
 _atom_site_type_symbol
 _atom_site_label
 _atom_site_symmetry_multiplicity
 _atom_site_fract_x
 _atom_site_fract_y
 _atom_site_fract_z
 _atom_site_occupancy
  In  In0  1  0.00198713  0.16611021  0.11864599  1
  In  In1  1  0.01136928  0.16562003  0.63529769  1
  In  In2  1  0.00559804  0.50200609  0.12855066  1
  In  In3  1  0.00273461  0.49587577  0.63003574  1
  In  In4  1  -0.01545742  0.83730966  0.13444103  1
  In  In5  1  0.00020727  0.83781412  0.63464949  1
  In  In6  1  0.33068664  0.16600249  0.12550019  1
  In  In7  1  0.33119599  0.15212848  0.62382385  1
  In  In8  1  0.32690106  0.49695878  0.12776397  1
  In  In9  1  0.32005547  0.51588028  0.61893743  1
  In  In10  1  0.33904984  0.82337298  0.12926878  1
  In  In11  1  0.34224714  0.83930927  0.62788492  1
  In  In12  1  0.65679989  0.15383624  0.11660178  1
  In  In13  1  0.66060293  0.17588097  0.62339412  1
  In  In14  1  0.66825898  0.49903958  0.11478355  1
  In  In15  1  0.67644948  0.50390453  0.62955547  1
  In  In16  1  0.68012500  0.84726069  0.11788950  1
  In  In17  1  0.65422984  0.82520225  0.63492917  1
  In  In18  1  0.16331324  -0.00585692  0.36262816  1
  In  In19  1  0.17581405  0.00082678  0.87028897  1
  In  In20  1  0.17627013  0.34807336  0.35630122  1
  In  In21  1  0.15730093  0.34460111  0.88497493  1
  In  In22  1  0.16990340  0.66762457  0.37475666  1
  In  In23  1  0.15194904  0.66938691  0.87729140  1
  In  In24  1  0.50264568  0.00231921  0.36584218  1
  In  In25  1  0.49459117  -0.00011627  0.88127820  1
  In  In26  1  0.48082804  0.33355383  0.37207052  1
  In  In27  1  0.50075439  0.33094793  0.88728848  1
  In  In28  1  0.49857567  0.67679571  0.37273902  1
  In  In29  1  0.50432716  0.66346938  0.88351678  1
  In  In30  1  0.83963505  0.00898319  0.35985331  1
  In  In31  1  0.84434168  -0.01117545  0.88472252  1
  In  In32  1  0.84825498  0.33097617  0.36896946  1
  In  In33  1  0.84465204  0.32331352  0.88659355  1
  In  In34  1  0.83391463  0.65900291  0.37675805  1
  In  In35  1  0.83706707  0.66892274  0.88049847  1
  In  In36  1  0.00082946  0.16831177  0.36443806  1
  In  In37  1  0.00352060  0.16718386  0.88078752  1
  In  In38  1  0.04258236  0.53398469  0.33179208  1
  In  In39  1  0.00080232  0.50110807  0.87996673  1
  In  In40  1  -0.00155853  0.84136856  0.36570010  1
  In  In41  1  0.00060030  0.82248333  0.86837788  1
  In  In42  1  0.33633409  0.17229846  0.36769958  1
  In  In43  1  0.34160735  0.15640117  0.88456103  1
  In  In44  1  0.32249205  0.49629203  0.36392527  1
  In  In45  1  0.33380522  0.49852215  0.88763859  1
  In  In46  1  0.32863067  0.82985773  0.36017252  1
  In  In47  1  0.32901981  0.84716708  0.87647632  1
  In  In48  1  0.66368816  0.15208620  0.36969752  1
  In  In49  1  0.66564890  0.16484010  0.88452361  1
  In  In50  1  0.67634703  0.50574142  0.37204686  1
  In  In51  1  0.66266238  0.50877867  0.88461546  1
  In  In52  1  0.65644944  0.83834728  0.37405266  1
  In  In53  1  0.67248956  0.82612127  0.88119915  1
  In  In54  1  0.15467239  0.00834200  0.12860077  1
  In  In55  1  0.16706320  -0.00001663  0.63677580  1
  In  In56  1  0.17058689  0.33663538  0.12866382  1
  In  In57  1  0.15295493  0.33740305  0.62511452  1
  In  In58  1  0.16733489  0.65256932  0.13539725  1
  In  In59  1  0.17136769  0.64886034  0.62033114  1
  In  In60  1  0.49972967  -0.00089208  0.12397996  1
  In  In61  1  0.48629278  -0.00337934  0.62610240  1
  In  In62  1  0.48858472  0.32264427  0.11850291  1
  In  In63  1  0.51005446  0.33056808  0.62216248  1
  In  In64  1  0.49404919  0.65968464  0.11677781  1
  In  In65  1  0.50039339  0.67628441  0.63132597  1
  In  In66  1  0.83056278  -0.00339371  0.12222697  1
  In  In67  1  0.84373465  0.00803992  0.62824231  1
  In  In68  1  0.84806769  0.34338725  0.11305979  1
  In  In69  1  0.84101146  0.34524974  0.62744096  1
  In  In70  1  0.84686746  0.67836797  0.12014699  1
  In  In71  1  0.83121161  0.67102913  0.63603415  1
  In  In72  1  0.83658768  0.16899383  0.49481588  1
  In  In73  1  0.33014217  0.32774495  0.75177478  1
  In  In74  1  0.16344214  0.83096128  0.00294111  1
  In  In75  1  0.49590726  0.83070862  0.50507736  1
  In  In76  1  0.16462487  0.83033311  0.49292159  1
  In  In77  1  0.67275793  -0.00516808  0.76070762  1
  In  In78  1  0.16678021  0.16745499  0.49871920  1
  In  In79  1  0.32623463  0.67612076  0.75058766  1
  In  In80  1  0.83007147  0.83529933  0.50959377  1
  In  In81  1  0.49299095  0.49887188  0.49989895  1
  In  In82  1  0.66874672  0.67445065  0.24885230  1
  In  In83  1  0.83502903  0.49756623  0.49598938  1
  In  In84  1  0.67749891  0.33480677  0.75560996  1
  In  In85  1  0.66310194  0.32657043  0.23553470  1
  Cu  Cu86  1  0.66927654  0.66966346  0.00264232  1
  Cu  Cu87  1  0.83640743  0.49821537  0.24246865  1
  Cu  Cu88  1  0.83440645  0.16195405  0.23868929  1
  Cu  Cu89  1  0.00524557  0.33442560  0.00404732  1
  Cu  Cu90  1  -0.00135990  0.00076219  0.00290877  1
  Cu  Cu91  1  0.33549257  0.66378997  0.00684184  1
  Cu  Cu92  1  0.50176413  0.50604331  0.75980952  1
  Cu  Cu93  1  0.33557394  -0.00103059  0.49780203  1
  Cu  Cu94  1  0.66296747  -0.00099007  -0.00086914  1
  Cu  Cu95  1  0.83721620  0.83121363  0.75837034  1
  Cu  Cu96  1  0.66476628  0.00200116  0.49254127  1
  Cu  Cu97  1  0.49669271  0.15617257  0.75596318  1
  Cu  Cu98  1  0.32896354  0.33192540  0.00558446  1
  Cu  Cu99  1  0.65615322  0.32555727  0.49525007  1
  Cu  Cu100  1  0.50196150  0.83634094  0.24527936  1
  Cu  Cu101  1  0.33243756  0.00172741  0.00418061  1
  Cu  Cu102  1  0.16486273  0.16399084  0.24432480  1
  Cu  Cu103  1  0.49500106  0.16410558  0.24353827  1
  Cu  Cu104  1  0.84870341  0.16951357  0.75759713  1
  Cu  Cu105  1  0.32910138  0.33276716  0.49051384  1
  Cu  Cu106  1  0.16608134  0.83364667  0.24371401  1
  Cu  Cu107  1  0.16589986  0.16814218  0.75573333  1
  Cu  Cu108  1  -0.00087643  0.66423315  0.00255239  1
  Cu  Cu109  1  0.66950388  0.33392232  0.00320853  1
  Cu  Cu110  1  0.15867664  0.50446625  0.75343004  1
  Cu  Cu111  1  0.00175449  0.66249355  0.49573491  1
  Cu  Cu112  1  0.48796598  0.50307876  0.24488448  1
  Cu  Cu113  1  0.84151329  0.50582636  0.75702865  1
  Cu  Cu114  1  0.00495088  0.33809732  0.49780252  1
  Se  Se115  1  0.08748688  0.08454853  0.04861105  1
  Se  Se116  1  0.08049965  0.07718047  0.55997700  1
  Se  Se117  1  0.08642180  0.41876014  0.05815012  1
  Se  Se118  1  0.08318811  0.42414836  0.55273889  1
  Se  Se119  1  0.07729689  0.74354288  0.06718726  1
  Se  Se120  1  0.07530652  0.74566277  0.55867570  1
  Se  Se121  1  0.41732298  0.08571753  0.05634559  1
  Se  Se122  1  0.41848283  0.08222308  0.55112892  1
  Se  Se123  1  0.41298459  0.41878958  0.05611305  1
  Se  Se124  1  0.40395265  0.40693549  0.56185983  1
  Se  Se125  1  0.41862812  0.75462895  0.05114546  1
  Se  Se126  1  0.40238390  0.73565619  0.55736585  1
  Se  Se127  1  0.75050483  0.08072580  0.05051996  1
  Se  Se128  1  0.74392004  0.07883596  0.55716751  1
  Se  Se129  1  0.75629779  0.42105919  0.04798689  1
  Se  Se130  1  0.73832317  0.40420197  0.55494322  1
  Se  Se131  1  0.75530910  0.75276628  0.05291677  1
  Se  Se132  1  0.73760235  0.74147131  0.56241145  1
  Se  Se133  1  0.24550353  0.24768895  0.05727035  1
  Se  Se134  1  0.25579344  0.25816629  0.56163455  1
  Se  Se135  1  0.24678076  0.58329458  0.05707111  1
  Se  Se136  1  0.24264313  0.57925689  0.54010826  1
  Se  Se137  1  0.25227461  0.92035538  0.06421327  1
  Se  Se138  1  0.25291431  0.92242072  0.55760258  1
  Se  Se139  1  0.58248081  0.24974884  0.05253335  1
  Se  Se140  1  0.57502051  0.24206408  0.54804291  1
  Se  Se141  1  0.58317125  0.58243159  0.04952941  1
  Se  Se142  1  0.58399456  0.58494834  0.56271533  1
  Se  Se143  1  0.58064424  0.91544590  0.05331984  1
  Se  Se144  1  0.59221475  0.92378311  0.56006475  1
  Se  Se145  1  0.91727132  0.24583834  0.04787101  1
  Se  Se146  1  0.92649087  0.25720228  0.55892792  1
  Se  Se147  1  0.91810394  0.57952706  0.05720491  1
  Se  Se148  1  0.91775184  0.59071066  0.56002882  1
  Se  Se149  1  0.91692566  0.91336071  0.05359263  1
  Se  Se150  1  0.92865899  0.92747757  0.55699658  1
  Se  Se151  1  0.08139199  0.25637763  0.43595088  1
  Se  Se152  1  0.08734456  0.24851185  0.95083383  1
  Se  Se153  1  0.07809679  0.58134313  0.43528204  1
  Se  Se154  1  0.08552041  0.58232356  0.95088874  1
  Se  Se155  1  0.07537818  0.92737415  0.44105519  1
  Se  Se156  1  0.07763837  0.92037936  0.94027873  1
  Se  Se157  1  0.41473195  0.24521876  0.44576230  1
  Se  Se158  1  0.41452770  0.24885369  0.95202527  1
  Se  Se159  1  0.41063717  0.58547371  0.43374796  1
  Se  Se160  1  0.41998269  0.58135031  0.95179982  1
  Se  Se161  1  0.41142404  0.91629881  0.43640512  1
  Se  Se162  1  0.41344611  0.91603785  0.95132749  1
  Se  Se163  1  0.74299763  0.25648090  0.43324350  1
  Se  Se164  1  0.75029447  0.24728288  0.95039368  1
  Se  Se165  1  0.73627402  0.59465924  0.45038187  1
  Se  Se166  1  0.75422121  0.58589394  0.94981238  1
  Se  Se167  1  0.75100173  0.92455251  0.43791517  1
  Se  Se168  1  0.74992675  0.91489349  0.94893517  1
  Se  Se169  1  0.25265835  0.07497641  0.43650806  1
  Se  Se170  1  0.24681590  0.07967722  0.94822582  1
  Se  Se171  1  0.24629862  0.41631278  0.43956823  1
  Se  Se172  1  0.24718730  0.41897575  0.95357344  1
  Se  Se173  1  0.26609998  0.74580961  0.44171153  1
  Se  Se174  1  0.25634793  0.74183430  0.94279937  1
  Se  Se175  1  0.57705245  0.08256888  0.44261036  1
  Se  Se176  1  0.57742387  0.08408121  0.94886020  1
  Se  Se177  1  0.58645023  0.41314514  0.43435461  1
  Se  Se178  1  0.58452778  0.41750258  0.95031101  1
  Se  Se179  1  0.59199797  0.74216966  0.44724011  1
  Se  Se180  1  0.58309248  0.75203182  0.95088577  1
  Se  Se181  1  0.92654933  0.07757938  0.43917560  1
  Se  Se182  1  0.91589501  0.08582241  0.94890746  1
  Se  Se183  1  0.92881128  0.41808220  0.43551356  1
  Se  Se184  1  0.92032136  0.41777287  0.95045939  1
  Se  Se185  1  0.92024645  0.74866072  0.44280314  1
  Se  Se186  1  0.92299673  0.75344145  0.94757807  1
  Se  Se187  1  0.24968959  0.24706942  0.29790391  1
  Se  Se188  1  0.24542993  0.24530008  0.81891229  1
  Se  Se189  1  0.23963264  0.58230798  0.30036304  1
  Se  Se190  1  0.24726870  0.57606004  0.81242487  1
  Se  Se191  1  0.25234393  0.91945920  0.29434629  1
  Se  Se192  1  0.23976289  0.90427602  0.80175426  1
  Se  Se193  1  0.57526683  0.24605560  0.30544127  1
  Se  Se194  1  0.57765522  0.24372189  0.80925108  1
  Se  Se195  1  0.57594081  0.57583132  0.30499042  1
  Se  Se196  1  0.58727463  0.58774024  0.80913642  1
  Se  Se197  1  0.58659885  0.91863734  0.29835343  1
  Se  Se198  1  0.57744144  0.90766504  0.81409649  1
  Se  Se199  1  0.91390288  0.24544093  0.29469608  1
  Se  Se200  1  0.92708616  0.25679898  0.80942533  1
  Se  Se201  1  0.90942397  0.58637259  0.29995561  1
  Se  Se202  1  0.92379886  0.58954171  0.81045052  1
  Se  Se203  1  0.91534951  0.91781356  0.29677448  1
  Se  Se204  1  0.92040133  0.91864677  0.80610068  1
  Se  Se205  1  0.08056176  0.08113343  0.29791019  1
  Se  Se206  1  0.08325945  0.08433398  0.80913281  1
  Se  Se207  1  0.05606294  0.39330931  0.30435422  1
  Se  Se208  1  0.08111838  0.41743233  0.80746460  1
  Se  Se209  1  0.08885543  0.75577819  0.30737451  1
  Se  Se210  1  0.09504882  0.75453921  0.80037831  1
  Se  Se211  1  0.41331753  0.08190614  0.30051539  1
  Se  Se212  1  0.41139446  0.07562385  0.80704760  1
  Se  Se213  1  0.41050315  0.41402200  0.29740187  1
  Se  Se214  1  0.42192286  0.41885661  0.81204364  1
  Se  Se215  1  0.42032660  0.74862200  0.29707577  1
  Se  Se216  1  0.41904087  0.75329674  0.81521625  1
  Se  Se217  1  0.74741789  0.08575430  0.29460501  1
  Se  Se218  1  0.76236380  0.09157868  0.81432997  1
  Se  Se219  1  0.75337168  0.41698183  0.30091747  1
  Se  Se220  1  0.76146412  0.42432406  0.81806166  1
  Se  Se221  1  0.75723906  0.75916972  0.31313447  1
  Se  Se222  1  0.75218794  0.74765468  0.80828090  1
  Se  Se223  1  0.25085875  0.07957808  0.19455887  1
  Se  Se224  1  0.25167783  0.08666580  0.70167874  1
  Se  Se225  1  0.24534062  0.42111251  0.20039166  1
  Se  Se226  1  0.24408569  0.42611626  0.69372854  1
  Se  Se227  1  0.24979755  0.74619310  0.19620056  1
  Se  Se228  1  0.23804993  0.75711487  0.68323445  1
  Se  Se229  1  0.58322969  0.08114300  0.19546984  1
  Se  Se230  1  0.58454441  0.08492109  0.69457772  1
  Se  Se231  1  0.57219281  0.42535849  0.18588893  1
  Se  Se232  1  0.57828387  0.42319687  0.69726546  1
  Se  Se233  1  0.57991699  0.75569861  0.18313775  1
  Se  Se234  1  0.58100052  0.74411202  0.70631078  1
  Se  Se235  1  0.92030169  0.08025001  0.18708371  1
  Se  Se236  1  0.92425032  0.08302176  0.70087132  1
  Se  Se237  1  0.92023808  0.41262845  0.19360918  1
  Se  Se238  1  0.91925738  0.41764555  0.70213335  1
  Se  Se239  1  0.91409759  0.74487195  0.20280956  1
  Se  Se240  1  0.91958255  0.74988864  0.70068574  1
  Se  Se241  1  0.08223221  0.24721617  0.19043226  1
  Se  Se242  1  0.08640926  0.25605159  0.70254922  1
  Se  Se243  1  0.07624238  0.58281645  0.20673879  1
  Se  Se244  1  0.08142340  0.58732072  0.69535915  1
  Se  Se245  1  0.07930501  0.91745772  0.19559518  1
  Se  Se246  1  0.07765528  0.92399259  0.70103879  1
  Se  Se247  1  0.41131592  0.25197333  0.19625658  1
  Se  Se248  1  0.42635280  0.24176224  0.69207003  1
  Se  Se249  1  0.41045695  0.59020937  0.19166269  1
  Se  Se250  1  0.41741524  0.57534402  0.69477301  1
  Se  Se251  1  0.41512757  0.91801138  0.19375565  1
  Se  Se252  1  0.42441666  0.91055852  0.70031019  1
  Se  Se253  1  0.75805252  0.24402004  0.17647253  1
  Se  Se254  1  0.76451302  0.24065315  0.69266181  1
  Se  Se255  1  0.75220670  0.57931375  0.18781778  1
  Se  Se256  1  0.75173351  0.58213724  0.70293362  1
  Se  Se257  1  0.75237065  0.91731883  0.19627722  1
  Se  Se258  1  0.76015666  0.90940196  0.69146217  1
