# generated using pymatgen
data_In86Cu29Se144
_symmetry_space_group_name_H-M   'P 1'
_cell_length_a   17.57655108
_cell_length_b   17.57531527
_cell_length_c   23.43144566
_cell_angle_alpha   89.99539643
_cell_angle_beta   89.98052818
_cell_angle_gamma   90.00370988
_symmetry_Int_Tables_number   1
_chemical_formula_structural   In86Cu29Se144
_chemical_formula_sum   'In86 Cu29 Se144'
_cell_volume   7238.28771319
_cell_formula_units_Z   1
loop_
 _symmetry_equiv_pos_site_id
 _symmetry_equiv_pos_as_xyz
  1  'x, y, z'
loop_
 _atom_site_type_symbol
 _atom_site_label
 _atom_site_symmetry_multiplicity
 _atom_site_fract_x
 _atom_site_fract_y
 _atom_site_fract_z
 _atom_site_occupancy
  In  In0  1  0.00892162  0.17153072  0.11625305  1
  In  In1  1  0.00063462  0.16637097  0.62620075  1
  In  In2  1  -0.01711852  0.49061775  0.10863549  1
  In  In3  1  0.01610387  0.48167147  0.64222171  1
  In  In4  1  -0.00207679  0.83754794  0.11875184  1
  In  In5  1  0.01190206  0.83201807  0.64532268  1
  In  In6  1  0.31364429  0.16601632  0.12842633  1
  In  In7  1  0.33343118  0.18055116  0.62012321  1
  In  In8  1  0.33233126  0.50635539  0.12234620  1
  In  In9  1  0.30273635  0.47719615  0.59453758  1
  In  In10  1  0.34140822  0.82873527  0.12614620  1
  In  In11  1  0.32851956  0.82303368  0.61079327  1
  In  In12  1  0.68047741  0.16721579  0.12443461  1
  In  In13  1  0.65242742  0.15337464  0.62016633  1
  In  In14  1  0.67709301  0.49159022  0.13260389  1
  In  In15  1  0.66209378  0.50912144  0.62460440  1
  In  In16  1  0.66463596  0.83291614  0.12418860  1
  In  In17  1  0.65678995  0.84485782  0.62838082  1
  In  In18  1  0.17396924  -0.01079735  0.38631086  1
  In  In19  1  0.16873845  0.01470174  0.86582031  1
  In  In20  1  0.16440737  0.33826493  0.38497652  1
  In  In21  1  0.16304243  0.32901786  0.87043052  1
  In  In22  1  0.18264283  0.65706713  0.39414412  1
  In  In23  1  0.12597198  0.66312050  0.87241553  1
  In  In24  1  0.48991974  0.01550878  0.38285079  1
  In  In25  1  0.49507658  -0.01839843  0.87021480  1
  In  In26  1  0.50757872  0.32537890  0.38639886  1
  In  In27  1  0.49453586  0.33483605  0.86585672  1
  In  In28  1  0.50683494  0.65751601  0.38532241  1
  In  In29  1  0.50897528  0.67060229  0.87548529  1
  In  In30  1  0.84565728  0.00222916  0.37518668  1
  In  In31  1  0.83250206  0.00087609  0.87456829  1
  In  In32  1  0.82929445  0.32671860  0.36815762  1
  In  In33  1  0.84677110  0.31857676  0.88168471  1
  In  In34  1  0.82596879  0.67690895  0.36493463  1
  In  In35  1  0.85897334  0.65325597  0.90325705  1
  In  In36  1  -0.00990625  0.17078518  0.38520056  1
  In  In37  1  0.00215080  0.16095515  0.86647835  1
  In  In38  1  0.01915748  0.49839055  0.37777170  1
  In  In39  1  0.00671793  0.49568587  0.87825264  1
  In  In40  1  0.00398171  0.83631359  0.37764987  1
  In  In41  1  -0.00984420  0.82476510  0.86154425  1
  In  In42  1  0.34039769  0.16399131  0.38768013  1
  In  In43  1  0.31794189  0.16453812  0.86509989  1
  In  In44  1  0.34094314  0.49012467  0.39459568  1
  In  In45  1  0.32349626  0.47749793  0.86546802  1
  In  In46  1  0.32785422  0.83911013  0.38637558  1
  In  In47  1  0.33684767  0.84119857  0.87672096  1
  In  In48  1  0.66256384  0.17564661  0.38089660  1
  In  In49  1  0.67983443  0.17200271  0.87393549  1
  In  In50  1  0.66755107  0.49560269  0.36812983  1
  In  In51  1  0.67032710  0.51482966  0.87554778  1
  In  In52  1  0.66786110  0.82104497  0.36661791  1
  In  In53  1  0.66802569  0.83634818  0.87830130  1
  In  In54  1  0.15775463  0.00828068  0.12644529  1
  In  In55  1  0.15960939  -0.00077800  0.62647462  1
  In  In56  1  0.15621029  0.32428616  0.12121951  1
  In  In57  1  0.16366339  0.32924729  0.62427764  1
  In  In58  1  0.17228227  0.65852346  0.12014839  1
  In  In59  1  0.16123004  0.66282048  0.62298293  1
  In  In60  1  0.49901264  -0.01099121  0.12824726  1
  In  In61  1  0.50290467  0.00952718  0.62072442  1
  In  In62  1  0.50250286  0.34690589  0.13007924  1
  In  In63  1  0.47283799  0.31588611  0.59966741  1
  In  In64  1  0.49839244  0.68442266  0.12374674  1
  In  In65  1  0.47377264  0.64525997  0.59534419  1
  In  In66  1  0.83059446  0.00317938  0.11328818  1
  In  In67  1  0.82084505  -0.00061244  0.63224589  1
  In  In68  1  0.83757684  0.33293123  0.12464935  1
  In  In69  1  0.85102401  0.32733841  0.63088135  1
  In  In70  1  0.83103661  0.66163965  0.11971397  1
  In  In71  1  0.84032803  0.67861850  0.62944456  1
  In  In72  1  -0.00183307  -0.00210629  0.25105787  1
  In  In73  1  0.49965884  0.50448473  -0.00085422  1
  In  In74  1  0.50200850  0.16278307  -0.00058428  1
  In  In75  1  0.66593813  0.33084466  0.75156502  1
  In  In76  1  0.33254616  0.00567781  0.74075403  1
  In  In77  1  0.33730001  0.66395992  0.26312260  1
  In  In78  1  0.00281071  0.66119106  0.24341932  1
  In  In79  1  0.83870188  0.49836972  0.50433551  1
  In  In80  1  0.66609104  0.00449251  0.24403258  1
  In  In81  1  0.66891799  0.67977379  0.74879610  1
  In  In82  1  0.33677727  0.33057742  0.26448129  1
  In  In83  1  0.83482575  0.83737158  0.49636144  1
  In  In84  1  0.32561739  0.66344372  0.73971142  1
  In  In85  1  0.16548215  0.83513255  -0.00924776  1
  Cu  Cu86  1  0.17083302  0.82774012  0.26284360  1
  Cu  Cu87  1  0.83831131  0.49933766  0.24346475  1
  Cu  Cu88  1  0.66794821  0.67335971  0.00156410  1
  Cu  Cu89  1  0.16543788  0.49869597  0.74656934  1
  Cu  Cu90  1  0.83380471  0.82962648  0.75762160  1
  Cu  Cu91  1  0.32984539  0.00425006  0.50672831  1
  Cu  Cu92  1  0.67361265  0.34022551  0.00150778  1
  Cu  Cu93  1  -0.00141824  0.00058144  0.50692905  1
  Cu  Cu94  1  0.16099804  0.15918890  0.25085902  1
  Cu  Cu95  1  0.51335657  0.50685548  0.25411345  1
  Cu  Cu96  1  0.83333423  0.16052245  0.75072636  1
  Cu  Cu97  1  0.33177665  -0.00079395  -0.00459767  1
  Cu  Cu98  1  0.67436371  0.33229183  0.49776054  1
  Cu  Cu99  1  0.66868315  -0.00177148  -0.00112349  1
  Cu  Cu100  1  0.32844647  0.66224012  -0.00451968  1
  Cu  Cu101  1  0.66485496  0.67040929  0.49554327  1
  Cu  Cu102  1  0.49893533  0.83963686  0.25015168  1
  Cu  Cu103  1  0.32054410  0.32597253  -0.00528942  1
  Cu  Cu104  1  0.49481100  0.49203639  0.74086370  1
  Cu  Cu105  1  0.00372393  0.33113109  0.50575202  1
  Cu  Cu106  1  0.50239345  0.82953281  0.74309584  1
  Cu  Cu107  1  0.16763978  0.48590733  0.25244444  1
  Cu  Cu108  1  0.83985064  0.50410992  0.76181943  1
  Cu  Cu109  1  0.66501180  0.00527981  0.50125132  1
  Cu  Cu110  1  0.49647403  0.17245037  0.25995692  1
  Cu  Cu111  1  0.00517626  0.66338438  0.50829638  1
  Cu  Cu112  1  -0.00097511  0.00725263  -0.00758628  1
  Cu  Cu113  1  0.00036499  0.33135464  -0.00477911  1
  Cu  Cu114  1  0.83641661  0.17301612  0.24889022  1
  Se  Se115  1  0.08699977  0.08311971  0.04821409  1
  Se  Se116  1  0.08389405  0.08614523  0.55534534  1
  Se  Se117  1  0.08394623  0.41349523  0.05139998  1
  Se  Se118  1  0.08274267  0.42150206  0.55579359  1
  Se  Se119  1  0.08227737  0.74430007  0.05621587  1
  Se  Se120  1  0.07624016  0.75636331  0.56230431  1
  Se  Se121  1  0.40747718  0.07821672  0.06136087  1
  Se  Se122  1  0.41544231  0.08940301  0.55486865  1
  Se  Se123  1  0.40599575  0.40584991  0.05325941  1
  Se  Se124  1  0.43451002  0.44233094  0.55337044  1
  Se  Se125  1  0.40993919  0.74761252  0.04865974  1
  Se  Se126  1  0.43605746  0.76994746  0.54758443  1
  Se  Se127  1  0.74943559  0.08956502  0.04659762  1
  Se  Se128  1  0.75216321  0.08236521  0.55547895  1
  Se  Se129  1  0.75646762  0.42137638  0.05589818  1
  Se  Se130  1  0.74876010  0.40865688  0.56506609  1
  Se  Se131  1  0.75170467  0.75543037  0.05547032  1
  Se  Se132  1  0.74365796  0.74767310  0.55884107  1
  Se  Se133  1  0.24181617  0.24319043  0.05203477  1
  Se  Se134  1  0.25128211  0.26070637  0.55079899  1
  Se  Se135  1  0.24917751  0.57597948  0.04789597  1
  Se  Se136  1  0.26473939  0.60881724  0.55611613  1
  Se  Se137  1  0.25240680  0.92007121  0.05991918  1
  Se  Se138  1  0.24400160  0.91998065  0.55600195  1
  Se  Se139  1  0.58718794  0.26136613  0.05898895  1
  Se  Se140  1  0.58799539  0.24949583  0.54998312  1
  Se  Se141  1  0.58814375  0.59014252  0.06314021  1
  Se  Se142  1  0.58775777  0.57805122  0.54481965  1
  Se  Se143  1  0.58389767  0.91913943  0.05536887  1
  Se  Se144  1  0.58176781  0.91990351  0.55194934  1
  Se  Se145  1  0.91680307  0.25014704  0.05287621  1
  Se  Se146  1  0.91603737  0.24697408  0.55282679  1
  Se  Se147  1  0.92374054  0.59707010  0.04909857  1
  Se  Se148  1  0.92579667  0.58406156  0.56935325  1
  Se  Se149  1  0.92122021  0.92263249  0.04969754  1
  Se  Se150  1  0.91964393  0.91640067  0.56604242  1
  Se  Se151  1  0.08368461  0.24693210  0.44947035  1
  Se  Se152  1  0.07969947  0.24669170  0.93920686  1
  Se  Se153  1  0.08744617  0.57764668  0.45549546  1
  Se  Se154  1  0.08560574  0.57534041  0.95214192  1
  Se  Se155  1  0.07837982  0.91445811  0.45168506  1
  Se  Se156  1  0.07882680  0.92696016  0.93160532  1
  Se  Se157  1  0.40665819  0.26454567  0.45087294  1
  Se  Se158  1  0.41122246  0.25237862  0.93935735  1
  Se  Se159  1  0.39782050  0.60535823  0.44692769  1
  Se  Se160  1  0.40800966  0.58326591  0.93181365  1
  Se  Se161  1  0.41505530  0.92475072  0.44987349  1
  Se  Se162  1  0.41969095  0.91295839  0.95118127  1
  Se  Se163  1  0.75885341  0.24848549  0.44619709  1
  Se  Se164  1  0.75129489  0.24973421  0.95036377  1
  Se  Se165  1  0.75248003  0.59043358  0.44097945  1
  Se  Se166  1  0.74803982  0.58118902  0.95398378  1
  Se  Se167  1  0.74058045  0.92520109  0.43628569  1
  Se  Se168  1  0.75407678  0.91575096  0.94651171  1
  Se  Se169  1  0.24623714  0.08540248  0.45081583  1
  Se  Se170  1  0.25032714  0.08389668  0.94332232  1
  Se  Se171  1  0.24768040  0.41442341  0.45631066  1
  Se  Se172  1  0.24182241  0.41488131  0.94386272  1
  Se  Se173  1  0.23415592  0.76789088  0.45257083  1
  Se  Se174  1  0.25113948  0.73959253  0.93091539  1
  Se  Se175  1  0.58160515  0.09160729  0.44879951  1
  Se  Se176  1  0.58694903  0.07353481  0.93579778  1
  Se  Se177  1  0.59354256  0.41903808  0.44473859  1
  Se  Se178  1  0.58859447  0.41126445  0.93841679  1
  Se  Se179  1  0.58510365  0.75798722  0.44428095  1
  Se  Se180  1  0.58216810  0.75325665  0.94752122  1
  Se  Se181  1  0.91234696  0.08071171  0.45303580  1
  Se  Se182  1  0.91412030  0.09001355  0.94031842  1
  Se  Se183  1  0.92480059  0.41000404  0.44072043  1
  Se  Se184  1  0.91482537  0.41737147  0.94601075  1
  Se  Se185  1  0.92407122  0.73545991  0.44257021  1
  Se  Se186  1  0.92697079  0.76608546  0.94996145  1
  Se  Se187  1  0.24006111  0.23852098  0.31437986  1
  Se  Se188  1  0.26060956  0.26615403  0.80081631  1
  Se  Se189  1  0.24698590  0.56525765  0.31439843  1
  Se  Se190  1  0.24052079  0.58110349  0.81011681  1
  Se  Se191  1  0.25277230  0.91723267  0.30895356  1
  Se  Se192  1  0.24873356  0.91233141  0.80456749  1
  Se  Se193  1  0.58461994  0.25510337  0.30686203  1
  Se  Se194  1  0.57471678  0.23557694  0.80676719  1
  Se  Se195  1  0.59117178  0.59451519  0.30689944  1
  Se  Se196  1  0.57392230  0.57578945  0.79962133  1
  Se  Se197  1  0.57662154  0.92307649  0.31107834  1
  Se  Se198  1  0.58474443  0.90693926  0.80138117  1
  Se  Se199  1  0.92387785  0.24873450  0.30449908  1
  Se  Se200  1  0.91591290  0.24859269  0.80035927  1
  Se  Se201  1  0.91520771  0.57392466  0.31155300  1
  Se  Se202  1  0.92081517  0.58804776  0.81504779  1
  Se  Se203  1  0.90673707  0.90081328  0.30500800  1
  Se  Se204  1  0.91520566  0.92359555  0.80176861  1
  Se  Se205  1  0.08457417  0.08182741  0.31669071  1
  Se  Se206  1  0.08573904  0.08593570  0.79320976  1
  Se  Se207  1  0.08288616  0.40579289  0.30561787  1
  Se  Se208  1  0.08157357  0.41670877  0.80223483  1
  Se  Se209  1  0.09098320  0.74116685  0.31567402  1
  Se  Se210  1  0.09696516  0.76537802  0.79969219  1
  Se  Se211  1  0.40990790  0.08802216  0.30681600  1
  Se  Se212  1  0.42394026  0.08528196  0.80808599  1
  Se  Se213  1  0.43009125  0.42812393  0.31415784  1
  Se  Se214  1  0.41170648  0.40861774  0.79310300  1
  Se  Se215  1  0.42539311  0.76041533  0.31638082  1
  Se  Se216  1  0.42070649  0.75152052  0.80416065  1
  Se  Se217  1  0.75697841  0.09022845  0.30849149  1
  Se  Se218  1  0.74649675  0.08070176  0.80359282  1
  Se  Se219  1  0.75530002  0.41761190  0.30075206  1
  Se  Se220  1  0.75494912  0.42060056  0.81512731  1
  Se  Se221  1  0.75113925  0.75471151  0.29224654  1
  Se  Se222  1  0.76281272  0.74347754  0.82083002  1
  Se  Se223  1  0.24620411  0.07562762  0.20028170  1
  Se  Se224  1  0.24137175  0.09942215  0.68851710  1
  Se  Se225  1  0.25376621  0.41320271  0.19115957  1
  Se  Se226  1  0.24895077  0.42148176  0.68798286  1
  Se  Se227  1  0.24568019  0.74805857  0.19642096  1
  Se  Se228  1  0.23883110  0.76406837  0.69027596  1
  Se  Se229  1  0.57173553  0.09828508  0.18948130  1
  Se  Se230  1  0.59064530  0.06917546  0.69727766  1
  Se  Se231  1  0.58886477  0.41541721  0.20222245  1
  Se  Se232  1  0.57977190  0.41408280  0.68471968  1
  Se  Se233  1  0.58143607  0.75555137  0.19759583  1
  Se  Se234  1  0.56902992  0.74089015  0.67981728  1
  Se  Se235  1  0.91203276  0.08870103  0.18815363  1
  Se  Se236  1  0.91475679  0.08058946  0.69303638  1
  Se  Se237  1  0.92378916  0.41598793  0.19314668  1
  Se  Se238  1  0.91439797  0.41580354  0.70575990  1
  Se  Se239  1  0.91381387  0.75625786  0.18944465  1
  Se  Se240  1  0.91967719  0.74663936  0.70606484  1
  Se  Se241  1  0.08175654  0.24454611  0.19654667  1
  Se  Se242  1  0.06187102  0.26980569  0.69074026  1
  Se  Se243  1  0.09409248  0.56714206  0.18868271  1
  Se  Se244  1  0.08226386  0.58976524  0.70000517  1
  Se  Se245  1  0.09261250  0.90264856  0.19605489  1
  Se  Se246  1  0.07235769  0.94021969  0.70490718  1
  Se  Se247  1  0.41888565  0.24608420  0.19043885  1
  Se  Se248  1  0.42825580  0.24678345  0.68982304  1
  Se  Se249  1  0.42624414  0.57939420  0.19349166  1
  Se  Se250  1  0.41500615  0.57269082  0.68284350  1
  Se  Se251  1  0.40950538  0.91765592  0.19889439  1
  Se  Se252  1  0.41827248  0.90718371  0.68433125  1
  Se  Se253  1  0.75019472  0.25426325  0.19603058  1
  Se  Se254  1  0.75281762  0.24048439  0.68916225  1
  Se  Se255  1  0.75337727  0.58656531  0.19609826  1
  Se  Se256  1  0.76055453  0.57791445  0.69594292  1
  Se  Se257  1  0.76068961  0.91573378  0.18967637  1
  Se  Se258  1  0.74773455  0.90721622  0.70165807  1
