# generated using pymatgen
data_In86Cu29Se144
_symmetry_space_group_name_H-M   'P 1'
_cell_length_a   17.58492445
_cell_length_b   17.58207739
_cell_length_c   23.43842204
_cell_angle_alpha   89.98723239
_cell_angle_beta   90.02457996
_cell_angle_gamma   89.98814911
_symmetry_Int_Tables_number   1
_chemical_formula_structural   In86Cu29Se144
_chemical_formula_sum   'In86 Cu29 Se144'
_cell_volume   7246.67866528
_cell_formula_units_Z   1
loop_
 _symmetry_equiv_pos_site_id
 _symmetry_equiv_pos_as_xyz
  1  'x, y, z'
loop_
 _atom_site_type_symbol
 _atom_site_label
 _atom_site_symmetry_multiplicity
 _atom_site_fract_x
 _atom_site_fract_y
 _atom_site_fract_z
 _atom_site_occupancy
  In  In0  1  -0.01298459  0.16624022  0.13202736  1
  In  In1  1  0.00323998  0.16979042  0.62356977  1
  In  In2  1  0.00522663  0.51358259  0.12081636  1
  In  In3  1  0.00178539  0.50934553  0.63688872  1
  In  In4  1  0.01004468  0.82598014  0.13056544  1
  In  In5  1  0.00903420  0.82765364  0.63223394  1
  In  In6  1  0.34141507  0.17308388  0.13146042  1
  In  In7  1  0.33554085  0.17950477  0.61032648  1
  In  In8  1  0.33729152  0.50005830  0.13726831  1
  In  In9  1  0.33589281  0.50074551  0.62236138  1
  In  In10  1  0.31741965  0.82305372  0.11218731  1
  In  In11  1  0.33317554  0.82559954  0.61740975  1
  In  In12  1  0.67403004  0.17614493  0.13241225  1
  In  In13  1  0.66582498  0.16977024  0.61406573  1
  In  In14  1  0.68057507  0.49222850  0.13115139  1
  In  In15  1  0.67388237  0.50865519  0.62161256  1
  In  In16  1  0.64887052  0.83305272  0.12738476  1
  In  In17  1  0.65305191  0.82216870  0.62488148  1
  In  In18  1  0.16541826  -0.00339549  0.37960650  1
  In  In19  1  0.15990742  0.00055567  0.87433782  1
  In  In20  1  0.16996972  0.32044328  0.38166635  1
  In  In21  1  0.16610773  0.33338141  0.86198494  1
  In  In22  1  0.17537019  0.67180540  0.37503759  1
  In  In23  1  0.17870826  0.67255538  0.86056618  1
  In  In24  1  0.49540069  0.00351036  0.38330894  1
  In  In25  1  0.48522163  -0.01680819  0.86938557  1
  In  In26  1  0.49789669  0.33583495  0.37641873  1
  In  In27  1  0.49587691  0.34633759  0.87009798  1
  In  In28  1  0.49825711  0.65475937  0.38500355  1
  In  In29  1  0.49698785  0.67092395  0.86226361  1
  In  In30  1  0.84668817  0.00019816  0.37298366  1
  In  In31  1  0.84096625  -0.00937954  0.87321154  1
  In  In32  1  0.82348193  0.34451657  0.38387254  1
  In  In33  1  0.85114538  0.33481279  0.88168579  1
  In  In34  1  0.82560367  0.65568974  0.36890612  1
  In  In35  1  0.82413552  0.65642333  0.87189627  1
  In  In36  1  0.01006148  0.15557815  0.38606366  1
  In  In37  1  0.00782948  0.17427499  0.86539699  1
  In  In38  1  -0.01314786  0.50063639  0.37898635  1
  In  In39  1  -0.00462419  0.49265686  0.86555979  1
  In  In40  1  0.01142800  0.83459272  0.37032062  1
  In  In41  1  0.00892120  0.84248047  0.86895648  1
  In  In42  1  0.32698515  0.17839683  0.38720931  1
  In  In43  1  0.32560523  0.16565700  0.86813273  1
  In  In44  1  0.34420170  0.51015247  0.37648170  1
  In  In45  1  0.32450442  0.50653110  0.85211603  1
  In  In46  1  0.34666840  0.81090164  0.39812221  1
  In  In47  1  0.34407528  0.81794353  0.88811397  1
  In  In48  1  0.65194076  0.18281251  0.38435262  1
  In  In49  1  0.66853443  0.17051289  0.87356548  1
  In  In50  1  0.66836932  0.50045272  0.37583034  1
  In  In51  1  0.66202114  0.51068055  0.87857329  1
  In  In52  1  0.66085063  0.81666445  0.37153013  1
  In  In53  1  0.65991678  0.81493400  0.87266681  1
  In  In54  1  0.16819245  -0.01953357  0.12499597  1
  In  In55  1  0.15965104  -0.00801445  0.61827944  1
  In  In56  1  0.17078264  0.34676634  0.12854083  1
  In  In57  1  0.17960714  0.32729840  0.62866299  1
  In  In58  1  0.16259183  0.66930015  0.13020937  1
  In  In59  1  0.15969321  0.67033791  0.62903418  1
  In  In60  1  0.50046955  -0.00812268  0.12353315  1
  In  In61  1  0.49245986  -0.00828877  0.61478649  1
  In  In62  1  0.50374544  0.33589274  0.13540659  1
  In  In63  1  0.47992870  0.33845533  0.60621422  1
  In  In64  1  0.49246737  0.67366872  0.13367988  1
  In  In65  1  0.50213076  0.66881001  0.62361249  1
  In  In66  1  0.83764473  0.01310619  0.13058654  1
  In  In67  1  0.83571125  0.01365516  0.62376830  1
  In  In68  1  0.82361651  0.33540053  0.12372127  1
  In  In69  1  0.84261474  0.34492039  0.61927980  1
  In  In70  1  0.84017739  0.65835834  0.12842901  1
  In  In71  1  0.83794208  0.66007151  0.63192816  1
  In  In72  1  0.83159186  0.83131251  -0.00014046  1
  In  In73  1  0.32875089  -0.00599929  0.73850513  1
  In  In74  1  0.66517562  0.33873100  0.74700667  1
  In  In75  1  0.17092419  0.49688214  0.50779803  1
  In  In76  1  0.32825460  -0.00508484  0.25193126  1
  In  In77  1  0.16501825  0.16369920  -0.00856685  1
  In  In78  1  0.66946292  0.00025723  0.24684741  1
  In  In79  1  0.49988981  0.16319214  0.01000653  1
  In  In80  1  0.67113323  -0.00625692  0.75039505  1
  In  In81  1  0.83300318  0.17072774  0.00487559  1
  In  In82  1  0.16265233  0.50156634  -0.00899323  1
  In  In83  1  0.00030229  0.33568957  0.25603759  1
  In  In84  1  0.50089171  0.50300635  -0.00218444  1
  In  In85  1  0.83412649  0.83231688  0.49029104  1
  Cu  Cu86  1  -0.00257053  0.00197248  0.50113923  1
  Cu  Cu87  1  0.83244256  0.50130095  0.74991126  1
  Cu  Cu88  1  0.33365005  0.33264735  -0.00302871  1
  Cu  Cu89  1  0.00336647  0.67259240  0.00019962  1
  Cu  Cu90  1  -0.00183975  0.66290632  0.50737224  1
  Cu  Cu91  1  0.49736289  0.17637772  0.25686742  1
  Cu  Cu92  1  0.83459844  0.16940361  0.25722502  1
  Cu  Cu93  1  -0.00396713  0.33130102  0.50179364  1
  Cu  Cu94  1  0.16536545  0.16330009  0.26032346  1
  Cu  Cu95  1  0.17047099  0.82827082  0.25240848  1
  Cu  Cu96  1  0.65344422  -0.00386067  -0.00157040  1
  Cu  Cu97  1  0.49262424  0.82394694  0.25602154  1
  Cu  Cu98  1  0.16710364  0.17028163  0.74565442  1
  Cu  Cu99  1  0.32959127  0.00284145  0.50077045  1
  Cu  Cu100  1  0.66383294  0.33800976  0.50025087  1
  Cu  Cu101  1  0.65995586  0.66597517  -0.00068678  1
  Cu  Cu102  1  0.84074244  0.82746137  0.25274554  1
  Cu  Cu103  1  0.84405773  0.17168542  0.74488394  1
  Cu  Cu104  1  0.16691173  0.83782596  0.74705432  1
  Cu  Cu105  1  0.17345646  0.50210589  0.25413877  1
  Cu  Cu106  1  0.66793722  0.00027030  0.50145369  1
  Cu  Cu107  1  0.00356748  -0.00112260  -0.00083144  1
  Cu  Cu108  1  0.66568614  0.66389664  0.49687128  1
  Cu  Cu109  1  0.50482864  0.50528133  0.25654620  1
  Cu  Cu110  1  0.83331772  0.50377373  0.25200824  1
  Cu  Cu111  1  0.49617123  0.50053374  0.74315600  1
  Cu  Cu112  1  0.33158917  0.66094454  -0.00227361  1
  Cu  Cu113  1  0.83995159  0.83061779  0.74954427  1
  Cu  Cu114  1  0.49544363  0.16891340  0.73341925  1
  Se  Se115  1  0.07653982  0.08240488  0.06230124  1
  Se  Se116  1  0.08317433  0.08482714  0.55311881  1
  Se  Se117  1  0.07769014  0.41056245  0.05561164  1
  Se  Se118  1  0.07431734  0.41126499  0.56487847  1
  Se  Se119  1  0.08841433  0.75106539  0.05489882  1
  Se  Se120  1  0.08136763  0.75053950  0.55503424  1
  Se  Se121  1  0.40150904  0.07257280  0.06078096  1
  Se  Se122  1  0.41787497  0.08525682  0.55041178  1
  Se  Se123  1  0.41130700  0.41113996  0.05956192  1
  Se  Se124  1  0.42302908  0.44442426  0.54161279  1
  Se  Se125  1  0.41485689  0.74184361  0.05396520  1
  Se  Se126  1  0.43205986  0.75967149  0.55274809  1
  Se  Se127  1  0.73529298  0.07438803  0.05820261  1
  Se  Se128  1  0.75280244  0.08510474  0.55003259  1
  Se  Se129  1  0.75348267  0.42100236  0.05259509  1
  Se  Se130  1  0.74997822  0.41932222  0.55351944  1
  Se  Se131  1  0.74019570  0.74509469  0.06147363  1
  Se  Se132  1  0.75036050  0.74366594  0.55625080  1
  Se  Se133  1  0.25342388  0.25495425  0.05786157  1
  Se  Se134  1  0.24763231  0.25982746  0.54559739  1
  Se  Se135  1  0.25469479  0.58000467  0.05995965  1
  Se  Se136  1  0.25524519  0.59931628  0.55807572  1
  Se  Se137  1  0.24824459  0.91884306  0.04757561  1
  Se  Se138  1  0.25016073  0.91517568  0.55312560  1
  Se  Se139  1  0.59235261  0.26016692  0.05998255  1
  Se  Se140  1  0.57862309  0.25433525  0.55128186  1
  Se  Se141  1  0.58510200  0.58726821  0.06543651  1
  Se  Se142  1  0.58427161  0.58326910  0.55375923  1
  Se  Se143  1  0.57443706  0.90915321  0.05033776  1
  Se  Se144  1  0.58772686  0.91357144  0.55298002  1
  Se  Se145  1  0.92813476  0.26189273  0.05835798  1
  Se  Se146  1  0.91261582  0.24661592  0.55487367  1
  Se  Se147  1  0.91857888  0.58801158  0.05018316  1
  Se  Se148  1  0.91771002  0.57887283  0.56041906  1
  Se  Se149  1  0.91953675  0.92401023  0.06113802  1
  Se  Se150  1  0.91894984  0.91621793  0.55942899  1
  Se  Se151  1  0.08342640  0.24870609  0.45257423  1
  Se  Se152  1  0.07756393  0.26380426  0.94086049  1
  Se  Se153  1  0.07925252  0.58452526  0.44411584  1
  Se  Se154  1  0.07814523  0.59569655  0.93258759  1
  Se  Se155  1  0.07847355  0.91575933  0.44805218  1
  Se  Se156  1  0.08585742  0.91527736  0.94697670  1
  Se  Se157  1  0.43237001  0.24091576  0.44631858  1
  Se  Se158  1  0.41474224  0.25110022  0.93938754  1
  Se  Se159  1  0.42370923  0.57060492  0.45835439  1
  Se  Se160  1  0.40469065  0.58071198  0.93373250  1
  Se  Se161  1  0.41770332  0.91832058  0.45228621  1
  Se  Se162  1  0.41747221  0.91484890  0.94990820  1
  Se  Se163  1  0.74949985  0.25139734  0.45030253  1
  Se  Se164  1  0.74348544  0.25891165  0.94302460  1
  Se  Se165  1  0.75371837  0.58090828  0.44720182  1
  Se  Se166  1  0.74799617  0.58406061  0.95040065  1
  Se  Se167  1  0.73959828  0.92275187  0.43327086  1
  Se  Se168  1  0.73831698  0.92148461  0.93878863  1
  Se  Se169  1  0.24510397  0.08412514  0.44683524  1
  Se  Se170  1  0.26292995  0.07209911  0.94149046  1
  Se  Se171  1  0.25739743  0.41396136  0.44052694  1
  Se  Se172  1  0.25979229  0.41315712  0.93377339  1
  Se  Se173  1  0.23008658  0.76050552  0.45247151  1
  Se  Se174  1  0.24294082  0.74189033  0.94641220  1
  Se  Se175  1  0.58274142  0.08431365  0.44880180  1
  Se  Se176  1  0.58100679  0.07841833  0.93512219  1
  Se  Se177  1  0.58312924  0.41989018  0.44403618  1
  Se  Se178  1  0.59095721  0.40602873  0.94384748  1
  Se  Se179  1  0.58052913  0.74973456  0.44814260  1
  Se  Se180  1  0.57366092  0.74160834  0.94331383  1
  Se  Se181  1  0.91090237  0.08390404  0.45009222  1
  Se  Se182  1  0.92384746  0.08179120  0.94052284  1
  Se  Se183  1  0.91385807  0.41950523  0.45266032  1
  Se  Se184  1  0.91675074  0.43093438  0.94696104  1
  Se  Se185  1  0.92522319  0.73788494  0.43687191  1
  Se  Se186  1  0.92161382  0.74815703  0.93631178  1
  Se  Se187  1  0.25200875  0.24860739  0.30622031  1
  Se  Se188  1  0.25506388  0.25112115  0.79693755  1
  Se  Se189  1  0.25578461  0.58640809  0.30732643  1
  Se  Se190  1  0.22431619  0.56977588  0.78731665  1
  Se  Se191  1  0.25192124  0.90151751  0.31718223  1
  Se  Se192  1  0.24884145  0.91227764  0.81046903  1
  Se  Se193  1  0.58651369  0.25883352  0.30365630  1
  Se  Se194  1  0.57227960  0.24196638  0.80305294  1
  Se  Se195  1  0.58712785  0.58936620  0.30981639  1
  Se  Se196  1  0.58003012  0.57751541  0.80211606  1
  Se  Se197  1  0.57382523  0.91479614  0.30807223  1
  Se  Se198  1  0.57534982  0.90267621  0.80226414  1
  Se  Se199  1  0.91522548  0.24699102  0.31980156  1
  Se  Se200  1  0.91883310  0.25737736  0.80221701  1
  Se  Se201  1  0.92198003  0.58452735  0.30194267  1
  Se  Se202  1  0.91577342  0.58661494  0.80245002  1
  Se  Se203  1  0.92119966  0.91442248  0.30343519  1
  Se  Se204  1  0.92111365  0.92028562  0.79872282  1
  Se  Se205  1  0.08190405  0.07750008  0.30845849  1
  Se  Se206  1  0.08753279  0.08481139  0.80101922  1
  Se  Se207  1  0.09255849  0.42401225  0.31617035  1
  Se  Se208  1  0.08303850  0.41716142  0.79827678  1
  Se  Se209  1  0.08536657  0.74290696  0.30295526  1
  Se  Se210  1  0.08306608  0.75370787  0.80011780  1
  Se  Se211  1  0.41684802  0.08927400  0.30980534  1
  Se  Se212  1  0.42262325  0.08719063  0.79934694  1
  Se  Se213  1  0.41852566  0.42097905  0.30634098  1
  Se  Se214  1  0.41372998  0.41469131  0.79551218  1
  Se  Se215  1  0.41561083  0.74226317  0.31551057  1
  Se  Se216  1  0.39440174  0.74020111  0.80361065  1
  Se  Se217  1  0.74848391  0.09003269  0.31421691  1
  Se  Se218  1  0.76273610  0.09267249  0.80643176  1
  Se  Se219  1  0.75168179  0.41792458  0.30453527  1
  Se  Se220  1  0.75382165  0.42168294  0.81276615  1
  Se  Se221  1  0.75087745  0.74802258  0.30148432  1
  Se  Se222  1  0.75348670  0.75079678  0.80322789  1
  Se  Se223  1  0.23991229  0.08833626  0.19053482  1
  Se  Se224  1  0.24544135  0.09222586  0.68182586  1
  Se  Se225  1  0.25407675  0.41374648  0.20340175  1
  Se  Se226  1  0.24933737  0.42482904  0.69163241  1
  Se  Se227  1  0.25456678  0.74850685  0.19520367  1
  Se  Se228  1  0.24902471  0.75579297  0.69239105  1
  Se  Se229  1  0.57121563  0.09349777  0.19244026  1
  Se  Se230  1  0.58204162  0.08335567  0.68589775  1
  Se  Se231  1  0.58627887  0.42221592  0.19960603  1
  Se  Se232  1  0.57428492  0.41926955  0.68218893  1
  Se  Se233  1  0.58388738  0.74819180  0.20299841  1
  Se  Se234  1  0.59094979  0.73658608  0.69882233  1
  Se  Se235  1  0.91795558  0.08286590  0.20725678  1
  Se  Se236  1  0.92394204  0.08294861  0.69505945  1
  Se  Se237  1  0.91567141  0.42408242  0.19045922  1
  Se  Se238  1  0.91606105  0.41731424  0.69813840  1
  Se  Se239  1  0.92152644  0.74533380  0.19497311  1
  Se  Se240  1  0.92239072  0.74497000  0.69762645  1
  Se  Se241  1  0.09077345  0.24503863  0.19408938  1
  Se  Se242  1  0.08286335  0.25418720  0.69375226  1
  Se  Se243  1  0.08674663  0.57942595  0.19832254  1
  Se  Se244  1  0.09769697  0.57861046  0.70336338  1
  Se  Se245  1  0.08568562  0.91413485  0.20111521  1
  Se  Se246  1  0.08205627  0.92369933  0.69780966  1
  Se  Se247  1  0.41358299  0.25850956  0.20220673  1
  Se  Se248  1  0.41373957  0.25681325  0.68564460  1
  Se  Se249  1  0.41687954  0.58637246  0.20323509  1
  Se  Se250  1  0.41459750  0.58718843  0.69201054  1
  Se  Se251  1  0.41809305  0.90454015  0.19186802  1
  Se  Se252  1  0.42784141  0.90319852  0.69118976  1
  Se  Se253  1  0.75563906  0.25488491  0.20236716  1
  Se  Se254  1  0.75465617  0.24611716  0.68868602  1
  Se  Se255  1  0.74952037  0.58781514  0.19868078  1
  Se  Se256  1  0.74644318  0.58480194  0.69979840  1
  Se  Se257  1  0.76031417  0.90583362  0.18860052  1
  Se  Se258  1  0.75967290  0.90756873  0.68562512  1
