# generated using pymatgen
data_In86Cu29Se144
_symmetry_space_group_name_H-M   'P 1'
_cell_length_a   17.58033707
_cell_length_b   17.57600017
_cell_length_c   23.43797128
_cell_angle_alpha   89.98595971
_cell_angle_beta   89.98770879
_cell_angle_gamma   90.02818983
_symmetry_Int_Tables_number   1
_chemical_formula_structural   In86Cu29Se144
_chemical_formula_sum   'In86 Cu29 Se144'
_cell_volume   7242.14453185
_cell_formula_units_Z   1
loop_
 _symmetry_equiv_pos_site_id
 _symmetry_equiv_pos_as_xyz
  1  'x, y, z'
loop_
 _atom_site_type_symbol
 _atom_site_label
 _atom_site_symmetry_multiplicity
 _atom_site_fract_x
 _atom_site_fract_y
 _atom_site_fract_z
 _atom_site_occupancy
  In  In0  1  -0.00087585  0.16345505  0.12421776  1
  In  In1  1  -0.00761482  0.15859526  0.61711779  1
  In  In2  1  0.00543038  0.49339522  0.12979695  1
  In  In3  1  0.00972586  0.50606845  0.63194410  1
  In  In4  1  -0.00038211  0.83222670  0.12227772  1
  In  In5  1  0.00933104  0.83360088  0.63375432  1
  In  In6  1  0.31741919  0.17708562  0.13508541  1
  In  In7  1  0.32075454  0.17048308  0.61373626  1
  In  In8  1  0.32180509  0.47516673  0.10859581  1
  In  In9  1  0.34123863  0.50320450  0.62817280  1
  In  In10  1  0.32607224  0.84639466  0.12864661  1
  In  In11  1  0.32256949  0.83323573  0.61891103  1
  In  In12  1  0.67816500  0.15272254  0.13392784  1
  In  In13  1  0.66410917  0.15311826  0.62042044  1
  In  In14  1  0.65820053  0.50982144  0.12562795  1
  In  In15  1  0.65994500  0.50281336  0.62696029  1
  In  In16  1  0.67443929  0.82020844  0.13255347  1
  In  In17  1  0.67572080  0.84430077  0.62279228  1
  In  In18  1  0.16686518  0.00288757  0.37408759  1
  In  In19  1  0.15390311  0.00992721  0.88113398  1
  In  In20  1  0.15810784  0.32520431  0.36510745  1
  In  In21  1  0.16621986  0.33900642  0.89073531  1
  In  In22  1  0.16910213  0.68029624  0.37118945  1
  In  In23  1  0.16390074  0.67218472  0.88301436  1
  In  In24  1  0.48843880  -0.01034020  0.36719142  1
  In  In25  1  0.50896176  -0.01652665  0.86788696  1
  In  In26  1  0.49574413  0.32630616  0.36159618  1
  In  In27  1  0.50155761  0.33903188  0.88219676  1
  In  In28  1  0.50516307  0.67190970  0.37076648  1
  In  In29  1  0.48719723  0.67697563  0.87527900  1
  In  In30  1  0.84747542  0.00844550  0.36593247  1
  In  In31  1  0.83509660  -0.00181248  0.87879950  1
  In  In32  1  0.82685301  0.32768121  0.36657003  1
  In  In33  1  0.82744976  0.33156743  0.88315433  1
  In  In34  1  0.83277320  0.66832256  0.36316045  1
  In  In35  1  0.85952435  0.66620972  0.87932675  1
  In  In36  1  0.00168843  0.16322693  0.37285868  1
  In  In37  1  0.00448536  0.16009640  0.88277952  1
  In  In38  1  0.00137870  0.50077121  0.36009309  1
  In  In39  1  0.00252505  0.53115173  0.88274703  1
  In  In40  1  0.00807633  0.84265712  0.36510140  1
  In  In41  1  -0.00097581  0.83423058  0.88282604  1
  In  In42  1  0.32126735  0.15925054  0.36983464  1
  In  In43  1  0.32484046  0.16422460  0.87901136  1
  In  In44  1  0.34003115  0.49608285  0.36805939  1
  In  In45  1  0.31162896  0.51763021  0.89530977  1
  In  In46  1  0.31381696  0.85992842  0.39709321  1
  In  In47  1  0.33900968  0.81975000  0.87327069  1
  In  In48  1  0.67781750  0.17262306  0.36520202  1
  In  In49  1  0.68005082  0.15879923  0.88247256  1
  In  In50  1  0.66390442  0.50154249  0.36071447  1
  In  In51  1  0.67236682  0.49354638  0.88293583  1
  In  In52  1  0.65875237  0.82739503  0.36743618  1
  In  In53  1  0.66281555  0.84762105  0.87572834  1
  In  In54  1  0.16182686  -0.00195238  0.12464194  1
  In  In55  1  0.16212210  -0.00919652  0.61818060  1
  In  In56  1  0.16668808  0.32369820  0.12448297  1
  In  In57  1  0.17143313  0.32384691  0.62165758  1
  In  In58  1  0.15197378  0.66023787  0.11256015  1
  In  In59  1  0.15864868  0.68095954  0.63504846  1
  In  In60  1  0.49624567  -0.00018706  0.13795984  1
  In  In61  1  0.51411514  -0.00218047  0.62336082  1
  In  In62  1  0.49209531  0.34096252  0.13152472  1
  In  In63  1  0.49562938  0.33852122  0.62094489  1
  In  In64  1  0.51578485  0.65846163  0.12116523  1
  In  In65  1  0.48421939  0.66648289  0.63110705  1
  In  In66  1  0.83314839  -0.00306713  0.12444934  1
  In  In67  1  0.82796017  0.00550638  0.62770472  1
  In  In68  1  0.84593185  0.32398159  0.13153701  1
  In  In69  1  0.84447529  0.32557504  0.62148468  1
  In  In70  1  0.82660144  0.67682327  0.12150246  1
  In  In71  1  0.83734276  0.67874603  0.63314843  1
  In  In72  1  0.49487982  0.16944752  0.00728225  1
  In  In73  1  0.67390886  0.67019948  0.75470964  1
  In  In74  1  0.67051716  0.32867387  0.76423346  1
  In  In75  1  0.50066902  0.83203409  -0.00060937  1
  In  In76  1  0.33977513  0.66785652  0.24626535  1
  In  In77  1  0.33337899  0.33562468  0.74651844  1
  In  In78  1  0.83715444  0.50075357  0.00353135  1
  In  In79  1  0.33241487  -0.00523303  0.74234951  1
  In  In80  1  -0.00338022  0.34175910  0.75887388  1
  In  In81  1  0.83339800  0.49466616  0.50200221  1
  In  In82  1  0.16623546  0.49900681  0.49696444  1
  In  In83  1  0.49202761  0.15740743  0.48623274  1
  In  In84  1  0.83889201  0.84167877  0.49614083  1
  In  In85  1  0.49460203  0.49724789  0.49994579  1
  Cu  Cu86  1  0.00714914  0.00368970  0.49479153  1
  Cu  Cu87  1  0.49262560  0.83220519  0.25111148  1
  Cu  Cu88  1  0.16992702  0.51562936  0.75858311  1
  Cu  Cu89  1  0.00124481  0.32275773  0.49283998  1
  Cu  Cu90  1  0.50349048  0.15728703  0.74691768  1
  Cu  Cu91  1  0.83261934  0.50292144  0.24074111  1
  Cu  Cu92  1  0.32383398  0.00315916  0.00270884  1
  Cu  Cu93  1  0.66442734  0.67086798  0.49089091  1
  Cu  Cu94  1  0.00459370  0.67416512  0.50291038  1
  Cu  Cu95  1  0.49889032  0.49885360  0.24383821  1
  Cu  Cu96  1  0.16721960  0.83482346  0.75542813  1
  Cu  Cu97  1  0.33516914  0.66758025  0.00202102  1
  Cu  Cu98  1  0.66909184  -0.00243755  0.00520000  1
  Cu  Cu99  1  0.84060224  0.16372994  0.24830909  1
  Cu  Cu100  1  0.15590767  0.16644766  0.75388079  1
  Cu  Cu101  1  -0.00417894  -0.00084668  0.00371438  1
  Cu  Cu102  1  0.16099297  0.15967078  0.24787971  1
  Cu  Cu103  1  0.82924865  0.15730627  0.75031815  1
  Cu  Cu104  1  0.16104154  0.83472090  0.25005506  1
  Cu  Cu105  1  0.00157876  0.33077099  0.00765223  1
  Cu  Cu106  1  0.16862540  0.49639705  0.23768360  1
  Cu  Cu107  1  0.84554304  0.83819688  0.75544277  1
  Cu  Cu108  1  0.66428428  0.32532087  0.49114801  1
  Cu  Cu109  1  0.32778520  0.67368072  0.50343069  1
  Cu  Cu110  1  0.49487427  0.50261253  0.75675015  1
  Cu  Cu111  1  0.66691606  0.33031469  0.00557161  1
  Cu  Cu112  1  0.82934324  0.83436659  0.24529476  1
  Cu  Cu113  1  0.50590101  0.16904080  0.25112963  1
  Cu  Cu114  1  0.67189092  0.00264583  0.49751801  1
  Se  Se115  1  0.08265776  0.08293614  0.05423384  1
  Se  Se116  1  0.08792702  0.08619500  0.55253174  1
  Se  Se117  1  0.08592301  0.41470725  0.05793304  1
  Se  Se118  1  0.07102820  0.40856815  0.55702456  1
  Se  Se119  1  0.09136435  0.76429554  0.05079864  1
  Se  Se120  1  0.08581408  0.75693468  0.55691802  1
  Se  Se121  1  0.40699844  0.07581655  0.06485852  1
  Se  Se122  1  0.41389357  0.07578561  0.55993436  1
  Se  Se123  1  0.43429185  0.42151110  0.05047642  1
  Se  Se124  1  0.39683481  0.40450779  0.55187723  1
  Se  Se125  1  0.41098275  0.74743602  0.06555617  1
  Se  Se126  1  0.41689672  0.75011846  0.55645175  1
  Se  Se127  1  0.75324505  0.08427854  0.05374617  1
  Se  Se128  1  0.75563210  0.08513201  0.55025848  1
  Se  Se129  1  0.74969907  0.40990713  0.06533590  1
  Se  Se130  1  0.73601620  0.40455984  0.55940854  1
  Se  Se131  1  0.74035544  0.75069847  0.05084372  1
  Se  Se132  1  0.74969892  0.74273145  0.55328191  1
  Se  Se133  1  0.25205851  0.24718628  0.05347109  1
  Se  Se134  1  0.24657404  0.25481452  0.54462160  1
  Se  Se135  1  0.25139647  0.58270986  0.05365327  1
  Se  Se136  1  0.25083725  0.58875287  0.56295070  1
  Se  Se137  1  0.24363061  0.91419885  0.05283709  1
  Se  Se138  1  0.25545414  0.92497748  0.54952276  1
  Se  Se139  1  0.59122829  0.24954926  0.06840049  1
  Se  Se140  1  0.58149697  0.25020826  0.55385601  1
  Se  Se141  1  0.58894806  0.58299280  0.04550722  1
  Se  Se142  1  0.58645550  0.59320781  0.55575243  1
  Se  Se143  1  0.58376214  0.92213689  0.06435516  1
  Se  Se144  1  0.59120289  0.91668240  0.54975778  1
  Se  Se145  1  0.91426874  0.24538017  0.05341634  1
  Se  Se146  1  0.91346985  0.24432867  0.54675654  1
  Se  Se147  1  0.92606130  0.58893351  0.06295000  1
  Se  Se148  1  0.92302389  0.59211184  0.55981444  1
  Se  Se149  1  0.91159467  0.91312845  0.05373335  1
  Se  Se150  1  0.92828183  0.92544957  0.56014490  1
  Se  Se151  1  0.08913690  0.24351715  0.44205823  1
  Se  Se152  1  0.08235188  0.24775894  0.95053955  1
  Se  Se153  1  0.07463800  0.58963795  0.43839139  1
  Se  Se154  1  0.10384403  0.57286218  0.95322748  1
  Se  Se155  1  0.08415823  0.91433980  0.44276531  1
  Se  Se156  1  0.08326747  0.91951120  0.95039649  1
  Se  Se157  1  0.40674559  0.25873992  0.43604226  1
  Se  Se158  1  0.40684680  0.25695514  0.94456594  1
  Se  Se159  1  0.40568390  0.59332776  0.44152589  1
  Se  Se160  1  0.42181753  0.58782049  0.94856208  1
  Se  Se161  1  0.43165333  0.91071626  0.44934631  1
  Se  Se162  1  0.40831579  0.92683808  0.94175378  1
  Se  Se163  1  0.75482358  0.24688200  0.44309907  1
  Se  Se164  1  0.75098103  0.24700922  0.95352440  1
  Se  Se165  1  0.74531534  0.58512176  0.43795434  1
  Se  Se166  1  0.75177891  0.59278646  0.94153479  1
  Se  Se167  1  0.74739220  0.92288014  0.43253029  1
  Se  Se168  1  0.74999179  0.91586027  0.94867254  1
  Se  Se169  1  0.26207799  0.06858993  0.44392810  1
  Se  Se170  1  0.24259291  0.08829971  0.94961815  1
  Se  Se171  1  0.25158307  0.41190822  0.43360760  1
  Se  Se172  1  0.26119489  0.40734876  0.95553809  1
  Se  Se173  1  0.23989193  0.75222448  0.45086707  1
  Se  Se174  1  0.25506256  0.75421147  0.94896986  1
  Se  Se175  1  0.59344108  0.07675581  0.43110391  1
  Se  Se176  1  0.58161527  0.07337999  0.94521095  1
  Se  Se177  1  0.58660788  0.41190286  0.43586919  1
  Se  Se178  1  0.58728502  0.41514495  0.95177478  1
  Se  Se179  1  0.57852032  0.75501072  0.44441868  1
  Se  Se180  1  0.59223568  0.74410827  0.94024928  1
  Se  Se181  1  0.91735184  0.08374060  0.44507983  1
  Se  Se182  1  0.91311310  0.08419048  0.94905700  1
  Se  Se183  1  0.92479811  0.41317260  0.43704237  1
  Se  Se184  1  0.92964343  0.41242841  0.94063556  1
  Se  Se185  1  0.92232536  0.74494002  0.43744560  1
  Se  Se186  1  0.93225532  0.74202399  0.95458687  1
  Se  Se187  1  0.24681652  0.24555837  0.29845565  1
  Se  Se188  1  0.23900782  0.24944318  0.80823914  1
  Se  Se189  1  0.24245122  0.57670790  0.30468431  1
  Se  Se190  1  0.25498778  0.59510436  0.81183403  1
  Se  Se191  1  0.24754951  0.91228658  0.30627427  1
  Se  Se192  1  0.24650953  0.91749495  0.81478900  1
  Se  Se193  1  0.59266214  0.25553741  0.29811686  1
  Se  Se194  1  0.57361129  0.23595670  0.81565366  1
  Se  Se195  1  0.57719397  0.58706598  0.29790326  1
  Se  Se196  1  0.58274614  0.57707193  0.81355648  1
  Se  Se197  1  0.58142968  0.91603177  0.29989003  1
  Se  Se198  1  0.58674613  0.91014606  0.79461038  1
  Se  Se199  1  0.92051450  0.24925957  0.30395864  1
  Se  Se200  1  0.90553686  0.24196072  0.81065846  1
  Se  Se201  1  0.91620918  0.58572959  0.29639574  1
  Se  Se202  1  0.91680881  0.57835226  0.80237471  1
  Se  Se203  1  0.91688631  0.91527019  0.29745189  1
  Se  Se204  1  0.92493055  0.92221700  0.81044059  1
  Se  Se205  1  0.07896003  0.07647161  0.30286029  1
  Se  Se206  1  0.07395701  0.08123412  0.80393358  1
  Se  Se207  1  0.08519043  0.41556761  0.29581780  1
  Se  Se208  1  0.09281254  0.42804900  0.81560844  1
  Se  Se209  1  0.07873291  0.74501795  0.29906855  1
  Se  Se210  1  0.08428991  0.75387724  0.81132733  1
  Se  Se211  1  0.41814382  0.08805526  0.30371816  1
  Se  Se212  1  0.41880450  0.08564767  0.80973750  1
  Se  Se213  1  0.41468195  0.41485016  0.29579297  1
  Se  Se214  1  0.41355249  0.42238328  0.81500232  1
  Se  Se215  1  0.40845374  0.76168958  0.31614788  1
  Se  Se216  1  0.42715028  0.76038052  0.79833377  1
  Se  Se217  1  0.75310033  0.08021694  0.29904215  1
  Se  Se218  1  0.74715243  0.07637053  0.80678971  1
  Se  Se219  1  0.75263668  0.41905531  0.29874510  1
  Se  Se220  1  0.76613204  0.42770884  0.80786768  1
  Se  Se221  1  0.74526300  0.74918428  0.29855031  1
  Se  Se222  1  0.76421166  0.75811824  0.81587419  1
  Se  Se223  1  0.24753711  0.07620106  0.19679251  1
  Se  Se224  1  0.24061682  0.09378863  0.69147934  1
  Se  Se225  1  0.25370830  0.40838938  0.19288386  1
  Se  Se226  1  0.23558487  0.42869499  0.69201552  1
  Se  Se227  1  0.23995264  0.75124205  0.18984312  1
  Se  Se228  1  0.25306836  0.75616594  0.69918295  1
  Se  Se229  1  0.58643966  0.07952789  0.20198539  1
  Se  Se230  1  0.59151181  0.07737018  0.69768174  1
  Se  Se231  1  0.58835114  0.41679300  0.19515657  1
  Se  Se232  1  0.57504391  0.41801600  0.69955028  1
  Se  Se233  1  0.57502396  0.74890336  0.19694303  1
  Se  Se234  1  0.58809013  0.75071635  0.68608521  1
  Se  Se235  1  0.91905135  0.07785308  0.19352786  1
  Se  Se236  1  0.91859924  0.08313912  0.69489695  1
  Se  Se237  1  0.92086552  0.41413555  0.19932676  1
  Se  Se238  1  0.90719372  0.42479804  0.69086460  1
  Se  Se239  1  0.91394544  0.75129364  0.19238716  1
  Se  Se240  1  0.92481887  0.75113678  0.70198751  1
  Se  Se241  1  0.08015610  0.24672540  0.19485148  1
  Se  Se242  1  0.07955509  0.25025848  0.69290580  1
  Se  Se243  1  0.08425537  0.58711522  0.19463246  1
  Se  Se244  1  0.08157746  0.59142716  0.70292960  1
  Se  Se245  1  0.07828209  0.91693623  0.19473860  1
  Se  Se246  1  0.08927062  0.92243410  0.69993875  1
  Se  Se247  1  0.41815782  0.24780278  0.19743016  1
  Se  Se248  1  0.42366000  0.23862962  0.68896814  1
  Se  Se249  1  0.41603321  0.57383028  0.18126041  1
  Se  Se250  1  0.40999205  0.58425383  0.70446967  1
  Se  Se251  1  0.40752752  0.91869506  0.20319982  1
  Se  Se252  1  0.42546318  0.90763206  0.68625174  1
  Se  Se253  1  0.75395122  0.24784183  0.19817216  1
  Se  Se254  1  0.75279604  0.24415030  0.69163632  1
  Se  Se255  1  0.74847411  0.58855830  0.19147183  1
  Se  Se256  1  0.75779168  0.57453259  0.69180500  1
  Se  Se257  1  0.74478744  0.91989486  0.19511566  1
  Se  Se258  1  0.75847849  0.91330686  0.69786014  1
