# generated using pymatgen
data_In86Cu29Se144
_symmetry_space_group_name_H-M   'P 1'
_cell_length_a   17.54577153
_cell_length_b   17.54800498
_cell_length_c   23.39954825
_cell_angle_alpha   89.99615045
_cell_angle_beta   89.99965380
_cell_angle_gamma   90.00842166
_symmetry_Int_Tables_number   1
_chemical_formula_structural   In86Cu29Se144
_chemical_formula_sum   'In86 Cu29 Se144'
_cell_volume   7204.56371082
_cell_formula_units_Z   1
loop_
 _symmetry_equiv_pos_site_id
 _symmetry_equiv_pos_as_xyz
  1  'x, y, z'
loop_
 _atom_site_type_symbol
 _atom_site_label
 _atom_site_symmetry_multiplicity
 _atom_site_fract_x
 _atom_site_fract_y
 _atom_site_fract_z
 _atom_site_occupancy
  In  In0  1  0.02470312  0.19981653  0.09620458  1
  In  In1  1  0.00687228  0.16100063  0.63355799  1
  In  In2  1  0.00550778  0.49766213  0.12491388  1
  In  In3  1  0.00340100  0.50909251  0.61971769  1
  In  In4  1  0.00711142  0.81535824  0.12744252  1
  In  In5  1  -0.00103033  0.83244050  0.63349081  1
  In  In6  1  0.33828240  0.17067126  0.12653227  1
  In  In7  1  0.33124502  0.16981452  0.61582049  1
  In  In8  1  0.32146883  0.51298046  0.14014840  1
  In  In9  1  0.33962865  0.50369807  0.59206147  1
  In  In10  1  0.32736716  0.82461344  0.11801670  1
  In  In11  1  0.33231067  0.82425837  0.60994360  1
  In  In12  1  0.66361435  0.17033621  0.11495175  1
  In  In13  1  0.65994541  0.16241698  0.63050329  1
  In  In14  1  0.66743718  0.48769096  0.12299475  1
  In  In15  1  0.68469764  0.51146974  0.60276678  1
  In  In16  1  0.66559184  0.84719747  0.12151188  1
  In  In17  1  0.65815613  0.83693386  0.63245801  1
  In  In18  1  0.17672050  -0.00745693  0.38338954  1
  In  In19  1  0.15043134  0.01342254  0.88016440  1
  In  In20  1  0.16346161  0.33707706  0.37548930  1
  In  In21  1  0.15940158  0.32940210  0.88961126  1
  In  In22  1  0.16871034  0.66449661  0.37743800  1
  In  In23  1  0.16112935  0.67663253  0.87846013  1
  In  In24  1  0.49428174  0.00155230  0.38468381  1
  In  In25  1  0.50447280  -0.00615955  0.87465337  1
  In  In26  1  0.46443862  0.36417881  0.41948930  1
  In  In27  1  0.48454518  0.32952821  0.87697833  1
  In  In28  1  0.48462415  0.67372857  0.39455588  1
  In  In29  1  0.51869686  0.66897952  0.87110666  1
  In  In30  1  0.82249626  0.01140852  0.37431125  1
  In  In31  1  0.84190795  0.01294349  0.85466373  1
  In  In32  1  0.84476519  0.34394942  0.36910722  1
  In  In33  1  0.84729661  0.32630629  0.89255618  1
  In  In34  1  0.83482719  0.63732476  0.38131151  1
  In  In35  1  0.83468981  0.66247987  0.87095626  1
  In  In36  1  -0.00326150  0.18804482  0.36947865  1
  In  In37  1  0.00260709  0.16030735  0.87722627  1
  In  In38  1  0.00426900  0.50079032  0.37326109  1
  In  In39  1  -0.00532165  0.50164099  0.88230036  1
  In  In40  1  0.02435193  0.82762360  0.37824336  1
  In  In41  1  0.00457860  0.83835939  0.86989239  1
  In  In42  1  0.31275640  0.19294782  0.39824625  1
  In  In43  1  0.32871432  0.17387388  0.88377371  1
  In  In44  1  0.32249331  0.50112876  0.38066243  1
  In  In45  1  0.32754803  0.48893027  0.87508137  1
  In  In46  1  0.33990990  0.81974486  0.38943946  1
  In  In47  1  0.33035826  0.83778947  0.88131305  1
  In  In48  1  0.65263179  0.16697776  0.37744393  1
  In  In49  1  0.67459453  0.15416215  0.87558164  1
  In  In50  1  0.65345736  0.50236854  0.40070086  1
  In  In51  1  0.67555011  0.51602567  0.86725315  1
  In  In52  1  0.64779015  0.81682862  0.38366452  1
  In  In53  1  0.66503379  0.82812708  0.86872160  1
  In  In54  1  0.16335720  0.00012030  0.11731564  1
  In  In55  1  0.16528347  0.00463619  0.62558479  1
  In  In56  1  0.16635778  0.33870213  0.12907892  1
  In  In57  1  0.17076021  0.34018310  0.61073123  1
  In  In58  1  0.17011558  0.65957117  0.12453268  1
  In  In59  1  0.16084938  0.66191206  0.61381838  1
  In  In60  1  0.50513501  0.00124807  0.11616334  1
  In  In61  1  0.50119186  0.00179436  0.62364613  1
  In  In62  1  0.49971944  0.32545677  0.12950119  1
  In  In63  1  0.51031081  0.33416689  0.60163945  1
  In  In64  1  0.48507586  0.65947237  0.12753869  1
  In  In65  1  0.51667412  0.67780620  0.59896435  1
  In  In66  1  0.82656156  0.01045784  0.12148650  1
  In  In67  1  0.83705411  0.00428505  0.64775201  1
  In  In68  1  0.85869678  0.35521517  0.09622939  1
  In  In69  1  0.82280915  0.34038010  0.62116967  1
  In  In70  1  0.85624806  0.66686529  0.12937768  1
  In  In71  1  0.83796219  0.65737811  0.63024023  1
  In  In72  1  0.00296347  0.00399397  0.24455551  1
  In  In73  1  0.66622977  0.66501872  0.25892879  1
  In  In74  1  0.66685496  0.33207173  0.25396288  1
  In  In75  1  0.83654685  0.17134022  0.50532302  1
  In  In76  1  0.00242790  0.33057474  0.75911002  1
  In  In77  1  0.33591142  -0.00035397  0.24841757  1
  In  In78  1  0.67125079  0.33140051  0.74669704  1
  In  In79  1  0.83838661  0.83031093  0.51242794  1
  In  In80  1  0.83383591  0.83752477  -0.00113444  1
  In  In81  1  0.66827843  0.00452514  0.24673391  1
  In  In82  1  0.49738174  0.50053507  -0.00112853  1
  In  In83  1  0.32794405  0.33317071  0.74416783  1
  In  In84  1  0.33035635  0.00197972  0.74169701  1
  In  In85  1  0.33504278  0.66598039  0.73402193  1
  Cu  Cu86  1  0.66138502  0.33414422  -0.00314196  1
  Cu  Cu87  1  0.33432079  0.66678448  0.00400359  1
  Cu  Cu88  1  0.33370013  -0.00002938  0.50436763  1
  Cu  Cu89  1  0.00850218  0.66088130  0.00283043  1
  Cu  Cu90  1  0.48872527  0.17739159  0.25656432  1
  Cu  Cu91  1  0.50159910  0.82290089  0.74708523  1
  Cu  Cu92  1  0.33402637  0.00182081  -0.00083487  1
  Cu  Cu93  1  0.66962691  -0.01065435  0.50733893  1
  Cu  Cu94  1  0.48711927  0.49598601  0.26619865  1
  Cu  Cu95  1  0.15795945  0.83989856  0.75230440  1
  Cu  Cu96  1  -0.00132852  -0.00479836  -0.00624860  1
  Cu  Cu97  1  0.00883198  0.00811835  0.50372299  1
  Cu  Cu98  1  0.50821887  0.50391117  0.73574454  1
  Cu  Cu99  1  0.83758222  0.49697760  0.24767766  1
  Cu  Cu100  1  0.16341162  0.49759900  0.25372659  1
  Cu  Cu101  1  0.66036513  -0.00099189  -0.00893710  1
  Cu  Cu102  1  0.67220837  0.66981978  -0.00533427  1
  Cu  Cu103  1  0.49863387  0.16583680  0.74695854  1
  Cu  Cu104  1  -0.00354352  0.66726742  0.50006555  1
  Cu  Cu105  1  0.16026756  0.17456715  0.25315708  1
  Cu  Cu106  1  0.00298006  0.34219018  0.49557659  1
  Cu  Cu107  1  0.83898886  0.18528486  0.23377478  1
  Cu  Cu108  1  0.33009773  0.33540274  0.00634213  1
  Cu  Cu109  1  0.84853780  0.82761012  0.26016698  1
  Cu  Cu110  1  0.49380269  0.82389499  0.25424224  1
  Cu  Cu111  1  0.16751692  0.50575946  0.74287695  1
  Cu  Cu112  1  0.83553596  0.49947568  0.74957468  1
  Cu  Cu113  1  0.82904894  0.82111632  0.74990855  1
  Cu  Cu114  1  0.17623172  0.81486962  0.25109117  1
  Se  Se115  1  0.08283660  0.08048195  0.04672004  1
  Se  Se116  1  0.08921307  0.09462885  0.55585929  1
  Se  Se117  1  0.07333084  0.40282258  0.05677605  1
  Se  Se118  1  0.08473482  0.42785790  0.54954464  1
  Se  Se119  1  0.09183368  0.74703830  0.05351882  1
  Se  Se120  1  0.07245281  0.75517504  0.55600640  1
  Se  Se121  1  0.41547207  0.08541300  0.05565241  1
  Se  Se122  1  0.41994817  0.08381725  0.55482432  1
  Se  Se123  1  0.41042493  0.41822629  0.06581448  1
  Se  Se124  1  0.39750879  0.38473391  0.54160673  1
  Se  Se125  1  0.42310596  0.74913212  0.05286982  1
  Se  Se126  1  0.40364796  0.73419826  0.54284416  1
  Se  Se127  1  0.74242477  0.08095478  0.04790678  1
  Se  Se128  1  0.75242054  0.07069612  0.56391073  1
  Se  Se129  1  0.74545102  0.42269285  0.04417877  1
  Se  Se130  1  0.75989284  0.41505329  0.54069030  1
  Se  Se131  1  0.74990231  0.74497763  0.06285264  1
  Se  Se132  1  0.74270488  0.74358003  0.56628019  1
  Se  Se133  1  0.24856323  0.24978571  0.06094312  1
  Se  Se134  1  0.25398959  0.25388240  0.54690830  1
  Se  Se135  1  0.25385574  0.57719909  0.05412603  1
  Se  Se136  1  0.25582508  0.60312405  0.54173231  1
  Se  Se137  1  0.25140222  0.91741498  0.05324502  1
  Se  Se138  1  0.24551259  0.91989333  0.55597304  1
  Se  Se139  1  0.57527643  0.25422271  0.05077416  1
  Se  Se140  1  0.60528059  0.24433583  0.55042682  1
  Se  Se141  1  0.59091697  0.59105841  0.05868142  1
  Se  Se142  1  0.55861294  0.54985071  0.55446961  1
  Se  Se143  1  0.58083783  0.91313780  0.04604567  1
  Se  Se144  1  0.57872482  0.91090988  0.55686971  1
  Se  Se145  1  0.88856097  0.22132368  0.05870187  1
  Se  Se146  1  0.93151408  0.26146715  0.56310435  1
  Se  Se147  1  0.91964678  0.58139536  0.05448157  1
  Se  Se148  1  0.91165170  0.58294232  0.55109776  1
  Se  Se149  1  0.92614171  0.92001796  0.06450643  1
  Se  Se150  1  0.92230487  0.93442547  0.56429141  1
  Se  Se151  1  0.08072249  0.25044315  0.44570218  1
  Se  Se152  1  0.06573804  0.25151451  0.95088929  1
  Se  Se153  1  0.08063753  0.58409328  0.44559196  1
  Se  Se154  1  0.09033697  0.58075235  0.94465134  1
  Se  Se155  1  0.08629743  0.91778922  0.45226284  1
  Se  Se156  1  0.08556696  0.91055715  0.94532373  1
  Se  Se157  1  0.44710183  0.21781602  0.43611635  1
  Se  Se158  1  0.41443251  0.25133171  0.95431685  1
  Se  Se159  1  0.42873177  0.55873910  0.44760760  1
  Se  Se160  1  0.41104062  0.59183380  0.93482189  1
  Se  Se161  1  0.41817511  0.91373703  0.45288254  1
  Se  Se162  1  0.41866458  0.91803375  0.94632466  1
  Se  Se163  1  0.75587789  0.25131450  0.43293690  1
  Se  Se164  1  0.74374503  0.24772791  0.94530333  1
  Se  Se165  1  0.73524361  0.60057604  0.45491802  1
  Se  Se166  1  0.75544423  0.58354071  0.94560885  1
  Se  Se167  1  0.74762990  0.91418281  0.44215773  1
  Se  Se168  1  0.74973126  0.92437157  0.93308150  1
  Se  Se169  1  0.24674752  0.08311451  0.45349898  1
  Se  Se170  1  0.24721233  0.08389007  0.94695765  1
  Se  Se171  1  0.24710741  0.41011157  0.44818467  1
  Se  Se172  1  0.24792133  0.41732742  0.95063389  1
  Se  Se173  1  0.22756963  0.76558709  0.44592556  1
  Se  Se174  1  0.25122679  0.74975723  0.94793369  1
  Se  Se175  1  0.59200183  0.07346085  0.44919023  1
  Se  Se176  1  0.57618074  0.08730192  0.94274093  1
  Se  Se177  1  0.60111900  0.38999859  0.45760091  1
  Se  Se178  1  0.58760478  0.41628138  0.93223755  1
  Se  Se179  1  0.58011692  0.74313268  0.46222599  1
  Se  Se180  1  0.58617206  0.75356593  0.94642092  1
  Se  Se181  1  0.92438050  0.08135855  0.44073416  1
  Se  Se182  1  0.91202482  0.07434693  0.94052654  1
  Se  Se183  1  0.91611562  0.42407114  0.44489352  1
  Se  Se184  1  0.92586743  0.41500668  0.95597374  1
  Se  Se185  1  0.91781355  0.74819428  0.43782173  1
  Se  Se186  1  0.92600077  0.74346799  0.94353022  1
  Se  Se187  1  0.24911934  0.25010620  0.30819299  1
  Se  Se188  1  0.23926645  0.24947456  0.81077660  1
  Se  Se189  1  0.24809893  0.58200730  0.30560619  1
  Se  Se190  1  0.25037877  0.58200666  0.80551809  1
  Se  Se191  1  0.25069512  0.90494399  0.30853251  1
  Se  Se192  1  0.24326363  0.91776998  0.80962035  1
  Se  Se193  1  0.56874273  0.25759198  0.31555081  1
  Se  Se194  1  0.57483033  0.24838244  0.80914089  1
  Se  Se195  1  0.57520994  0.57773854  0.31992923  1
  Se  Se196  1  0.58595248  0.58431346  0.79519695  1
  Se  Se197  1  0.57716156  0.91148965  0.30856504  1
  Se  Se198  1  0.57924684  0.91126382  0.80138609  1
  Se  Se199  1  0.91876710  0.26262435  0.29410158  1
  Se  Se200  1  0.90431074  0.24132542  0.80990138  1
  Se  Se201  1  0.91911271  0.58224656  0.30147243  1
  Se  Se202  1  0.92126368  0.57908458  0.80483168  1
  Se  Se203  1  0.91888713  0.92048478  0.31637040  1
  Se  Se204  1  0.91480318  0.90800247  0.79938141  1
  Se  Se205  1  0.09001777  0.08604759  0.31432194  1
  Se  Se206  1  0.08055445  0.08589210  0.80118144  1
  Se  Se207  1  0.07787688  0.41189077  0.30279241  1
  Se  Se208  1  0.09657119  0.42647098  0.81054938  1
  Se  Se209  1  0.08320594  0.73991714  0.30191473  1
  Se  Se210  1  0.08091941  0.74659509  0.80173030  1
  Se  Se211  1  0.41416998  0.08937078  0.31509145  1
  Se  Se212  1  0.41503069  0.09100129  0.80901130  1
  Se  Se213  1  0.41103086  0.40776873  0.32031571  1
  Se  Se214  1  0.42643197  0.42716693  0.79931344  1
  Se  Se215  1  0.41378842  0.74302619  0.31137343  1
  Se  Se216  1  0.41641044  0.75087556  0.80868708  1
  Se  Se217  1  0.75885070  0.10655122  0.29890932  1
  Se  Se218  1  0.73694775  0.07824453  0.79486045  1
  Se  Se219  1  0.74668506  0.43417288  0.31198579  1
  Se  Se220  1  0.76374868  0.41418949  0.81215631  1
  Se  Se221  1  0.75884109  0.75475587  0.31852494  1
  Se  Se222  1  0.74466875  0.73845109  0.80306995  1
  Se  Se223  1  0.23680178  0.08839971  0.19391978  1
  Se  Se224  1  0.24270180  0.10327241  0.69366871  1
  Se  Se225  1  0.25003665  0.41403931  0.20244455  1
  Se  Se226  1  0.25260231  0.43307604  0.68128328  1
  Se  Se227  1  0.26062619  0.73889229  0.19316494  1
  Se  Se228  1  0.23727972  0.76247819  0.68786166  1
  Se  Se229  1  0.57093343  0.09733763  0.19432778  1
  Se  Se230  1  0.58135951  0.07618855  0.69931175  1
  Se  Se231  1  0.57030381  0.42849637  0.19850234  1
  Se  Se232  1  0.58491188  0.41584775  0.68034327  1
  Se  Se233  1  0.58242444  0.75515217  0.19108343  1
  Se  Se234  1  0.57753490  0.73716353  0.69017836  1
  Se  Se235  1  0.91841001  0.09504192  0.18275224  1
  Se  Se236  1  0.92766018  0.08711339  0.70673213  1
  Se  Se237  1  0.91336789  0.41295119  0.18913394  1
  Se  Se238  1  0.91698497  0.41907088  0.69083636  1
  Se  Se239  1  0.92890240  0.74463090  0.20569348  1
  Se  Se240  1  0.91807464  0.74271544  0.69808808  1
  Se  Se241  1  0.07705968  0.24982503  0.19271833  1
  Se  Se242  1  0.09737414  0.25863746  0.69017591  1
  Se  Se243  1  0.08471222  0.58176691  0.19513209  1
  Se  Se244  1  0.08262245  0.58982886  0.69230192  1
  Se  Se245  1  0.09772316  0.90439212  0.19456060  1
  Se  Se246  1  0.08063623  0.92540469  0.69569541  1
  Se  Se247  1  0.40730953  0.25879382  0.20051664  1
  Se  Se248  1  0.42752666  0.25088931  0.68488914  1
  Se  Se249  1  0.41564752  0.58554853  0.20737423  1
  Se  Se250  1  0.42128854  0.57425255  0.67451870  1
  Se  Se251  1  0.42725692  0.90994472  0.18852340  1
  Se  Se252  1  0.41755352  0.90104684  0.68835134  1
  Se  Se253  1  0.75058526  0.26099968  0.17802123  1
  Se  Se254  1  0.76503780  0.23816900  0.69185661  1
  Se  Se255  1  0.75322407  0.57842457  0.18991083  1
  Se  Se256  1  0.74642066  0.57267172  0.69281911  1
  Se  Se257  1  0.76731331  0.90667122  0.19658818  1
  Se  Se258  1  0.74751074  0.91108094  0.70149144  1
