# generated using pymatgen
data_In86Cu29Se144
_symmetry_space_group_name_H-M   'P 1'
_cell_length_a   17.58304031
_cell_length_b   17.58457637
_cell_length_c   23.44855603
_cell_angle_alpha   89.99823962
_cell_angle_beta   89.98030291
_cell_angle_gamma   90.00441141
_symmetry_Int_Tables_number   1
_chemical_formula_structural   In86Cu29Se144
_chemical_formula_sum   'In86 Cu29 Se144'
_cell_volume   7250.06597617
_cell_formula_units_Z   1
loop_
 _symmetry_equiv_pos_site_id
 _symmetry_equiv_pos_as_xyz
  1  'x, y, z'
loop_
 _atom_site_type_symbol
 _atom_site_label
 _atom_site_symmetry_multiplicity
 _atom_site_fract_x
 _atom_site_fract_y
 _atom_site_fract_z
 _atom_site_occupancy
  In  In0  1  -0.00032326  0.16179176  0.12732332  1
  In  In1  1  0.01228919  0.16899682  0.61569819  1
  In  In2  1  -0.00066693  0.49824595  0.13400372  1
  In  In3  1  -0.00853658  0.50787249  0.62979771  1
  In  In4  1  -0.00888754  0.84073842  0.12530544  1
  In  In5  1  -0.00690994  0.82364537  0.62063897  1
  In  In6  1  0.30700572  0.15843843  0.12245918  1
  In  In7  1  0.32884302  0.16527485  0.62900852  1
  In  In8  1  0.33660649  0.51075578  0.12793882  1
  In  In9  1  0.31930972  0.49795126  0.62449464  1
  In  In10  1  0.30922567  0.85326709  0.14776981  1
  In  In11  1  0.33962786  0.84338763  0.62477119  1
  In  In12  1  0.67003227  0.15106347  0.12440252  1
  In  In13  1  0.68142699  0.15584482  0.62836723  1
  In  In14  1  0.67700716  0.51051596  0.12251310  1
  In  In15  1  0.67394087  0.49660729  0.62977840  1
  In  In16  1  0.68292683  0.82340336  0.12760398  1
  In  In17  1  0.66847681  0.83696578  0.63083904  1
  In  In18  1  0.16391660  -0.00482886  0.37753576  1
  In  In19  1  0.16694153  -0.00887074  0.88391907  1
  In  In20  1  0.14538653  0.33187832  0.37715821  1
  In  In21  1  0.15046608  0.31778575  0.86220838  1
  In  In22  1  0.17501866  0.68513504  0.35892858  1
  In  In23  1  0.16211374  0.68273784  0.88034230  1
  In  In24  1  0.49672980  -0.00484335  0.36647219  1
  In  In25  1  0.50496964  0.00461636  0.86698916  1
  In  In26  1  0.50239141  0.33269390  0.37948950  1
  In  In27  1  0.50326111  0.33433846  0.86285702  1
  In  In28  1  0.50346602  0.67147251  0.37247058  1
  In  In29  1  0.50190203  0.65779758  0.87396029  1
  In  In30  1  0.83928223  0.00345179  0.37132422  1
  In  In31  1  0.83527490  0.00445805  0.88281269  1
  In  In32  1  0.85011940  0.32541495  0.38553771  1
  In  In33  1  0.83076408  0.32505845  0.86701527  1
  In  In34  1  0.83122394  0.66450055  0.37274396  1
  In  In35  1  0.83384879  0.67335573  0.87154765  1
  In  In36  1  -0.00631248  0.16075158  0.37998373  1
  In  In37  1  -0.00842420  0.15998077  0.88465971  1
  In  In38  1  -0.00976764  0.49526337  0.36940389  1
  In  In39  1  -0.00184958  0.49904506  0.86675369  1
  In  In40  1  0.02540815  0.85187922  0.35529568  1
  In  In41  1  0.00631345  0.82984868  0.88369930  1
  In  In42  1  0.32412663  0.14770018  0.37224857  1
  In  In43  1  0.32102454  0.15412906  0.86558397  1
  In  In44  1  0.32461061  0.50665616  0.37719276  1
  In  In45  1  0.34307214  0.50105304  0.87281065  1
  In  In46  1  0.31519372  0.82425551  0.36316587  1
  In  In47  1  0.31480594  0.83698664  0.88090345  1
  In  In48  1  0.68611156  0.15889217  0.38137432  1
  In  In49  1  0.67618809  0.17080085  0.86644546  1
  In  In50  1  0.68424899  0.52464624  0.37947994  1
  In  In51  1  0.67336552  0.50295521  0.86311461  1
  In  In52  1  0.66623269  0.83032690  0.36908490  1
  In  In53  1  0.67338395  0.83944783  0.86853869  1
  In  In54  1  0.15909812  -0.00237384  0.12846825  1
  In  In55  1  0.16956984  0.00765217  0.61530347  1
  In  In56  1  0.15914644  0.31419408  0.12278002  1
  In  In57  1  0.17216416  0.32426379  0.63400831  1
  In  In58  1  0.13190293  0.71350831  0.16565294  1
  In  In59  1  0.15377535  0.66531523  0.62120226  1
  In  In60  1  0.50704723  -0.01139379  0.13407216  1
  In  In61  1  0.50130820  -0.00488475  0.63177271  1
  In  In62  1  0.49781377  0.33905744  0.12160518  1
  In  In63  1  0.49980532  0.33342064  0.63182299  1
  In  In64  1  0.49912534  0.67191150  0.13259228  1
  In  In65  1  0.50810196  0.67961641  0.62354516  1
  In  In66  1  0.83823013  -0.00195396  0.12352408  1
  In  In67  1  0.82196185  0.00043715  0.61633922  1
  In  In68  1  0.84720709  0.33306688  0.12303813  1
  In  In69  1  0.83575945  0.33194322  0.62895964  1
  In  In70  1  0.82062880  0.68170375  0.13001216  1
  In  In71  1  0.83930707  0.66274110  0.62681073  1
  In  In72  1  0.50122009  0.83376633  0.49902105  1
  In  In73  1  0.15607924  0.50503706  0.49899791  1
  In  In74  1  0.50574619  0.50161015  0.49742406  1
  In  In75  1  0.49949598  0.50089210  0.00256894  1
  In  In76  1  0.50133155  0.16619637  0.50081994  1
  In  In77  1  0.49928364  0.83225332  -0.00117854  1
  In  In78  1  0.33319679  0.66850289  0.75169090  1
  In  In79  1  0.84030228  0.83403664  0.49377615  1
  In  In80  1  0.17394058  0.50467530  0.00097316  1
  In  In81  1  0.49713587  0.16472707  -0.00072024  1
  In  In82  1  0.83630534  0.50434770  -0.00762856  1
  In  In83  1  0.67141959  0.33148080  0.25677973  1
  In  In84  1  -0.00229474  -0.00072068  0.74859231  1
  In  In85  1  0.33074370  0.33099758  0.24265212  1
  Cu  Cu86  1  0.16359024  0.49832424  0.74743759  1
  Cu  Cu87  1  0.16272225  0.83667656  0.75392701  1
  Cu  Cu88  1  0.00394965  0.32142191  -0.00009533  1
  Cu  Cu89  1  0.50217467  0.83182228  0.25065380  1
  Cu  Cu90  1  0.67322052  0.32704100  -0.00998030  1
  Cu  Cu91  1  0.00366406  0.67290507  0.49400534  1
  Cu  Cu92  1  -0.00141404  0.67180860  0.00781790  1
  Cu  Cu93  1  0.83318848  0.50373651  0.24968659  1
  Cu  Cu94  1  0.32743401  0.00070777  0.00556462  1
  Cu  Cu95  1  0.68054526  -0.00179743  -0.00111259  1
  Cu  Cu96  1  0.32306611  0.32603013  -0.01108238  1
  Cu  Cu97  1  0.16375220  0.50004779  0.25461123  1
  Cu  Cu98  1  0.32352041  -0.00508500  0.49776667  1
  Cu  Cu99  1  0.83783547  0.16292527  0.25319933  1
  Cu  Cu100  1  0.50297330  0.83539428  0.75076208  1
  Cu  Cu101  1  0.50187577  0.49974720  0.74747621  1
  Cu  Cu102  1  0.50635090  0.50170448  0.25526425  1
  Cu  Cu103  1  0.32445420  0.32548937  0.50640971  1
  Cu  Cu104  1  0.83359758  0.83650805  0.25104167  1
  Cu  Cu105  1  0.16707796  0.16167205  0.74599178  1
  Cu  Cu106  1  0.15580805  0.16456939  0.25176127  1
  Cu  Cu107  1  0.83438768  0.49896127  0.74846740  1
  Cu  Cu108  1  0.67845045  0.33807030  0.50706173  1
  Cu  Cu109  1  0.32457154  0.68017255  0.01136177  1
  Cu  Cu110  1  0.83340460  0.83045783  0.74675864  1
  Cu  Cu111  1  0.83690285  0.16602445  0.75067026  1
  Cu  Cu112  1  0.50079236  0.16282876  0.24765652  1
  Cu  Cu113  1  -0.00374343  0.33208021  0.50304918  1
  Cu  Cu114  1  0.49971252  0.16675244  0.74701394  1
  Se  Se115  1  0.10231594  0.10133644  0.06242831  1
  Se  Se116  1  0.07925706  0.07676423  0.54663945  1
  Se  Se117  1  0.07731280  0.41242619  0.05683465  1
  Se  Se118  1  0.07944749  0.41065636  0.56465451  1
  Se  Se119  1  0.08217875  0.75004346  0.06424179  1
  Se  Se120  1  0.08481644  0.75437106  0.54967637  1
  Se  Se121  1  0.41390417  0.07468664  0.06494776  1
  Se  Se122  1  0.41027578  0.07165944  0.55718819  1
  Se  Se123  1  0.39800996  0.40721277  0.05237403  1
  Se  Se124  1  0.40953900  0.41071666  0.55683479  1
  Se  Se125  1  0.40888530  0.75840620  0.06833942  1
  Se  Se126  1  0.40719676  0.74206562  0.55591261  1
  Se  Se127  1  0.75807986  0.08608033  0.05221102  1
  Se  Se128  1  0.74905256  0.08767340  0.54620049  1
  Se  Se129  1  0.74604054  0.41011611  0.05443009  1
  Se  Se130  1  0.75982212  0.42226625  0.55878230  1
  Se  Se131  1  0.74885061  0.74638925  0.04854658  1
  Se  Se132  1  0.75071327  0.75085618  0.56019415  1
  Se  Se133  1  0.24425488  0.24647593  0.04737312  1
  Se  Se134  1  0.24295594  0.24190018  0.55807788  1
  Se  Se135  1  0.24540013  0.59699109  0.06843670  1
  Se  Se136  1  0.25502820  0.59321054  0.55357813  1
  Se  Se137  1  0.24774682  0.91556558  0.05945635  1
  Se  Se138  1  0.24772286  0.90912150  0.55452993  1
  Se  Se139  1  0.59167305  0.25710190  0.05670134  1
  Se  Se140  1  0.59040762  0.25751290  0.56043734  1
  Se  Se141  1  0.58836961  0.59558573  0.05662217  1
  Se  Se142  1  0.59326024  0.58980171  0.55924620  1
  Se  Se143  1  0.59368730  0.92141023  0.05676969  1
  Se  Se144  1  0.59149353  0.92537505  0.55686861  1
  Se  Se145  1  0.91674485  0.24346794  0.05383471  1
  Se  Se146  1  0.91433877  0.24882651  0.55722993  1
  Se  Se147  1  0.91892562  0.58661909  0.06331483  1
  Se  Se148  1  0.92459518  0.59073791  0.55233379  1
  Se  Se149  1  0.90993247  0.91290988  0.05060883  1
  Se  Se150  1  0.92603996  0.92647651  0.55541690  1
  Se  Se151  1  0.07794534  0.24650108  0.45006706  1
  Se  Se152  1  0.08801106  0.24281875  0.94443249  1
  Se  Se153  1  0.07956957  0.59285519  0.42968204  1
  Se  Se154  1  0.07232975  0.58853409  0.94370315  1
  Se  Se155  1  0.08223448  0.91011704  0.44532390  1
  Se  Se156  1  0.07444820  0.92319889  0.95140206  1
  Se  Se157  1  0.40398234  0.25244923  0.44054441  1
  Se  Se158  1  0.41324662  0.25296074  0.93344522  1
  Se  Se159  1  0.41082986  0.59204149  0.44320361  1
  Se  Se160  1  0.40236067  0.59793301  0.95012114  1
  Se  Se161  1  0.40742529  0.91819998  0.43820844  1
  Se  Se162  1  0.41141587  0.92924114  0.94095323  1
  Se  Se163  1  0.75342250  0.25216199  0.44949400  1
  Se  Se164  1  0.75813318  0.24256124  0.94239258  1
  Se  Se165  1  0.76598497  0.58926480  0.45515515  1
  Se  Se166  1  0.73802346  0.59090968  0.94021377  1
  Se  Se167  1  0.74346706  0.92067015  0.43807255  1
  Se  Se168  1  0.75482681  0.90903816  0.94447053  1
  Se  Se169  1  0.24233045  0.08442507  0.44934773  1
  Se  Se170  1  0.25062442  0.08365599  0.94667484  1
  Se  Se171  1  0.25027309  0.40769625  0.44324746  1
  Se  Se172  1  0.24844302  0.41228980  0.93113667  1
  Se  Se173  1  0.24697218  0.74748761  0.44160021  1
  Se  Se174  1  0.23992015  0.75811023  0.95552276  1
  Se  Se175  1  0.58482189  0.07426722  0.43937990  1
  Se  Se176  1  0.59411863  0.07815225  0.94211455  1
  Se  Se177  1  0.60104817  0.41159157  0.44006749  1
  Se  Se178  1  0.58962587  0.41263517  0.93845442  1
  Se  Se179  1  0.59595766  0.74105105  0.44598348  1
  Se  Se180  1  0.58794445  0.74531929  0.93749709  1
  Se  Se181  1  0.89532339  0.09491202  0.44693531  1
  Se  Se182  1  0.93508426  0.05951535  0.95287960  1
  Se  Se183  1  0.91951042  0.42336688  0.45121817  1
  Se  Se184  1  0.92606257  0.40550158  0.94025216  1
  Se  Se185  1  0.93138653  0.75362948  0.42855158  1
  Se  Se186  1  0.91612211  0.74555570  0.94629930  1
  Se  Se187  1  0.24125014  0.24785550  0.30887504  1
  Se  Se188  1  0.25073267  0.24917907  0.79841287  1
  Se  Se189  1  0.25306408  0.58253829  0.30106018  1
  Se  Se190  1  0.23914487  0.58018522  0.81224946  1
  Se  Se191  1  0.25633634  0.93184108  0.30441064  1
  Se  Se192  1  0.24711271  0.91996647  0.80538960  1
  Se  Se193  1  0.57774930  0.23821672  0.31224381  1
  Se  Se194  1  0.58700072  0.24822805  0.79937332  1
  Se  Se195  1  0.58874351  0.58466184  0.30825728  1
  Se  Se196  1  0.58286701  0.58544476  0.79989426  1
  Se  Se197  1  0.58687871  0.91673828  0.30131703  1
  Se  Se198  1  0.58822223  0.92090671  0.80076392  1
  Se  Se199  1  0.91865759  0.24893542  0.30657757  1
  Se  Se200  1  0.92405262  0.24212214  0.80667462  1
  Se  Se201  1  0.91771209  0.58759223  0.30164553  1
  Se  Se202  1  0.91356402  0.58496283  0.80399225  1
  Se  Se203  1  0.91827928  0.92220741  0.29968803  1
  Se  Se204  1  0.91254130  0.90774082  0.81012542  1
  Se  Se205  1  0.07886539  0.08173262  0.31046764  1
  Se  Se206  1  0.08906477  0.08453969  0.81025922  1
  Se  Se207  1  0.07791975  0.41387107  0.30186067  1
  Se  Se208  1  0.07819501  0.41460461  0.79861648  1
  Se  Se209  1  0.08947810  0.75491562  0.28529452  1
  Se  Se210  1  0.07952886  0.75147797  0.80510930  1
  Se  Se211  1  0.41477274  0.08285328  0.30075067  1
  Se  Se212  1  0.41696344  0.08253443  0.80043755  1
  Se  Se213  1  0.42124872  0.41885802  0.30879442  1
  Se  Se214  1  0.41509861  0.41870852  0.79946622  1
  Se  Se215  1  0.41829789  0.74955621  0.30443196  1
  Se  Se216  1  0.42001558  0.76082193  0.81459466  1
  Se  Se217  1  0.74850836  0.08032410  0.30115402  1
  Se  Se218  1  0.75787437  0.07794745  0.80520637  1
  Se  Se219  1  0.76063311  0.42163240  0.31540046  1
  Se  Se220  1  0.75096125  0.41166660  0.79959577  1
  Se  Se221  1  0.75171342  0.74897164  0.30250545  1
  Se  Se222  1  0.74769950  0.74814282  0.79992806  1
  Se  Se223  1  0.24284780  0.08107354  0.20148327  1
  Se  Se224  1  0.24897746  0.07497317  0.69458823  1
  Se  Se225  1  0.23740634  0.42197540  0.18614727  1
  Se  Se226  1  0.25206826  0.41554871  0.69976473  1
  Se  Se227  1  0.27316494  0.72619390  0.19435676  1
  Se  Se228  1  0.24263210  0.75570614  0.69086508  1
  Se  Se229  1  0.58776417  0.08001140  0.19779694  1
  Se  Se230  1  0.58449104  0.08443595  0.69410405  1
  Se  Se231  1  0.58220341  0.42214173  0.19214759  1
  Se  Se232  1  0.58656736  0.41529164  0.69654005  1
  Se  Se233  1  0.58850120  0.75201988  0.19656429  1
  Se  Se234  1  0.58647056  0.75128522  0.69910456  1
  Se  Se235  1  0.91789884  0.07927538  0.19684658  1
  Se  Se236  1  0.91162186  0.08776922  0.68530118  1
  Se  Se237  1  0.91382549  0.41406224  0.19981892  1
  Se  Se238  1  0.91997360  0.41498601  0.69778315  1
  Se  Se239  1  0.91461233  0.75164097  0.19645146  1
  Se  Se240  1  0.92016279  0.74706607  0.69719737  1
  Se  Se241  1  0.07564560  0.25173400  0.19947655  1
  Se  Se242  1  0.07906594  0.24486160  0.69717732  1
  Se  Se243  1  0.07831818  0.58211557  0.20252785  1
  Se  Se244  1  0.08241890  0.58631026  0.69692462  1
  Se  Se245  1  0.08725990  0.90521187  0.19576128  1
  Se  Se246  1  0.08675411  0.91079641  0.68679891  1
  Se  Se247  1  0.42178865  0.23830064  0.18360074  1
  Se  Se248  1  0.41349665  0.24921875  0.69537395  1
  Se  Se249  1  0.42222769  0.58144925  0.19981067  1
  Se  Se250  1  0.42158767  0.58004436  0.68667338  1
  Se  Se251  1  0.41663379  0.92064088  0.20475763  1
  Se  Se252  1  0.41476369  0.91753108  0.70135389  1
  Se  Se253  1  0.75696448  0.24404735  0.19172034  1
  Se  Se254  1  0.75094693  0.24836441  0.69749137  1
  Se  Se255  1  0.74772963  0.58693450  0.19888612  1
  Se  Se256  1  0.75218304  0.58578768  0.69680391  1
  Se  Se257  1  0.75128985  0.91933691  0.19417677  1
  Se  Se258  1  0.75489161  0.92071091  0.69548790  1
