# generated using pymatgen
data_In86Cu29Se144
_symmetry_space_group_name_H-M   'P 1'
_cell_length_a   17.57621043
_cell_length_b   17.57609235
_cell_length_c   23.43334414
_cell_angle_alpha   89.99466918
_cell_angle_beta   89.99887953
_cell_angle_gamma   89.99408948
_symmetry_Int_Tables_number   1
_chemical_formula_structural   In86Cu29Se144
_chemical_formula_sum   'In86 Cu29 Se144'
_cell_volume   7239.05432341
_cell_formula_units_Z   1
loop_
 _symmetry_equiv_pos_site_id
 _symmetry_equiv_pos_as_xyz
  1  'x, y, z'
loop_
 _atom_site_type_symbol
 _atom_site_label
 _atom_site_symmetry_multiplicity
 _atom_site_fract_x
 _atom_site_fract_y
 _atom_site_fract_z
 _atom_site_occupancy
  In  In0  1  0.00531770  0.16621554  0.12325465  1
  In  In1  1  0.00467205  0.16607249  0.61786438  1
  In  In2  1  -0.00804219  0.49916912  0.13969408  1
  In  In3  1  -0.01324617  0.50970136  0.63411577  1
  In  In4  1  -0.00949037  0.83626246  0.14388009  1
  In  In5  1  -0.01465401  0.83286887  0.61208190  1
  In  In6  1  0.32973178  0.17319239  0.13754305  1
  In  In7  1  0.32582885  0.15689312  0.61799060  1
  In  In8  1  0.32650805  0.50389461  0.13791729  1
  In  In9  1  0.34837730  0.50618345  0.62228639  1
  In  In10  1  0.33181469  0.83412870  0.13810658  1
  In  In11  1  0.33640094  0.82815818  0.62394003  1
  In  In12  1  0.66735837  0.15474334  0.13049242  1
  In  In13  1  0.68001426  0.18251359  0.61470748  1
  In  In14  1  0.69264375  0.50158387  0.13958503  1
  In  In15  1  0.66813941  0.49634158  0.61754222  1
  In  In16  1  0.68081058  0.83407700  0.15160296  1
  In  In17  1  0.67460444  0.83632805  0.61185883  1
  In  In18  1  0.17069837  0.00929450  0.36845772  1
  In  In19  1  0.17242726  -0.00221908  0.87606071  1
  In  In20  1  0.15106816  0.32075067  0.37092661  1
  In  In21  1  0.15512143  0.33469125  0.87504316  1
  In  In22  1  0.15914117  0.65902542  0.36959358  1
  In  In23  1  0.15702674  0.66079918  0.85937564  1
  In  In24  1  0.49929473  -0.00259804  0.37959395  1
  In  In25  1  0.49306817  0.01778065  0.86908701  1
  In  In26  1  0.49264841  0.34132561  0.38377384  1
  In  In27  1  0.50480495  0.31857880  0.86633816  1
  In  In28  1  0.50154745  0.66790695  0.38004046  1
  In  In29  1  0.50129743  0.68147150  0.87005255  1
  In  In30  1  0.83186815  0.00605270  0.37101552  1
  In  In31  1  0.84866259  0.02003146  0.87036153  1
  In  In32  1  0.83982706  0.32553048  0.38179125  1
  In  In33  1  0.82340900  0.31470552  0.84905721  1
  In  In34  1  0.83639631  0.67310874  0.37695581  1
  In  In35  1  0.83762024  0.66190901  0.87143625  1
  In  In36  1  -0.00265989  0.16325368  0.37660560  1
  In  In37  1  -0.00905013  0.17192665  0.89547570  1
  In  In38  1  -0.00901922  0.49896351  0.37173010  1
  In  In39  1  -0.01864649  0.48903342  0.85411604  1
  In  In40  1  -0.01966868  0.83060244  0.36524864  1
  In  In41  1  0.00768874  0.83558713  0.87106966  1
  In  In42  1  0.32996397  0.16569871  0.37706468  1
  In  In43  1  0.33804123  0.15522075  0.87188308  1
  In  In44  1  0.34139424  0.50661508  0.37039307  1
  In  In45  1  0.31887355  0.50142253  0.86827384  1
  In  In46  1  0.34024421  0.83913477  0.37344951  1
  In  In47  1  0.32856506  0.83406322  0.86566240  1
  In  In48  1  0.67722426  0.15377051  0.38407582  1
  In  In49  1  0.66822414  0.17737513  0.86641644  1
  In  In50  1  0.66499843  0.50863996  0.38234452  1
  In  In51  1  0.69038404  0.48662208  0.87059838  1
  In  In52  1  0.67253522  0.82804093  0.37123329  1
  In  In53  1  0.66629803  0.83295147  0.87802210  1
  In  In54  1  0.15321755  0.02053766  0.13887995  1
  In  In55  1  0.16230278  0.01664769  0.61751887  1
  In  In56  1  0.17075329  0.32685931  0.13180326  1
  In  In57  1  0.16321132  0.31820781  0.62030341  1
  In  In58  1  0.16067195  0.67513680  0.13946061  1
  In  In59  1  0.16611292  0.67258958  0.62459536  1
  In  In60  1  0.50638551  -0.00561096  0.13838032  1
  In  In61  1  0.49561561  -0.01009526  0.61518051  1
  In  In62  1  0.50314700  0.31370657  0.13197155  1
  In  In63  1  0.51290305  0.34736221  0.61282723  1
  In  In64  1  0.49718232  0.67247135  0.13647046  1
  In  In65  1  0.50066177  0.66331832  0.61580114  1
  In  In66  1  0.83299279  0.00784728  0.13461325  1
  In  In67  1  0.85460286  0.00192996  0.59713105  1
  In  In68  1  0.85790922  0.32799731  0.13633247  1
  In  In69  1  0.83652160  0.33502170  0.62684261  1
  In  In70  1  0.83532903  0.66107263  0.15804863  1
  In  In71  1  0.84418516  0.66662606  0.61314807  1
  In  In72  1  0.65960078  0.33770548  0.26272812  1
  In  In73  1  0.00315880  -0.00038022  0.74214933  1
  In  In74  1  0.16078139  0.49433464  0.48945704  1
  In  In75  1  0.84159157  0.49696643  0.00314233  1
  In  In76  1  0.49790575  0.84344818  0.01457565  1
  In  In77  1  0.15532264  0.50290738  -0.00472544  1
  In  In78  1  0.50257451  0.16012457  -0.00114815  1
  In  In79  1  0.66178265  0.66144384  0.73599247  1
  In  In80  1  0.16497161  0.84096616  0.00245888  1
  In  In81  1  0.33630813  0.33601625  0.74357533  1
  In  In82  1  0.83374283  0.83811413  0.01866890  1
  In  In83  1  0.49743000  0.49817656  0.00099456  1
  In  In84  1  0.66235021  -0.00343814  0.74648061  1
  In  In85  1  0.15781926  0.83637295  0.48722709  1
  Cu  Cu86  1  0.49917097  0.83389706  0.26138856  1
  Cu  Cu87  1  0.00115915  0.32890071  0.00252677  1
  Cu  Cu88  1  0.33098582  0.32946006  0.50052410  1
  Cu  Cu89  1  0.66837512  0.33051105  0.49617157  1
  Cu  Cu90  1  0.66631290  0.66401917  0.01407912  1
  Cu  Cu91  1  0.17324207  0.83739397  0.25733686  1
  Cu  Cu92  1  0.50493838  0.50776987  0.74273450  1
  Cu  Cu93  1  0.48463075  0.83411303  0.74460156  1
  Cu  Cu94  1  0.16762089  0.50430973  0.74333450  1
  Cu  Cu95  1  0.50012374  0.16637099  0.73835693  1
  Cu  Cu96  1  0.49671117  0.49993033  0.25635248  1
  Cu  Cu97  1  0.68035704  0.33128186  -0.00755374  1
  Cu  Cu98  1  0.82911669  0.82955406  0.73789009  1
  Cu  Cu99  1  -0.00320847  0.66893468  0.00187699  1
  Cu  Cu100  1  0.16295168  0.16962737  0.25193967  1
  Cu  Cu101  1  0.32991850  0.32770848  0.01153838  1
  Cu  Cu102  1  0.83649211  0.17264129  0.25548031  1
  Cu  Cu103  1  -0.00233456  0.33013714  0.50045018  1
  Cu  Cu104  1  0.49718482  0.16095001  0.25834421  1
  Cu  Cu105  1  0.68237687  -0.00022791  0.00477524  1
  Cu  Cu106  1  0.67314963  0.66729058  0.49548652  1
  Cu  Cu107  1  0.32179387  0.66398939  -0.00310940  1
  Cu  Cu108  1  0.16850715  0.83378547  0.74412255  1
  Cu  Cu109  1  0.66306464  -0.00210426  0.49500084  1
  Cu  Cu110  1  0.33166208  -0.00101779  0.49589193  1
  Cu  Cu111  1  0.16481927  0.16388333  0.74874490  1
  Cu  Cu112  1  0.33160648  0.00483463  0.00154779  1
  Cu  Cu113  1  0.16763554  0.49365707  0.25659314  1
  Cu  Cu114  1  0.33617930  0.66398202  0.49868864  1
  Se  Se115  1  0.09367901  0.08934968  0.05467499  1
  Se  Se116  1  0.06661159  0.07027707  0.54688999  1
  Se  Se117  1  0.07364939  0.41609362  0.06342691  1
  Se  Se118  1  0.07856811  0.41160559  0.55909500  1
  Se  Se119  1  0.07450607  0.74938203  0.06274293  1
  Se  Se120  1  0.07715665  0.74132461  0.55061713  1
  Se  Se121  1  0.41692433  0.07590851  0.06558013  1
  Se  Se122  1  0.41575425  0.08149294  0.55061122  1
  Se  Se123  1  0.41362446  0.40741011  0.06738987  1
  Se  Se124  1  0.41366475  0.41837374  0.54885066  1
  Se  Se125  1  0.40301920  0.74166931  0.05886955  1
  Se  Se126  1  0.41646960  0.75052413  0.55122092  1
  Se  Se127  1  0.75736286  0.08833350  0.05847750  1
  Se  Se128  1  0.74577519  0.07949505  0.55035727  1
  Se  Se129  1  0.75068796  0.40561843  0.06318933  1
  Se  Se130  1  0.75195572  0.41121814  0.55254799  1
  Se  Se131  1  0.74822991  0.73826275  0.07543906  1
  Se  Se132  1  0.75742484  0.75039746  0.54812924  1
  Se  Se133  1  0.24795554  0.24200373  0.06036356  1
  Se  Se134  1  0.24677534  0.24367552  0.54913238  1
  Se  Se135  1  0.24558399  0.58792728  0.06140216  1
  Se  Se136  1  0.25140897  0.58452331  0.55409607  1
  Se  Se137  1  0.25792632  0.92303855  0.06454010  1
  Se  Se138  1  0.24865468  0.91739088  0.55560555  1
  Se  Se139  1  0.59689852  0.25378072  0.05362443  1
  Se  Se140  1  0.58061602  0.24833752  0.54821414  1
  Se  Se141  1  0.58656007  0.57999724  0.06994018  1
  Se  Se142  1  0.58915601  0.58513650  0.55058724  1
  Se  Se143  1  0.60519628  0.92089324  0.06765937  1
  Se  Se144  1  0.58141314  0.91066362  0.54696053  1
  Se  Se145  1  0.91489873  0.24840347  0.05523617  1
  Se  Se146  1  0.91384440  0.24782696  0.55472134  1
  Se  Se147  1  0.91670551  0.59581953  0.06742890  1
  Se  Se148  1  0.91405153  0.56721397  0.54980318  1
  Se  Se149  1  0.93192576  0.92931186  0.06667679  1
  Se  Se150  1  0.91152287  0.89838784  0.53053108  1
  Se  Se151  1  0.08136114  0.24472500  0.44921210  1
  Se  Se152  1  0.09249584  0.25092439  0.95182339  1
  Se  Se153  1  0.06832794  0.59374781  0.44416979  1
  Se  Se154  1  0.06479795  0.58953609  0.93404811  1
  Se  Se155  1  0.07109652  0.92542112  0.42770679  1
  Se  Se156  1  0.07073620  0.92867396  0.94475161  1
  Se  Se157  1  0.41529213  0.24679298  0.44706991  1
  Se  Se158  1  0.40986965  0.25680911  0.94308353  1
  Se  Se159  1  0.41954554  0.57872691  0.44740649  1
  Se  Se160  1  0.40754791  0.59002091  0.93695783  1
  Se  Se161  1  0.41771113  0.91225568  0.45005498  1
  Se  Se162  1  0.41292136  0.92426901  0.94022740  1
  Se  Se163  1  0.75454678  0.24501929  0.44961623  1
  Se  Se164  1  0.75855207  0.24750413  0.93629766  1
  Se  Se165  1  0.75987974  0.58276965  0.44677010  1
  Se  Se166  1  0.74339796  0.59039360  0.94624509  1
  Se  Se167  1  0.74751262  0.92026585  0.43837114  1
  Se  Se168  1  0.75601997  0.91970907  0.93997861  1
  Se  Se169  1  0.24579938  0.08295101  0.44700914  1
  Se  Se170  1  0.25127545  0.08590369  0.94463341  1
  Se  Se171  1  0.25532313  0.40657100  0.43341612  1
  Se  Se172  1  0.25779159  0.40991855  0.94669088  1
  Se  Se173  1  0.25436760  0.74047353  0.43764675  1
  Se  Se174  1  0.24425928  0.74415435  0.93584449  1
  Se  Se175  1  0.57727809  0.08580984  0.44844766  1
  Se  Se176  1  0.59908180  0.07250383  0.94009488  1
  Se  Se177  1  0.58484474  0.41882181  0.44830187  1
  Se  Se178  1  0.59094055  0.40800571  0.93735059  1
  Se  Se179  1  0.58729776  0.75221791  0.44525764  1
  Se  Se180  1  0.58748601  0.74558844  0.95301688  1
  Se  Se181  1  0.89933671  0.09677283  0.44289904  1
  Se  Se182  1  0.91534838  0.07653370  0.95640364  1
  Se  Se183  1  0.91840999  0.41753831  0.44729367  1
  Se  Se184  1  0.92283972  0.40718135  0.93804729  1
  Se  Se185  1  0.90589528  0.76638199  0.44870822  1
  Se  Se186  1  0.91656762  0.75288820  0.94379371  1
  Se  Se187  1  0.24870872  0.24971062  0.30631952  1
  Se  Se188  1  0.24786220  0.24745383  0.80726317  1
  Se  Se189  1  0.25079707  0.58288385  0.30364335  1
  Se  Se190  1  0.25298649  0.58753104  0.79446425  1
  Se  Se191  1  0.25761726  0.92230451  0.30565909  1
  Se  Se192  1  0.24684011  0.91981311  0.79991297  1
  Se  Se193  1  0.57642810  0.24088112  0.31989332  1
  Se  Se194  1  0.58506769  0.24882566  0.79097383  1
  Se  Se195  1  0.57964899  0.58125902  0.30942225  1
  Se  Se196  1  0.58449767  0.57771980  0.81351388  1
  Se  Se197  1  0.58554432  0.91897746  0.30923437  1
  Se  Se198  1  0.56735820  0.90759894  0.80951613  1
  Se  Se199  1  0.92208039  0.25470798  0.30600883  1
  Se  Se200  1  0.93591755  0.23951026  0.80831861  1
  Se  Se201  1  0.92850198  0.60079363  0.30682050  1
  Se  Se202  1  0.91876450  0.59599444  0.79636427  1
  Se  Se203  1  0.90304468  0.91933598  0.29625457  1
  Se  Se204  1  0.90669060  0.90959844  0.80298670  1
  Se  Se205  1  0.07820442  0.08488192  0.30224007  1
  Se  Se206  1  0.08433041  0.08617723  0.81109747  1
  Se  Se207  1  0.07728858  0.41465920  0.30579916  1
  Se  Se208  1  0.09010822  0.41903695  0.79972435  1
  Se  Se209  1  0.08576639  0.75737638  0.30804799  1
  Se  Se210  1  0.07911686  0.75498474  0.79667342  1
  Se  Se211  1  0.41265198  0.07805951  0.31038010  1
  Se  Se212  1  0.41419015  0.08630341  0.79162459  1
  Se  Se213  1  0.41529693  0.41107210  0.30440272  1
  Se  Se214  1  0.42680201  0.42628919  0.80696794  1
  Se  Se215  1  0.41558298  0.74505597  0.30867702  1
  Se  Se216  1  0.40921445  0.74566845  0.79977962  1
  Se  Se217  1  0.74628847  0.08824981  0.30011602  1
  Se  Se218  1  0.75680011  0.09024509  0.79935531  1
  Se  Se219  1  0.75678481  0.42216376  0.31693155  1
  Se  Se220  1  0.76469765  0.42356068  0.79102969  1
  Se  Se221  1  0.73756714  0.72931609  0.30362506  1
  Se  Se222  1  0.74804206  0.75487079  0.80241342  1
  Se  Se223  1  0.25378294  0.08380560  0.20494203  1
  Se  Se224  1  0.24703952  0.08199946  0.69443752  1
  Se  Se225  1  0.25100969  0.41071990  0.20133356  1
  Se  Se226  1  0.24550572  0.42378820  0.68162259  1
  Se  Se227  1  0.25400119  0.74702839  0.20587100  1
  Se  Se228  1  0.25319900  0.74777350  0.69423301  1
  Se  Se229  1  0.58591711  0.08235780  0.20461174  1
  Se  Se230  1  0.58167891  0.08575394  0.67993595  1
  Se  Se231  1  0.57614975  0.42372427  0.19038117  1
  Se  Se232  1  0.58515172  0.42049058  0.69234529  1
  Se  Se233  1  0.58130533  0.75180145  0.20517277  1
  Se  Se234  1  0.57635855  0.76494941  0.68534409  1
  Se  Se235  1  0.92013637  0.09325298  0.19762860  1
  Se  Se236  1  0.90720574  0.08311124  0.68412037  1
  Se  Se237  1  0.89011177  0.43705338  0.20376759  1
  Se  Se238  1  0.93856509  0.39712916  0.69322776  1
  Se  Se239  1  0.93485279  0.73623167  0.21319134  1
  Se  Se240  1  0.91809506  0.74944404  0.68884023  1
  Se  Se241  1  0.07878642  0.25266015  0.19748763  1
  Se  Se242  1  0.08154859  0.24447281  0.69408100  1
  Se  Se243  1  0.08610610  0.57842627  0.20118969  1
  Se  Se244  1  0.08407505  0.58937420  0.69284715  1
  Se  Se245  1  0.08822276  0.91709828  0.20114816  1
  Se  Se246  1  0.08868991  0.90720075  0.67966794  1
  Se  Se247  1  0.41786314  0.24973887  0.20703554  1
  Se  Se248  1  0.42126225  0.25001639  0.67900936  1
  Se  Se249  1  0.41425361  0.58593560  0.20179453  1
  Se  Se250  1  0.42064576  0.59244870  0.69430789  1
  Se  Se251  1  0.41762250  0.91672241  0.20377772  1
  Se  Se252  1  0.40893941  0.92323950  0.69131107  1
  Se  Se253  1  0.74936641  0.25055152  0.19557100  1
  Se  Se254  1  0.74647817  0.25588847  0.69434880  1
  Se  Se255  1  0.72977857  0.59667827  0.21802159  1
  Se  Se256  1  0.76118883  0.57740316  0.68488032  1
  Se  Se257  1  0.77847428  0.91054874  0.20953515  1
  Se  Se258  1  0.75926476  0.92076493  0.68115594  1
