# generated using pymatgen
data_In86Cu29Se144
_symmetry_space_group_name_H-M   'P 1'
_cell_length_a   17.57633279
_cell_length_b   17.57655947
_cell_length_c   23.43577921
_cell_angle_alpha   89.99398327
_cell_angle_beta   90.01078969
_cell_angle_gamma   90.01763128
_symmetry_Int_Tables_number   1
_chemical_formula_structural   In86Cu29Se144
_chemical_formula_sum   'In86 Cu29 Se144'
_cell_volume   7240.04894319
_cell_formula_units_Z   1
loop_
 _symmetry_equiv_pos_site_id
 _symmetry_equiv_pos_as_xyz
  1  'x, y, z'
loop_
 _atom_site_type_symbol
 _atom_site_label
 _atom_site_symmetry_multiplicity
 _atom_site_fract_x
 _atom_site_fract_y
 _atom_site_fract_z
 _atom_site_occupancy
  In  In0  1  -0.00539717  0.16265250  0.14106578  1
  In  In1  1  0.00394155  0.16969749  0.62729159  1
  In  In2  1  0.01610840  0.49234247  0.13662619  1
  In  In3  1  -0.00668149  0.48681698  0.61743819  1
  In  In4  1  0.00019726  0.83383332  0.12747846  1
  In  In5  1  0.01510747  0.83317205  0.62459187  1
  In  In6  1  0.32048229  0.17008680  0.12265848  1
  In  In7  1  0.32379634  0.18228062  0.63002576  1
  In  In8  1  0.33282509  0.49272684  0.11193002  1
  In  In9  1  0.32922528  0.50204110  0.62836445  1
  In  In10  1  0.32758352  0.82792437  0.11041609  1
  In  In11  1  0.31906470  0.83167827  0.62852596  1
  In  In12  1  0.67877357  0.15971957  0.13509555  1
  In  In13  1  0.67786957  0.16679993  0.63775977  1
  In  In14  1  0.65909565  0.50245604  0.12379125  1
  In  In15  1  0.67954186  0.48697340  0.63437839  1
  In  In16  1  0.66844592  0.83188335  0.11700038  1
  In  In17  1  0.66506156  0.83949937  0.63359554  1
  In  In18  1  0.15076243  0.01384816  0.38748395  1
  In  In19  1  0.15255423  0.00013886  0.87479062  1
  In  In20  1  0.14542080  0.35224375  0.39600162  1
  In  In21  1  0.17174064  0.33908766  0.85523218  1
  In  In22  1  0.15908989  0.67206872  0.37772767  1
  In  In23  1  0.17735709  0.65241115  0.88275310  1
  In  In24  1  0.52598391  0.00285587  0.37028862  1
  In  In25  1  0.50276892  -0.01443563  0.87835345  1
  In  In26  1  0.50281117  0.32371602  0.37355544  1
  In  In27  1  0.50003463  0.34249530  0.87386299  1
  In  In28  1  0.49765863  0.67424735  0.37335725  1
  In  In29  1  0.49878050  0.66357086  0.87319369  1
  In  In30  1  0.84685687  0.02266628  0.35841772  1
  In  In31  1  0.82945735  -0.00299603  0.86442698  1
  In  In32  1  0.84053400  0.33180419  0.37557898  1
  In  In33  1  0.83743422  0.32637535  0.85683212  1
  In  In34  1  0.83433570  0.64808748  0.37708208  1
  In  In35  1  0.83492350  0.68545830  0.87624898  1
  In  In36  1  -0.00678053  0.17183214  0.37756639  1
  In  In37  1  0.00350894  0.16664339  0.85162396  1
  In  In38  1  0.00600603  0.49446325  0.37422504  1
  In  In39  1  0.01135316  0.49960217  0.87666790  1
  In  In40  1  0.00323213  0.84601011  0.37101197  1
  In  In41  1  -0.00705657  0.83847347  0.88537634  1
  In  In42  1  0.32610286  0.16330357  0.38246338  1
  In  In43  1  0.32538173  0.18562813  0.86637798  1
  In  In44  1  0.30963924  0.49616852  0.37704807  1
  In  In45  1  0.32633799  0.49564295  0.87275717  1
  In  In46  1  0.33019822  0.82887833  0.37441674  1
  In  In47  1  0.34396916  0.81935351  0.88389644  1
  In  In48  1  0.68860207  0.18497017  0.35844935  1
  In  In49  1  0.67561365  0.16834948  0.86167335  1
  In  In50  1  0.68373682  0.49800465  0.37927008  1
  In  In51  1  0.65326182  0.48963814  0.86990712  1
  In  In52  1  0.66704118  0.86102920  0.36758957  1
  In  In53  1  0.66899109  0.83289977  0.87311325  1
  In  In54  1  0.16311047  -0.00788603  0.12512026  1
  In  In55  1  0.15589599  -0.00944988  0.62122577  1
  In  In56  1  0.15716778  0.33082149  0.12387559  1
  In  In57  1  0.16299933  0.32816980  0.62270742  1
  In  In58  1  0.16218817  0.66019149  0.12105705  1
  In  In59  1  0.17310116  0.67236153  0.62227892  1
  In  In60  1  0.51271846  -0.00377868  0.11956008  1
  In  In61  1  0.51112237  0.01020093  0.62964259  1
  In  In62  1  0.50494566  0.34659807  0.12468230  1
  In  In63  1  0.49773612  0.33467940  0.63494124  1
  In  In64  1  0.49875345  0.66075779  0.11256412  1
  In  In65  1  0.49794985  0.66920673  0.63470938  1
  In  In66  1  0.84269683  -0.00995355  0.13569658  1
  In  In67  1  0.83216750  0.01907595  0.63874786  1
  In  In68  1  0.83849303  0.32374200  0.13788166  1
  In  In69  1  0.83451494  0.32981396  0.62743450  1
  In  In70  1  0.83592947  0.67881023  0.12218602  1
  In  In71  1  0.83957225  0.65290955  0.62601365  1
  In  In72  1  0.33668737  -0.00297493  0.75220172  1
  In  In73  1  0.33712847  -0.00210577  0.24791834  1
  In  In74  1  0.49860705  0.83606648  0.49109024  1
  In  In75  1  0.33219500  0.33438541  0.24943708  1
  In  In76  1  0.16514919  0.17357419  -0.00666302  1
  In  In77  1  0.00100879  0.66685983  0.75228561  1
  In  In78  1  0.84122936  0.83305163  0.49723339  1
  In  In79  1  0.49373683  0.16720560  0.50723888  1
  In  In80  1  0.83184634  0.50341096  0.00104424  1
  In  In81  1  0.83575764  0.16208848  -0.00484793  1
  In  In82  1  0.50247922  0.16772681  -0.00807143  1
  In  In83  1  0.32933390  0.66679695  0.25135857  1
  In  In84  1  0.49930577  0.50274955  0.50954851  1
  In  In85  1  0.67398693  0.66445537  0.24360060  1
  Cu  Cu86  1  0.50468474  0.83107705  0.75721378  1
  Cu  Cu87  1  0.33238270  -0.00027987  -0.00205066  1
  Cu  Cu88  1  0.16431893  0.49619755  0.74748617  1
  Cu  Cu89  1  0.66455108  0.33410363  -0.00033771  1
  Cu  Cu90  1  0.32403887  -0.00480346  0.50231211  1
  Cu  Cu91  1  -0.00558688  0.33052239  0.50311441  1
  Cu  Cu92  1  0.50274652  0.50021749  0.24872371  1
  Cu  Cu93  1  0.17107939  0.82551216  0.75360527  1
  Cu  Cu94  1  0.50672223  0.16468862  0.24772914  1
  Cu  Cu95  1  0.15684653  0.17104562  0.26016089  1
  Cu  Cu96  1  -0.00393555  0.00375223  0.50082981  1
  Cu  Cu97  1  0.32764366  0.66673460  0.49927644  1
  Cu  Cu98  1  0.83264138  0.82846464  0.24850281  1
  Cu  Cu99  1  0.84396989  0.49171916  0.25551520  1
  Cu  Cu100  1  0.00611683  0.67044793  0.00299028  1
  Cu  Cu101  1  0.33276261  0.66359036  -0.00637821  1
  Cu  Cu102  1  0.49321760  0.50355885  0.75238363  1
  Cu  Cu103  1  0.15862308  0.84104728  0.25136095  1
  Cu  Cu104  1  0.00569211  0.65622689  0.50057000  1
  Cu  Cu105  1  0.67545343  0.01303789  0.50215549  1
  Cu  Cu106  1  -0.00238671  -0.00009357  0.00185370  1
  Cu  Cu107  1  0.83335705  0.84142617  0.75233039  1
  Cu  Cu108  1  0.50355326  0.16925195  0.75177607  1
  Cu  Cu109  1  0.82773840  0.50325693  0.74823146  1
  Cu  Cu110  1  0.67316978  0.33161049  0.50217193  1
  Cu  Cu111  1  0.67195569  0.66706843  0.50203366  1
  Cu  Cu112  1  0.66284197  0.66710717  -0.00497996  1
  Cu  Cu113  1  0.67452905  -0.01161596  -0.00380797  1
  Cu  Cu114  1  0.00143854  0.33533047  -0.00115847  1
  Se  Se115  1  0.07583314  0.08673948  0.05973819  1
  Se  Se116  1  0.08234544  0.08365629  0.55503395  1
  Se  Se117  1  0.08225449  0.41803127  0.05334881  1
  Se  Se118  1  0.08490711  0.41462133  0.55009106  1
  Se  Se119  1  0.08663723  0.75599080  0.05734844  1
  Se  Se120  1  0.08417425  0.74634856  0.55177933  1
  Se  Se121  1  0.40988893  0.08173211  0.05844029  1
  Se  Se122  1  0.40464265  0.07170709  0.56513028  1
  Se  Se123  1  0.42353909  0.41349578  0.05025145  1
  Se  Se124  1  0.40958406  0.40629864  0.56019869  1
  Se  Se125  1  0.41738898  0.74725601  0.04647074  1
  Se  Se126  1  0.41295431  0.74668630  0.55662299  1
  Se  Se127  1  0.74927299  0.07223036  0.05783548  1
  Se  Se128  1  0.75468054  0.09194798  0.56099368  1
  Se  Se129  1  0.74987397  0.40566274  0.06244077  1
  Se  Se130  1  0.75469941  0.41704867  0.55531585  1
  Se  Se131  1  0.74938451  0.74669563  0.04864848  1
  Se  Se132  1  0.74809759  0.75083614  0.56233940  1
  Se  Se133  1  0.25737221  0.26549437  0.05160369  1
  Se  Se134  1  0.24550193  0.24611897  0.55233312  1
  Se  Se135  1  0.25005901  0.58451216  0.05176483  1
  Se  Se136  1  0.24980028  0.58176866  0.55489493  1
  Se  Se137  1  0.24428708  0.92091821  0.05034145  1
  Se  Se138  1  0.24381656  0.90791480  0.55349601  1
  Se  Se139  1  0.59340471  0.24644238  0.06089978  1
  Se  Se140  1  0.58908808  0.25667307  0.56301793  1
  Se  Se141  1  0.58471052  0.57743112  0.04701698  1
  Se  Se142  1  0.59327485  0.59156309  0.56577296  1
  Se  Se143  1  0.58270903  0.91092426  0.04625948  1
  Se  Se144  1  0.59090892  0.92613163  0.55370049  1
  Se  Se145  1  0.92467680  0.25139282  0.05838713  1
  Se  Se146  1  0.91388975  0.24587936  0.55722085  1
  Se  Se147  1  0.92626898  0.58562010  0.06218612  1
  Se  Se148  1  0.91528824  0.57825081  0.55063571  1
  Se  Se149  1  0.91598077  0.91682054  0.05703675  1
  Se  Se150  1  0.92064013  0.92226096  0.56430200  1
  Se  Se151  1  0.07856927  0.24392227  0.45138507  1
  Se  Se152  1  0.07188633  0.25522050  0.93152975  1
  Se  Se153  1  0.09007110  0.57653563  0.44523827  1
  Se  Se154  1  0.08344191  0.58057385  0.95101918  1
  Se  Se155  1  0.07936105  0.91462775  0.45111807  1
  Se  Se156  1  0.08470888  0.91753060  0.95117531  1
  Se  Se157  1  0.40803750  0.26020354  0.44572682  1
  Se  Se158  1  0.40625484  0.26034657  0.94294705  1
  Se  Se159  1  0.41141271  0.58842283  0.44010042  1
  Se  Se160  1  0.41378399  0.57911548  0.93952834  1
  Se  Se161  1  0.41080185  0.93330052  0.43499408  1
  Se  Se162  1  0.41872324  0.91384153  0.95038548  1
  Se  Se163  1  0.75301830  0.24926769  0.44503107  1
  Se  Se164  1  0.74718907  0.25907657  0.93920432  1
  Se  Se165  1  0.75481250  0.57855498  0.45480621  1
  Se  Se166  1  0.74464605  0.58743457  0.93487389  1
  Se  Se167  1  0.75360841  0.93044617  0.44248217  1
  Se  Se168  1  0.76037406  0.91262696  0.93988323  1
  Se  Se169  1  0.24442881  0.08671104  0.45395653  1
  Se  Se170  1  0.25870906  0.08089600  0.93569909  1
  Se  Se171  1  0.25723016  0.40889580  0.45375321  1
  Se  Se172  1  0.23433783  0.41472118  0.93580204  1
  Se  Se173  1  0.24810068  0.75285056  0.44512805  1
  Se  Se174  1  0.24440338  0.75165733  0.94865231  1
  Se  Se175  1  0.59289234  0.09316532  0.44364454  1
  Se  Se176  1  0.60015468  0.07775317  0.93809072  1
  Se  Se177  1  0.58750851  0.41158599  0.44451299  1
  Se  Se178  1  0.58015434  0.41758417  0.94965745  1
  Se  Se179  1  0.59993138  0.74733041  0.43772583  1
  Se  Se180  1  0.58197671  0.75109471  0.93995850  1
  Se  Se181  1  0.91088809  0.08380541  0.44629066  1
  Se  Se182  1  0.92944249  0.07989670  0.93379512  1
  Se  Se183  1  0.91852365  0.41749017  0.44514612  1
  Se  Se184  1  0.91451576  0.40802195  0.93838582  1
  Se  Se185  1  0.92776057  0.73870630  0.43846271  1
  Se  Se186  1  0.91593343  0.75075618  0.95434283  1
  Se  Se187  1  0.24428906  0.24935793  0.31406520  1
  Se  Se188  1  0.23349504  0.23580359  0.79148024  1
  Se  Se189  1  0.23336334  0.57698162  0.30311780  1
  Se  Se190  1  0.24645597  0.58128011  0.80130850  1
  Se  Se191  1  0.24065734  0.91955958  0.31231236  1
  Se  Se192  1  0.25013984  0.90706702  0.81555194  1
  Se  Se193  1  0.58472054  0.25553902  0.29855630  1
  Se  Se194  1  0.58208344  0.25578585  0.80663547  1
  Se  Se195  1  0.58199489  0.57936957  0.31106785  1
  Se  Se196  1  0.58334361  0.58433220  0.80243634  1
  Se  Se197  1  0.56541893  0.90347857  0.29578280  1
  Se  Se198  1  0.58830535  0.92025540  0.80338434  1
  Se  Se199  1  0.90262805  0.23650443  0.30458338  1
  Se  Se200  1  0.91342417  0.24385286  0.78779696  1
  Se  Se201  1  0.92277642  0.58161101  0.30535540  1
  Se  Se202  1  0.90809338  0.57864257  0.81310465  1
  Se  Se203  1  0.91392916  0.91662499  0.30026494  1
  Se  Se204  1  0.92610529  0.91485879  0.80512776  1
  Se  Se205  1  0.07519936  0.08228194  0.30852545  1
  Se  Se206  1  0.09535912  0.08027197  0.79509494  1
  Se  Se207  1  0.08690628  0.40884697  0.30639941  1
  Se  Se208  1  0.07196292  0.41830552  0.79695270  1
  Se  Se209  1  0.08104960  0.75372184  0.30581501  1
  Se  Se210  1  0.08866807  0.75098190  0.81754713  1
  Se  Se211  1  0.42404495  0.09198584  0.31066086  1
  Se  Se212  1  0.42535886  0.08913231  0.81457753  1
  Se  Se213  1  0.42056078  0.42729409  0.31290132  1
  Se  Se214  1  0.41152771  0.41448642  0.80271503  1
  Se  Se215  1  0.42554897  0.76337806  0.30067138  1
  Se  Se216  1  0.41501670  0.74780416  0.80347910  1
  Se  Se217  1  0.71584081  0.05341971  0.31410109  1
  Se  Se218  1  0.76604352  0.09413216  0.79701780  1
  Se  Se219  1  0.75241409  0.41462247  0.30591684  1
  Se  Se220  1  0.74697413  0.41794182  0.80239910  1
  Se  Se221  1  0.75472159  0.75317148  0.31424355  1
  Se  Se222  1  0.75126025  0.75181497  0.80060086  1
  Se  Se223  1  0.23732297  0.09296995  0.19705587  1
  Se  Se224  1  0.24675549  0.07780167  0.68805437  1
  Se  Se225  1  0.24447755  0.42435151  0.18898415  1
  Se  Se226  1  0.24719215  0.41356721  0.69263601  1
  Se  Se227  1  0.24283655  0.76270387  0.19214816  1
  Se  Se228  1  0.25330613  0.74191334  0.70108321  1
  Se  Se229  1  0.58408746  0.07695337  0.19444979  1
  Se  Se230  1  0.58935791  0.08355811  0.70378986  1
  Se  Se231  1  0.58927880  0.41763909  0.19883898  1
  Se  Se232  1  0.57931813  0.42150354  0.69963604  1
  Se  Se233  1  0.57694437  0.74731116  0.18575334  1
  Se  Se234  1  0.58642990  0.75045277  0.69946070  1
  Se  Se235  1  0.89418848  0.09551925  0.20192906  1
  Se  Se236  1  0.94521953  0.06764206  0.69666513  1
  Se  Se237  1  0.92577181  0.40996331  0.19942873  1
  Se  Se238  1  0.91316555  0.42149662  0.69571150  1
  Se  Se239  1  0.91908731  0.74745761  0.19717749  1
  Se  Se240  1  0.91152747  0.75852918  0.69067823  1
  Se  Se241  1  0.08177314  0.25355654  0.19930522  1
  Se  Se242  1  0.07007435  0.26644268  0.69547002  1
  Se  Se243  1  0.07881094  0.59692191  0.19777227  1
  Se  Se244  1  0.08429168  0.57834815  0.68692147  1
  Se  Se245  1  0.07584926  0.92507025  0.19791874  1
  Se  Se246  1  0.08907511  0.90979829  0.70105227  1
  Se  Se247  1  0.42308144  0.24201340  0.18763600  1
  Se  Se248  1  0.41507137  0.24883593  0.70121147  1
  Se  Se249  1  0.41961374  0.57635144  0.18928467  1
  Se  Se250  1  0.41056313  0.58589423  0.69760740  1
  Se  Se251  1  0.41702732  0.90936734  0.18127963  1
  Se  Se252  1  0.42769862  0.90718780  0.68908940  1
  Se  Se253  1  0.74625272  0.25160111  0.20292858  1
  Se  Se254  1  0.73411128  0.27400739  0.69811799  1
  Se  Se255  1  0.76679531  0.57024221  0.18885397  1
  Se  Se256  1  0.74639250  0.59074533  0.69771821  1
  Se  Se257  1  0.74618442  0.90678484  0.19315560  1
  Se  Se258  1  0.74958936  0.92370914  0.69834438  1
