# generated using pymatgen
data_In86Cu29Se144
_symmetry_space_group_name_H-M   'P 1'
_cell_length_a   17.57191967
_cell_length_b   17.57540277
_cell_length_c   23.43954728
_cell_angle_alpha   89.97383767
_cell_angle_beta   89.99662721
_cell_angle_gamma   89.99903138
_symmetry_Int_Tables_number   1
_chemical_formula_structural   In86Cu29Se144
_chemical_formula_sum   'In86 Cu29 Se144'
_cell_volume   7238.91819675
_cell_formula_units_Z   1
loop_
 _symmetry_equiv_pos_site_id
 _symmetry_equiv_pos_as_xyz
  1  'x, y, z'
loop_
 _atom_site_type_symbol
 _atom_site_label
 _atom_site_symmetry_multiplicity
 _atom_site_fract_x
 _atom_site_fract_y
 _atom_site_fract_z
 _atom_site_occupancy
  In  In0  1  -0.00590543  0.18396859  0.11985338  1
  In  In1  1  -0.00826438  0.16271809  0.62766439  1
  In  In2  1  0.01434447  0.51368760  0.11010802  1
  In  In3  1  0.00796231  0.49180357  0.62483140  1
  In  In4  1  -0.00888743  0.82248025  0.11621186  1
  In  In5  1  0.00894267  0.84049152  0.62737892  1
  In  In6  1  0.33744982  0.15910465  0.11797815  1
  In  In7  1  0.33810918  0.16532911  0.62486587  1
  In  In8  1  0.33775883  0.51532459  0.12686816  1
  In  In9  1  0.33784684  0.49984320  0.62493665  1
  In  In10  1  0.32131150  0.82873644  0.11843557  1
  In  In11  1  0.34333406  0.82313065  0.62827470  1
  In  In12  1  0.67508897  0.18717909  0.10388339  1
  In  In13  1  0.66182802  0.16535092  0.62578799  1
  In  In14  1  0.67627940  0.50105194  0.12155806  1
  In  In15  1  0.65268762  0.51220210  0.63816025  1
  In  In16  1  0.66624089  0.82030115  0.12214995  1
  In  In17  1  0.64845912  0.84777916  0.63521167  1
  In  In18  1  0.18047619  -0.00063403  0.38269409  1
  In  In19  1  0.15879392  -0.00282491  0.86438454  1
  In  In20  1  0.17089226  0.32949894  0.38277872  1
  In  In21  1  0.18065827  0.33965192  0.87864179  1
  In  In22  1  0.16664920  0.65781509  0.36676973  1
  In  In23  1  0.17510714  0.65770244  0.88132910  1
  In  In24  1  0.49076205  0.00241053  0.39403656  1
  In  In25  1  0.51220125  0.01098940  0.85977337  1
  In  In26  1  0.50118739  0.35306815  0.39528597  1
  In  In27  1  0.48748567  0.32065126  0.86825920  1
  In  In28  1  0.49956813  0.66531598  0.37894426  1
  In  In29  1  0.49881955  0.66570764  0.86468035  1
  In  In30  1  0.83535263  0.01294924  0.37497739  1
  In  In31  1  0.83158441  -0.00219706  0.87352434  1
  In  In32  1  0.82250006  0.33021626  0.37877557  1
  In  In33  1  0.81422809  0.34596483  0.89197830  1
  In  In34  1  0.83053658  0.66154477  0.36339601  1
  In  In35  1  0.83129594  0.66648437  0.88276980  1
  In  In36  1  -0.00572769  0.17320821  0.38515238  1
  In  In37  1  -0.00308968  0.15583696  0.87207427  1
  In  In38  1  0.00451044  0.50820049  0.36518906  1
  In  In39  1  0.00027270  0.49052525  0.88928851  1
  In  In40  1  0.01263158  0.82227530  0.37208003  1
  In  In41  1  -0.00285315  0.84195922  0.88221578  1
  In  In42  1  0.33387460  0.16295886  0.39451490  1
  In  In43  1  0.34322031  0.17869319  0.86167723  1
  In  In44  1  0.32409135  0.51616489  0.39773799  1
  In  In45  1  0.32586084  0.49264104  0.86826047  1
  In  In46  1  0.34405655  0.82583904  0.38507726  1
  In  In47  1  0.32570049  0.82696071  0.86585364  1
  In  In48  1  0.65988616  0.19132895  0.40002173  1
  In  In49  1  0.66758124  0.16602780  0.87445746  1
  In  In50  1  0.65201183  0.50471040  0.38181950  1
  In  In51  1  0.66596343  0.50142713  0.86991425  1
  In  In52  1  0.66320127  0.82073102  0.37533936  1
  In  In53  1  0.67293957  0.83862948  0.86740272  1
  In  In54  1  0.18674623  -0.00439395  0.11916203  1
  In  In55  1  0.15819590  0.00747133  0.63617031  1
  In  In56  1  0.16645713  0.35030403  0.11936089  1
  In  In57  1  0.18100580  0.34777533  0.61921924  1
  In  In58  1  0.16141297  0.66121647  0.12503078  1
  In  In59  1  0.19357712  0.66722822  0.61782183  1
  In  In60  1  0.49180020  0.01263105  0.12169448  1
  In  In61  1  0.49391214  0.00332211  0.62330975  1
  In  In62  1  0.51295719  0.33514858  0.11532814  1
  In  In63  1  0.50721450  0.32802076  0.62749756  1
  In  In64  1  0.50352908  0.66683001  0.13477687  1
  In  In65  1  0.49484040  0.66787024  0.62146055  1
  In  In66  1  0.84250860  0.00528744  0.11433344  1
  In  In67  1  0.81755054  0.01402473  0.64194974  1
  In  In68  1  0.85022699  0.35326698  0.08254588  1
  In  In69  1  0.82909888  0.31833194  0.62635404  1
  In  In70  1  0.83375641  0.66951411  0.12125396  1
  In  In71  1  0.82390844  0.65304474  0.62499690  1
  In  In72  1  0.66793267  0.33770005  0.24793901  1
  In  In73  1  0.82892497  0.83873294  0.50103416  1
  In  In74  1  0.16366157  0.16747455  -0.00477352  1
  In  In75  1  0.17019190  0.83761749  0.49970175  1
  In  In76  1  -0.00172970  0.67133774  0.75474831  1
  In  In77  1  0.33890510  -0.01269602  0.25908245  1
  In  In78  1  0.50276044  0.84008211  -0.00569112  1
  In  In79  1  0.66756476  -0.00060981  0.25215990  1
  In  In80  1  -0.00191258  0.32880506  0.75693412  1
  In  In81  1  0.33845349  0.33826071  0.24610560  1
  In  In82  1  0.83298898  0.49003449  0.49734547  1
  In  In83  1  0.49263176  0.49076770  -0.00538755  1
  In  In84  1  -0.00096064  0.34764130  0.24151856  1
  In  In85  1  0.00215874  -0.01029513  0.25090247  1
  Cu  Cu86  1  0.50127637  0.82790774  0.25496216  1
  Cu  Cu87  1  0.49854417  0.82944470  0.74599253  1
  Cu  Cu88  1  0.66785073  -0.00060203  -0.00970655  1
  Cu  Cu89  1  0.16305516  0.81721812  0.24363288  1
  Cu  Cu90  1  0.83313217  0.82827459  0.75610425  1
  Cu  Cu91  1  0.66971583  0.66396973  -0.00138520  1
  Cu  Cu92  1  0.83251357  0.82416801  0.24397046  1
  Cu  Cu93  1  0.65680218  0.67355839  0.50386059  1
  Cu  Cu94  1  0.16648241  0.16654503  0.25690343  1
  Cu  Cu95  1  0.00797945  -0.00580585  -0.00404167  1
  Cu  Cu96  1  0.17081268  0.50888894  0.74741252  1
  Cu  Cu97  1  0.49769177  0.50997648  0.25904876  1
  Cu  Cu98  1  -0.00748370  0.00973807  0.50674683  1
  Cu  Cu99  1  0.50791072  0.16756839  0.25274338  1
  Cu  Cu100  1  0.82799214  0.49691481  0.75527208  1
  Cu  Cu101  1  0.66490117  0.00337517  0.51060190  1
  Cu  Cu102  1  0.34157263  0.32916652  0.50969073  1
  Cu  Cu103  1  0.16862672  0.83614478  0.74815076  1
  Cu  Cu104  1  0.50162636  0.16289724  0.74344628  1
  Cu  Cu105  1  0.33698908  0.00298571  -0.01092752  1
  Cu  Cu106  1  0.32746549  0.66930413  -0.00044091  1
  Cu  Cu107  1  0.83140212  0.50590170  0.24056334  1
  Cu  Cu108  1  0.49900542  0.49820731  0.74834146  1
  Cu  Cu109  1  0.82670517  0.17314105  0.24666029  1
  Cu  Cu110  1  0.00526675  0.66249197  0.49255274  1
  Cu  Cu111  1  0.00179128  0.66962394  -0.00102804  1
  Cu  Cu112  1  0.82716989  0.16402841  0.75415099  1
  Cu  Cu113  1  0.00967294  0.33047428  0.50285321  1
  Cu  Cu114  1  0.17024265  0.17586260  0.74841449  1
  Se  Se115  1  0.07922690  0.07616420  0.06288140  1
  Se  Se116  1  0.08194134  0.08572092  0.55999900  1
  Se  Se117  1  0.05460289  0.39074670  0.05705470  1
  Se  Se118  1  0.08891726  0.42194286  0.55023173  1
  Se  Se119  1  0.08855757  0.74978902  0.05336708  1
  Se  Se120  1  0.07810148  0.74268096  0.55857741  1
  Se  Se121  1  0.41857963  0.08573893  0.04305443  1
  Se  Se122  1  0.42716071  0.09585066  0.55307457  1
  Se  Se123  1  0.40350330  0.40925320  0.06148010  1
  Se  Se124  1  0.42471023  0.41526701  0.55965239  1
  Se  Se125  1  0.41936006  0.74376506  0.05588700  1
  Se  Se126  1  0.40294971  0.73716303  0.55146734  1
  Se  Se127  1  0.74785514  0.07976155  0.05058184  1
  Se  Se128  1  0.75416327  0.08453775  0.55839019  1
  Se  Se129  1  0.71463647  0.39317013  0.05463436  1
  Se  Se130  1  0.74821654  0.42247791  0.57238559  1
  Se  Se131  1  0.75150472  0.75184542  0.04917352  1
  Se  Se132  1  0.74096947  0.75024198  0.56387185  1
  Se  Se133  1  0.25342182  0.25549461  0.05880777  1
  Se  Se134  1  0.24985412  0.24771068  0.55663348  1
  Se  Se135  1  0.24956534  0.58290826  0.05403817  1
  Se  Se136  1  0.24322976  0.56359836  0.55195670  1
  Se  Se137  1  0.25785635  0.91678505  0.04303031  1
  Se  Se138  1  0.24821557  0.91913759  0.57115754  1
  Se  Se139  1  0.56018381  0.23355457  0.04587621  1
  Se  Se140  1  0.58071184  0.24353532  0.55488649  1
  Se  Se141  1  0.58087264  0.58826254  0.05511789  1
  Se  Se142  1  0.58287795  0.58137204  0.55562874  1
  Se  Se143  1  0.59082154  0.92707118  0.06009953  1
  Se  Se144  1  0.57735289  0.91577698  0.55393354  1
  Se  Se145  1  0.90240993  0.22777938  0.04220050  1
  Se  Se146  1  0.92176020  0.25315757  0.55618423  1
  Se  Se147  1  0.91403068  0.58691970  0.05034338  1
  Se  Se148  1  0.92499491  0.58659092  0.55573601  1
  Se  Se149  1  0.91826571  0.91419964  0.04879938  1
  Se  Se150  1  0.91477952  0.92627442  0.56610333  1
  Se  Se151  1  0.09012740  0.24294591  0.45027269  1
  Se  Se152  1  0.07558759  0.25677878  0.93402364  1
  Se  Se153  1  0.08647490  0.57840424  0.44060789  1
  Se  Se154  1  0.08482847  0.58218027  0.94901017  1
  Se  Se155  1  0.06854478  0.92630137  0.44382906  1
  Se  Se156  1  0.09626240  0.91534780  0.94501171  1
  Se  Se157  1  0.42475412  0.25132192  0.45148916  1
  Se  Se158  1  0.39966958  0.25810516  0.94359652  1
  Se  Se159  1  0.45160893  0.55327755  0.44259053  1
  Se  Se160  1  0.40979656  0.59189124  0.93837240  1
  Se  Se161  1  0.38767996  0.93312726  0.45104468  1
  Se  Se162  1  0.41637985  0.92308715  0.92832552  1
  Se  Se163  1  0.77067011  0.24617719  0.45878553  1
  Se  Se164  1  0.75907426  0.23175789  0.94641091  1
  Se  Se165  1  0.74601720  0.59642006  0.44565607  1
  Se  Se166  1  0.74788102  0.57569212  0.94556902  1
  Se  Se167  1  0.73859333  0.92877406  0.43894397  1
  Se  Se168  1  0.75104820  0.91142803  0.94367103  1
  Se  Se169  1  0.24414569  0.08313449  0.45733511  1
  Se  Se170  1  0.25307666  0.08326658  0.93091196  1
  Se  Se171  1  0.25591272  0.40725277  0.45220715  1
  Se  Se172  1  0.24461125  0.43202904  0.94843894  1
  Se  Se173  1  0.25117982  0.73704190  0.44366806  1
  Se  Se174  1  0.24931611  0.75575001  0.94522789  1
  Se  Se175  1  0.58458656  0.08558776  0.45245416  1
  Se  Se176  1  0.57980688  0.08137803  0.94202040  1
  Se  Se177  1  0.62732833  0.38954815  0.44616889  1
  Se  Se178  1  0.58307330  0.40594681  0.93411259  1
  Se  Se179  1  0.57535773  0.75718139  0.44931985  1
  Se  Se180  1  0.58867897  0.74254885  0.93831563  1
  Se  Se181  1  0.90876637  0.08957341  0.45126101  1
  Se  Se182  1  0.92069557  0.07430952  0.94409294  1
  Se  Se183  1  0.93169844  0.40812314  0.43602107  1
  Se  Se184  1  0.90920581  0.41796868  0.95636763  1
  Se  Se185  1  0.91817261  0.74437140  0.44066994  1
  Se  Se186  1  0.91670964  0.75199617  0.94682940  1
  Se  Se187  1  0.25574628  0.24150902  0.31187614  1
  Se  Se188  1  0.24974010  0.26244432  0.80046580  1
  Se  Se189  1  0.26302525  0.57658447  0.30941646  1
  Se  Se190  1  0.25395290  0.59030059  0.80244483  1
  Se  Se191  1  0.23875734  0.89700107  0.30994840  1
  Se  Se192  1  0.25308623  0.92155324  0.79908656  1
  Se  Se193  1  0.57872691  0.25299282  0.31428971  1
  Se  Se194  1  0.58065574  0.24366102  0.80372517  1
  Se  Se195  1  0.58965314  0.59082567  0.30649470  1
  Se  Se196  1  0.58426977  0.58277300  0.80009461  1
  Se  Se197  1  0.57108438  0.91761261  0.31469773  1
  Se  Se198  1  0.58438557  0.91180871  0.79827304  1
  Se  Se199  1  0.91216402  0.25145707  0.30569276  1
  Se  Se200  1  0.90142337  0.24810125  0.81591968  1
  Se  Se201  1  0.91797400  0.58422577  0.29597170  1
  Se  Se202  1  0.91566990  0.57174681  0.81291677  1
  Se  Se203  1  0.90555869  0.90375698  0.31190017  1
  Se  Se204  1  0.91760268  0.91322347  0.80587184  1
  Se  Se205  1  0.08662370  0.08409850  0.31424336  1
  Se  Se206  1  0.08413220  0.09068209  0.79791809  1
  Se  Se207  1  0.09873661  0.41759268  0.30653849  1
  Se  Se208  1  0.08847683  0.42909455  0.80759430  1
  Se  Se209  1  0.07823248  0.73731028  0.29790967  1
  Se  Se210  1  0.09124465  0.75708105  0.81359745  1
  Se  Se211  1  0.42360450  0.09039178  0.31171419  1
  Se  Se212  1  0.41369486  0.08198151  0.79607925  1
  Se  Se213  1  0.42233217  0.42145313  0.31460182  1
  Se  Se214  1  0.41498607  0.41609049  0.80192381  1
  Se  Se215  1  0.41578181  0.74796334  0.30843929  1
  Se  Se216  1  0.41340168  0.74740975  0.79893425  1
  Se  Se217  1  0.74605610  0.10124707  0.31203381  1
  Se  Se218  1  0.74471371  0.07660033  0.80481663  1
  Se  Se219  1  0.75663783  0.43070220  0.30905136  1
  Se  Se220  1  0.74663566  0.40870148  0.80545219  1
  Se  Se221  1  0.74520877  0.74916268  0.30078140  1
  Se  Se222  1  0.75221884  0.74130112  0.80734516  1
  Se  Se223  1  0.25106656  0.08678441  0.19763407  1
  Se  Se224  1  0.25153085  0.08877059  0.69742720  1
  Se  Se225  1  0.24348949  0.43046775  0.19418720  1
  Se  Se226  1  0.25284565  0.42064717  0.69808674  1
  Se  Se227  1  0.25459993  0.74237040  0.19138104  1
  Se  Se228  1  0.25097134  0.74899596  0.69813722  1
  Se  Se229  1  0.58559616  0.09218608  0.18789475  1
  Se  Se230  1  0.58518527  0.07585616  0.69406759  1
  Se  Se231  1  0.57194847  0.43054383  0.19252162  1
  Se  Se232  1  0.58555423  0.41114604  0.70150646  1
  Se  Se233  1  0.58867190  0.75109910  0.20029372  1
  Se  Se234  1  0.58187101  0.74280949  0.69438850  1
  Se  Se235  1  0.91533634  0.09150848  0.19416131  1
  Se  Se236  1  0.91889403  0.08410151  0.70428013  1
  Se  Se237  1  0.90036717  0.42088231  0.17828184  1
  Se  Se238  1  0.91001404  0.42129366  0.69333008  1
  Se  Se239  1  0.92100105  0.74438750  0.19387016  1
  Se  Se240  1  0.90786780  0.75401412  0.68694190  1
  Se  Se241  1  0.09409031  0.24596340  0.19202896  1
  Se  Se242  1  0.08873454  0.25494382  0.68748742  1
  Se  Se243  1  0.08325090  0.57418168  0.19359307  1
  Se  Se244  1  0.08811278  0.58760673  0.68874986  1
  Se  Se245  1  0.09415125  0.90995381  0.18489440  1
  Se  Se246  1  0.07729339  0.91937216  0.70413822  1
  Se  Se247  1  0.42717784  0.24218113  0.18853083  1
  Se  Se248  1  0.41651060  0.25083207  0.69568743  1
  Se  Se249  1  0.41500723  0.59047623  0.20239689  1
  Se  Se250  1  0.41802151  0.58342629  0.69491770  1
  Se  Se251  1  0.42537892  0.90569211  0.18766694  1
  Se  Se252  1  0.41667052  0.91643246  0.69482699  1
  Se  Se253  1  0.75821121  0.25581429  0.18271610  1
  Se  Se254  1  0.74555329  0.24624495  0.69864511  1
  Se  Se255  1  0.74549295  0.59056746  0.19127808  1
  Se  Se256  1  0.74829551  0.58670003  0.70460518  1
  Se  Se257  1  0.75892030  0.91447046  0.18682064  1
  Se  Se258  1  0.74883820  0.91119639  0.70196702  1
