# generated using pymatgen
data_In86Cu29Se144
_symmetry_space_group_name_H-M   'P 1'
_cell_length_a   17.63757893
_cell_length_b   17.63784838
_cell_length_c   23.49621666
_cell_angle_alpha   90.03465933
_cell_angle_beta   89.97063706
_cell_angle_gamma   90.01530687
_symmetry_Int_Tables_number   1
_chemical_formula_structural   In86Cu29Se144
_chemical_formula_sum   'In86 Cu29 Se144'
_cell_volume   7309.41064806
_cell_formula_units_Z   1
loop_
 _symmetry_equiv_pos_site_id
 _symmetry_equiv_pos_as_xyz
  1  'x, y, z'
loop_
 _atom_site_type_symbol
 _atom_site_label
 _atom_site_symmetry_multiplicity
 _atom_site_fract_x
 _atom_site_fract_y
 _atom_site_fract_z
 _atom_site_occupancy
  In  In0  1  0.01789155  0.16440744  0.12704812  1
  In  In1  1  0.02057438  0.16479018  0.64143130  1
  In  In2  1  -0.01175730  0.49727987  0.11829253  1
  In  In3  1  0.00361296  0.49889015  0.63011008  1
  In  In4  1  0.01433105  0.84399186  0.12142169  1
  In  In5  1  0.00139698  0.83021173  0.63680845  1
  In  In6  1  0.33278575  0.17733424  0.11444811  1
  In  In7  1  0.32827237  0.16744674  0.63181254  1
  In  In8  1  0.33790317  0.49177143  0.12975620  1
  In  In9  1  0.32196954  0.49678882  0.62981851  1
  In  In10  1  0.33392445  0.82280221  0.12360242  1
  In  In11  1  0.34674985  0.81920608  0.63001979  1
  In  In12  1  0.65848316  0.17843938  0.11929010  1
  In  In13  1  0.66534967  0.18291831  0.62970074  1
  In  In14  1  0.66608481  0.50168091  0.11651290  1
  In  In15  1  0.67631000  0.49430151  0.62959022  1
  In  In16  1  0.66079265  0.84238803  0.12514662  1
  In  In17  1  0.65411768  0.82898222  0.62488986  1
  In  In18  1  0.17610243  0.01601897  0.37784750  1
  In  In19  1  0.16675711  0.00466263  0.86419834  1
  In  In20  1  0.15995010  0.33728904  0.37348979  1
  In  In21  1  0.16413014  0.32689783  0.85857518  1
  In  In22  1  0.16742399  0.64896472  0.38055824  1
  In  In23  1  0.16674058  0.65863239  0.85665587  1
  In  In24  1  0.48744386  0.01197894  0.38503754  1
  In  In25  1  0.47909229  0.01363262  0.88436654  1
  In  In26  1  0.48071132  0.34150229  0.37776965  1
  In  In27  1  0.49850157  0.32986844  0.86893390  1
  In  In28  1  0.50173590  0.67068055  0.37821688  1
  In  In29  1  0.49925698  0.66145617  0.87262204  1
  In  In30  1  0.84360767  -0.00618576  0.37454388  1
  In  In31  1  0.84780174  -0.00117448  0.87085416  1
  In  In32  1  0.85229498  0.32919765  0.37842310  1
  In  In33  1  0.83859194  0.34429632  0.87072042  1
  In  In34  1  0.82934911  0.66473705  0.38036576  1
  In  In35  1  0.81942536  0.65786744  0.86322403  1
  In  In36  1  0.01122785  0.17753456  0.36997406  1
  In  In37  1  0.00630927  0.16911871  0.86716720  1
  In  In38  1  0.01757731  0.48669064  0.39268137  1
  In  In39  1  0.00396986  0.48335095  0.86188514  1
  In  In40  1  -0.00399714  0.83700618  0.37758526  1
  In  In41  1  -0.00096715  0.84087924  0.86147511  1
  In  In42  1  0.30075528  0.20573492  0.40740359  1
  In  In43  1  0.32829765  0.16664927  0.86351332  1
  In  In44  1  0.32321416  0.49080773  0.36544478  1
  In  In45  1  0.34082726  0.50332593  0.86454780  1
  In  In46  1  0.34622099  0.83029409  0.38066626  1
  In  In47  1  0.33876559  0.83694863  0.86848590  1
  In  In48  1  0.65862054  0.16244843  0.37458436  1
  In  In49  1  0.64639520  0.16469505  0.87524251  1
  In  In50  1  0.66790132  0.50824410  0.38152125  1
  In  In51  1  0.66286949  0.49803984  0.87316779  1
  In  In52  1  0.66416853  0.82486240  0.37910717  1
  In  In53  1  0.66718390  0.81584147  0.87058364  1
  In  In54  1  0.15545067  0.01324714  0.12570531  1
  In  In55  1  0.16689622  0.01668193  0.63452100  1
  In  In56  1  0.17863020  0.32229476  0.12855168  1
  In  In57  1  0.16774096  0.33070986  0.63626802  1
  In  In58  1  0.17213698  0.67655174  0.12404490  1
  In  In59  1  0.18345463  0.63825667  0.64694548  1
  In  In60  1  0.49767381  0.00122365  0.11450586  1
  In  In61  1  0.49260400  -0.01042314  0.62390627  1
  In  In62  1  0.48016652  0.33011011  0.10944550  1
  In  In63  1  0.49842603  0.33377956  0.62842255  1
  In  In64  1  0.48944881  0.65200544  0.11300158  1
  In  In65  1  0.48783550  0.67511322  0.63022164  1
  In  In66  1  0.84920850  0.01240820  0.11995031  1
  In  In67  1  0.84105758  0.00754715  0.63009148  1
  In  In68  1  0.83513772  0.34417664  0.12319158  1
  In  In69  1  0.83274218  0.34644699  0.63104266  1
  In  In70  1  0.84191480  0.65949932  0.11982429  1
  In  In71  1  0.85947752  0.65186275  0.64604646  1
  In  In72  1  0.66909789  0.66955748  0.25453730  1
  In  In73  1  0.17369650  0.48976876  -0.01340531  1
  In  In74  1  0.00249539  0.66361137  0.25226832  1
  In  In75  1  0.82851109  0.17161059  -0.00278896  1
  In  In76  1  0.17368374  0.83125163  0.50801313  1
  In  In77  1  0.83443296  0.17502187  0.50606171  1
  In  In78  1  0.66505953  -0.00182137  0.76026259  1
  In  In79  1  0.66818797  -0.00218003  0.25066098  1
  In  In80  1  0.66859038  0.33885449  0.24517088  1
  In  In81  1  0.17013286  0.83566116  -0.00997690  1
  In  In82  1  0.48702495  0.50153476  0.50961228  1
  In  In83  1  0.82871609  0.82849746  0.50246368  1
  In  In84  1  0.82929547  0.82501703  -0.00318063  1
  In  In85  1  0.33667843  0.00263384  0.25610036  1
  Cu  Cu86  1  0.65945656  -0.00656118  -0.00362433  1
  Cu  Cu87  1  0.16541831  0.17166324  0.25415761  1
  Cu  Cu88  1  0.00411751  0.65688176  0.51318444  1
  Cu  Cu89  1  0.66328671  0.66090048  -0.00798174  1
  Cu  Cu90  1  0.83690146  0.17757880  0.74993074  1
  Cu  Cu91  1  0.00521430  0.00603487  0.50306761  1
  Cu  Cu92  1  0.32562773  0.00025108  -0.00588827  1
  Cu  Cu93  1  0.49151848  0.49792983  0.24405924  1
  Cu  Cu94  1  0.00541341  0.33627399  0.50828262  1
  Cu  Cu95  1  0.66981076  0.66305698  0.50409196  1
  Cu  Cu96  1  0.50111625  0.83217421  0.25440088  1
  Cu  Cu97  1  0.50849199  0.49639376  0.74780815  1
  Cu  Cu98  1  0.49826238  0.83098858  0.75121585  1
  Cu  Cu99  1  0.33564531  0.00351018  0.50748746  1
  Cu  Cu100  1  0.16822001  0.83462037  0.24673106  1
  Cu  Cu101  1  0.65812696  0.00119581  0.50559416  1
  Cu  Cu102  1  0.49501557  0.17187812  0.24592126  1
  Cu  Cu103  1  0.84041117  0.49577915  0.25084988  1
  Cu  Cu104  1  0.17169904  0.83689109  0.74578997  1
  Cu  Cu105  1  0.84786666  0.84304463  0.24831550  1
  Cu  Cu106  1  0.16450107  0.49819713  0.25223141  1
  Cu  Cu107  1  0.65786374  0.33858523  -0.00201230  1
  Cu  Cu108  1  -0.00568974  0.65934885  -0.00852645  1
  Cu  Cu109  1  0.49881028  0.16809684  0.75116129  1
  Cu  Cu110  1  0.00425358  0.33163820  -0.00879069  1
  Cu  Cu111  1  0.66248396  0.33324064  0.50648396  1
  Cu  Cu112  1  0.83431215  0.49723859  0.75110185  1
  Cu  Cu113  1  0.84569683  0.16592187  0.24827478  1
  Cu  Cu114  1  0.33571638  0.66172643  -0.00481188  1
  Se  Se115  1  0.08181666  0.08461161  0.04920238  1
  Se  Se116  1  0.08379343  0.08813907  0.55929754  1
  Se  Se117  1  0.08193355  0.41241218  0.05557544  1
  Se  Se118  1  0.08927791  0.41601900  0.56395253  1
  Se  Se119  1  0.07571452  0.74099748  0.05041044  1
  Se  Se120  1  0.08140218  0.74550472  0.56725695  1
  Se  Se121  1  0.40919028  0.08119635  0.05175697  1
  Se  Se122  1  0.41648978  0.08625148  0.56312725  1
  Se  Se123  1  0.41292947  0.43025464  0.04823780  1
  Se  Se124  1  0.39901042  0.40206354  0.55880849  1
  Se  Se125  1  0.41430050  0.74814143  0.05029257  1
  Se  Se126  1  0.41985648  0.74948905  0.55083733  1
  Se  Se127  1  0.73770753  0.07486702  0.05800758  1
  Se  Se128  1  0.74202602  0.08019159  0.56138936  1
  Se  Se129  1  0.74820381  0.41448646  0.05181867  1
  Se  Se130  1  0.75109297  0.41484155  0.55383455  1
  Se  Se131  1  0.73687154  0.73800309  0.06088103  1
  Se  Se132  1  0.75052516  0.73852735  0.56724202  1
  Se  Se133  1  0.24161549  0.24913980  0.04759391  1
  Se  Se134  1  0.23753133  0.24187015  0.56461638  1
  Se  Se135  1  0.24975453  0.58640865  0.05516776  1
  Se  Se136  1  0.25676742  0.59186600  0.55959338  1
  Se  Se137  1  0.25147621  0.92206030  0.06139816  1
  Se  Se138  1  0.25679462  0.92398168  0.56973824  1
  Se  Se139  1  0.57632921  0.25097696  0.04818321  1
  Se  Se140  1  0.57885536  0.25034892  0.55635798  1
  Se  Se141  1  0.58099067  0.57787923  0.04769909  1
  Se  Se142  1  0.58738199  0.58598855  0.56401714  1
  Se  Se143  1  0.57811584  0.91017963  0.05089640  1
  Se  Se144  1  0.57826625  0.91188467  0.55336957  1
  Se  Se145  1  0.92324348  0.25693989  0.05706817  1
  Se  Se146  1  0.92745362  0.25440877  0.56924803  1
  Se  Se147  1  0.91152532  0.57804281  0.04518557  1
  Se  Se148  1  0.91260446  0.57674379  0.56021541  1
  Se  Se149  1  0.92406564  0.91901279  0.05102098  1
  Se  Se150  1  0.92227916  0.92187591  0.55726069  1
  Se  Se151  1  0.08047672  0.25408365  0.44733391  1
  Se  Se152  1  0.08639698  0.25326372  0.93602086  1
  Se  Se153  1  0.09110826  0.57858824  0.45885914  1
  Se  Se154  1  0.08041049  0.58523364  0.93428272  1
  Se  Se155  1  0.08296318  0.92239455  0.44462613  1
  Se  Se156  1  0.07371564  0.92158194  0.93831495  1
  Se  Se157  1  0.43508650  0.23525780  0.44303265  1
  Se  Se158  1  0.42633967  0.23098366  0.93038378  1
  Se  Se159  1  0.40918655  0.58208018  0.43545395  1
  Se  Se160  1  0.41742129  0.57732579  0.94226581  1
  Se  Se161  1  0.41528007  0.91945459  0.45157574  1
  Se  Se162  1  0.41072782  0.91203552  0.94765877  1
  Se  Se163  1  0.74199779  0.25768860  0.44060718  1
  Se  Se164  1  0.73827950  0.25906810  0.93673755  1
  Se  Se165  1  0.75448262  0.58167924  0.45154716  1
  Se  Se166  1  0.75044670  0.58029270  0.94167895  1
  Se  Se167  1  0.74118781  0.92744503  0.44254924  1
  Se  Se168  1  0.74509578  0.92162774  0.93747697  1
  Se  Se169  1  0.24601276  0.08584921  0.45820007  1
  Se  Se170  1  0.24841684  0.08115484  0.93592066  1
  Se  Se171  1  0.25782495  0.40576640  0.43939271  1
  Se  Se172  1  0.26177267  0.40090352  0.92707850  1
  Se  Se173  1  0.25583711  0.74213930  0.44261424  1
  Se  Se174  1  0.25359626  0.73654015  0.93478999  1
  Se  Se175  1  0.58282995  0.08655012  0.44875117  1
  Se  Se176  1  0.57647285  0.08307835  0.95035745  1
  Se  Se177  1  0.58390513  0.41537959  0.44454744  1
  Se  Se178  1  0.57621100  0.41698509  0.93997064  1
  Se  Se179  1  0.58687687  0.74538200  0.44978455  1
  Se  Se180  1  0.58069747  0.74714933  0.94316019  1
  Se  Se181  1  0.92231016  0.08335104  0.44325832  1
  Se  Se182  1  0.92251293  0.08164664  0.94451410  1
  Se  Se183  1  0.91684459  0.41431376  0.45368702  1
  Se  Se184  1  0.92311608  0.41973937  0.94210916  1
  Se  Se185  1  0.93030534  0.73758236  0.44835744  1
  Se  Se186  1  0.92005312  0.74431717  0.93226484  1
  Se  Se187  1  0.25017401  0.25120552  0.30988869  1
  Se  Se188  1  0.22833949  0.22429211  0.79033888  1
  Se  Se189  1  0.24704500  0.58565688  0.30090666  1
  Se  Se190  1  0.25625530  0.58066029  0.79424027  1
  Se  Se191  1  0.24587044  0.90876172  0.31360393  1
  Se  Se192  1  0.25333392  0.91780005  0.80213182  1
  Se  Se193  1  0.57833270  0.25092674  0.30578047  1
  Se  Se194  1  0.58762337  0.25088449  0.79834508  1
  Se  Se195  1  0.57551003  0.57186288  0.30533593  1
  Se  Se196  1  0.58570607  0.58392058  0.80285420  1
  Se  Se197  1  0.57715752  0.91473109  0.31404043  1
  Se  Se198  1  0.56996328  0.91194893  0.81766942  1
  Se  Se199  1  0.92304996  0.25427776  0.30087124  1
  Se  Se200  1  0.92094618  0.25774576  0.80528902  1
  Se  Se201  1  0.91422627  0.57689765  0.31453307  1
  Se  Se202  1  0.91923069  0.57893544  0.80490855  1
  Se  Se203  1  0.92958392  0.92311773  0.30270400  1
  Se  Se204  1  0.90088130  0.90806935  0.79583711  1
  Se  Se205  1  0.08677779  0.08245819  0.30595523  1
  Se  Se206  1  0.05384603  0.05717063  0.80618122  1
  Se  Se207  1  0.07561232  0.42043471  0.30505818  1
  Se  Se208  1  0.11391489  0.43871598  0.79630780  1
  Se  Se209  1  0.09110716  0.75473534  0.31205257  1
  Se  Se210  1  0.08558200  0.75503727  0.79886837  1
  Se  Se211  1  0.41824738  0.09989852  0.31233303  1
  Se  Se212  1  0.41580106  0.07943810  0.79878247  1
  Se  Se213  1  0.41187122  0.41181365  0.29666457  1
  Se  Se214  1  0.42052120  0.41478514  0.79798122  1
  Se  Se215  1  0.41913710  0.74764663  0.30640975  1
  Se  Se216  1  0.41579288  0.74487420  0.80392376  1
  Se  Se217  1  0.76165627  0.09130884  0.30811220  1
  Se  Se218  1  0.75840326  0.09671734  0.81284835  1
  Se  Se219  1  0.75584520  0.42225236  0.31237589  1
  Se  Se220  1  0.74697718  0.41596733  0.80349292  1
  Se  Se221  1  0.76628416  0.76474654  0.30689362  1
  Se  Se222  1  0.75447413  0.75574832  0.79665107  1
  Se  Se223  1  0.24896735  0.09176215  0.19390075  1
  Se  Se224  1  0.24837406  0.09233236  0.70842681  1
  Se  Se225  1  0.24782848  0.41679029  0.19654140  1
  Se  Se226  1  0.22933948  0.43534641  0.70445508  1
  Se  Se227  1  0.25319644  0.74968921  0.19837055  1
  Se  Se228  1  0.25489998  0.74805004  0.69876780  1
  Se  Se229  1  0.57725332  0.08962354  0.19105091  1
  Se  Se230  1  0.58133520  0.08493648  0.69193892  1
  Se  Se231  1  0.57458350  0.42071267  0.18396322  1
  Se  Se232  1  0.58898875  0.41188709  0.69395648  1
  Se  Se233  1  0.57883215  0.75366168  0.19190963  1
  Se  Se234  1  0.58117194  0.74698255  0.69880136  1
  Se  Se235  1  0.92781528  0.08435211  0.19442561  1
  Se  Se236  1  0.91775625  0.08961538  0.69971379  1
  Se  Se237  1  0.92157183  0.41470838  0.19585643  1
  Se  Se238  1  0.92350179  0.41505384  0.70160020  1
  Se  Se239  1  0.91745301  0.75706262  0.18710210  1
  Se  Se240  1  0.89239963  0.77646427  0.69849040  1
  Se  Se241  1  0.08485223  0.25538226  0.19856660  1
  Se  Se242  1  0.09578064  0.24820775  0.71302436  1
  Se  Se243  1  0.08806399  0.57676678  0.18665304  1
  Se  Se244  1  0.05289518  0.61283151  0.69103670  1
  Se  Se245  1  0.08720037  0.92097016  0.19710672  1
  Se  Se246  1  0.08699049  0.92087681  0.69533900  1
  Se  Se247  1  0.41416507  0.25160599  0.18912037  1
  Se  Se248  1  0.41624282  0.25214639  0.69767061  1
  Se  Se249  1  0.41277436  0.58872491  0.19397568  1
  Se  Se250  1  0.42173695  0.57192292  0.69124036  1
  Se  Se251  1  0.42423632  0.91294549  0.19199038  1
  Se  Se252  1  0.41496260  0.91491597  0.69888418  1
  Se  Se253  1  0.75985397  0.24081499  0.19003139  1
  Se  Se254  1  0.75185838  0.25806283  0.69755863  1
  Se  Se255  1  0.75846034  0.57739054  0.19373979  1
  Se  Se256  1  0.75054844  0.58185266  0.69983604  1
  Se  Se257  1  0.76498880  0.91566723  0.18718028  1
  Se  Se258  1  0.74509000  0.91950401  0.68674906  1
