# generated using pymatgen
data_In86Cu29Se144
_symmetry_space_group_name_H-M   'P 1'
_cell_length_a   17.59948248
_cell_length_b   17.60770804
_cell_length_c   23.46762247
_cell_angle_alpha   89.99086542
_cell_angle_beta   90.01145419
_cell_angle_gamma   89.97581395
_symmetry_Int_Tables_number   1
_chemical_formula_structural   In86Cu29Se144
_chemical_formula_sum   'In86 Cu29 Se144'
_cell_volume   7272.29965968
_cell_formula_units_Z   1
loop_
 _symmetry_equiv_pos_site_id
 _symmetry_equiv_pos_as_xyz
  1  'x, y, z'
loop_
 _atom_site_type_symbol
 _atom_site_label
 _atom_site_symmetry_multiplicity
 _atom_site_fract_x
 _atom_site_fract_y
 _atom_site_fract_z
 _atom_site_occupancy
  In  In0  1  0.00210726  0.16823758  0.12938008  1
  In  In1  1  -0.00279022  0.15953446  0.62068480  1
  In  In2  1  -0.01470413  0.51147893  0.14889011  1
  In  In3  1  -0.01316345  0.48748618  0.60907562  1
  In  In4  1  -0.00857598  0.83712901  0.12849529  1
  In  In5  1  0.00071337  0.85189412  0.62885819  1
  In  In6  1  0.31964017  0.17371622  0.12902674  1
  In  In7  1  0.31948329  0.17119203  0.62533701  1
  In  In8  1  0.31758555  0.49230156  0.13076830  1
  In  In9  1  0.32003339  0.49847080  0.61828525  1
  In  In10  1  0.34774378  0.83888818  0.12011060  1
  In  In11  1  0.33929309  0.83323066  0.62801357  1
  In  In12  1  0.67945646  0.16900027  0.12221457  1
  In  In13  1  0.67374495  0.15461935  0.63095431  1
  In  In14  1  0.68041858  0.48813270  0.13189230  1
  In  In15  1  0.69366739  0.49316328  0.63675463  1
  In  In16  1  0.66285252  0.82545885  0.12067313  1
  In  In17  1  0.67206078  0.82512346  0.63389706  1
  In  In18  1  0.17005931  -0.00067321  0.36600061  1
  In  In19  1  0.17564216  0.01477302  0.87333396  1
  In  In20  1  0.15033491  0.33231689  0.37650094  1
  In  In21  1  0.14528390  0.33225777  0.87422092  1
  In  In22  1  0.12740731  0.66132925  0.35247452  1
  In  In23  1  0.16974022  0.65460985  0.87300664  1
  In  In24  1  0.48892375  0.00862755  0.37362273  1
  In  In25  1  0.49282744  -0.01173500  0.87520142  1
  In  In26  1  0.50488905  0.33315218  0.36549101  1
  In  In27  1  0.49573140  0.33928497  0.87777911  1
  In  In28  1  0.50407079  0.65158947  0.37353233  1
  In  In29  1  0.52078097  0.67278844  0.87317033  1
  In  In30  1  0.84229851  -0.00944780  0.38101887  1
  In  In31  1  0.83292196  0.00236577  0.87175846  1
  In  In32  1  0.84069124  0.33642965  0.37729792  1
  In  In33  1  0.84514933  0.32170536  0.88227708  1
  In  In34  1  0.83493239  0.66576881  0.37317998  1
  In  In35  1  0.83095385  0.67787844  0.88317723  1
  In  In36  1  0.00096816  0.16850017  0.37909927  1
  In  In37  1  0.00177821  0.16543771  0.87601983  1
  In  In38  1  -0.00204081  0.49396902  0.37653964  1
  In  In39  1  0.00227053  0.49070430  0.87545979  1
  In  In40  1  -0.00599538  0.82838684  0.36156128  1
  In  In41  1  -0.02049040  0.83587108  0.88003195  1
  In  In42  1  0.31967910  0.15381104  0.36899122  1
  In  In43  1  0.33014868  0.14940835  0.88391580  1
  In  In44  1  0.31919662  0.47993505  0.36230900  1
  In  In45  1  0.33373586  0.49468824  0.87343147  1
  In  In46  1  0.31665763  0.83925956  0.36895243  1
  In  In47  1  0.32940901  0.85608443  0.89021339  1
  In  In48  1  0.67177150  0.17912659  0.37188965  1
  In  In49  1  0.68749043  0.17058315  0.87579805  1
  In  In50  1  0.68024700  0.51142429  0.36692647  1
  In  In51  1  0.67698961  0.52568347  0.85913673  1
  In  In52  1  0.68354063  0.83369785  0.37442106  1
  In  In53  1  0.66947290  0.83539953  0.87640326  1
  In  In54  1  0.14919162  0.00102855  0.13588029  1
  In  In55  1  0.15711634  0.01019613  0.63873350  1
  In  In56  1  0.16866528  0.33576186  0.14115794  1
  In  In57  1  0.12425749  0.30107154  0.58389587  1
  In  In58  1  0.15211020  0.66280776  0.13581179  1
  In  In59  1  0.16857332  0.65877244  0.61845050  1
  In  In60  1  0.49896840  -0.01245703  0.11858291  1
  In  In61  1  0.50155369  -0.00367695  0.63792707  1
  In  In62  1  0.49276155  0.33898108  0.13148074  1
  In  In63  1  0.50470249  0.32825046  0.62147809  1
  In  In64  1  0.50595870  0.68149922  0.12078636  1
  In  In65  1  0.50053453  0.67447792  0.62629242  1
  In  In66  1  0.84519679  0.01066180  0.11788663  1
  In  In67  1  0.83451426  0.00075643  0.62537165  1
  In  In68  1  0.83754155  0.33158196  0.12921652  1
  In  In69  1  0.85514532  0.34574413  0.60288231  1
  In  In70  1  0.83738539  0.65872594  0.12367646  1
  In  In71  1  0.82376514  0.66070228  0.62222308  1
  In  In72  1  0.16047186  0.83895096  0.01202975  1
  In  In73  1  0.16434720  0.83227446  0.49820039  1
  In  In74  1  0.50206377  0.83222263  0.50704793  1
  In  In75  1  0.50435045  0.50094479  0.50563284  1
  In  In76  1  -0.00373995  0.66968806  0.75455188  1
  In  In77  1  0.34719894  0.67209166  0.24325794  1
  In  In78  1  0.50521026  0.16494974  0.00006345  1
  In  In79  1  0.34032699  0.66986494  0.74856531  1
  In  In80  1  0.15426664  0.49847296  0.00963181  1
  In  In81  1  0.50442986  0.50486592  -0.00741444  1
  In  In82  1  0.32893392  0.33277048  0.75059506  1
  In  In83  1  0.49989326  0.16404323  0.50051485  1
  In  In84  1  0.66632256  -0.00025002  0.24092018  1
  In  In85  1  0.67300970  0.32995009  0.74800052  1
  Cu  Cu86  1  0.15856924  0.16793187  0.25480575  1
  Cu  Cu87  1  0.51053099  0.49991697  0.24733693  1
  Cu  Cu88  1  0.16237896  0.16877269  0.74603798  1
  Cu  Cu89  1  0.16777871  0.83875644  0.75737509  1
  Cu  Cu90  1  0.50474109  0.83629406  0.24719872  1
  Cu  Cu91  1  -0.00118763  0.32630115  0.00686625  1
  Cu  Cu92  1  0.84206521  0.16876884  0.74852808  1
  Cu  Cu93  1  0.50231240  0.16024958  0.75677921  1
  Cu  Cu94  1  0.49595218  0.83585929  0.75551947  1
  Cu  Cu95  1  0.15822534  0.48712393  0.74111067  1
  Cu  Cu96  1  -0.00017680  0.00051002  -0.00152345  1
  Cu  Cu97  1  -0.00667951  0.66922684  0.49286784  1
  Cu  Cu98  1  0.32695034  0.00198438  0.49991783  1
  Cu  Cu99  1  0.82947391  0.83794725  0.75383121  1
  Cu  Cu100  1  0.67341584  0.66657812  0.00071468  1
  Cu  Cu101  1  -0.00190414  0.00212563  0.50016627  1
  Cu  Cu102  1  0.32585237  0.32604080  0.49008284  1
  Cu  Cu103  1  0.33311528  0.67074706  0.00222311  1
  Cu  Cu104  1  0.83502867  0.82476481  0.24687862  1
  Cu  Cu105  1  0.67324107  0.66967166  0.50097157  1
  Cu  Cu106  1  0.83639043  0.16532647  0.25003971  1
  Cu  Cu107  1  0.32328769  0.65848799  0.48925413  1
  Cu  Cu108  1  0.67653484  0.00234999  0.50215887  1
  Cu  Cu109  1  0.67439831  -0.00408604  -0.00147736  1
  Cu  Cu110  1  0.49280595  0.16819609  0.24750412  1
  Cu  Cu111  1  0.83377947  0.49825660  0.25651788  1
  Cu  Cu112  1  0.67587219  0.33987435  0.00098245  1
  Cu  Cu113  1  0.32178351  0.33338783  0.00600913  1
  Cu  Cu114  1  0.67452093  0.33796557  0.49404148  1
  Se  Se115  1  0.07890331  0.08015131  0.05837749  1
  Se  Se116  1  0.08799175  0.07585557  0.55490134  1
  Se  Se117  1  0.07049726  0.40880283  0.07067270  1
  Se  Se118  1  0.10751476  0.44094161  0.55741850  1
  Se  Se119  1  0.07269121  0.73881668  0.06061951  1
  Se  Se120  1  0.07030244  0.74545605  0.56000708  1
  Se  Se121  1  0.41158105  0.08552371  0.06178722  1
  Se  Se122  1  0.41218508  0.07331387  0.56242559  1
  Se  Se123  1  0.40826104  0.41913134  0.05480450  1
  Se  Se124  1  0.40705538  0.40123912  0.55340037  1
  Se  Se125  1  0.42202224  0.75373650  0.04776010  1
  Se  Se126  1  0.40051907  0.73567285  0.55214701  1
  Se  Se127  1  0.75182696  0.08448624  0.05075766  1
  Se  Se128  1  0.75641261  0.08841208  0.55450042  1
  Se  Se129  1  0.76074454  0.41788468  0.05632496  1
  Se  Se130  1  0.75097226  0.42519067  0.54927357  1
  Se  Se131  1  0.75517510  0.74743176  0.05678439  1
  Se  Se132  1  0.75043983  0.75624015  0.55566132  1
  Se  Se133  1  0.23754811  0.25682036  0.06062895  1
  Se  Se134  1  0.24878444  0.23851788  0.54426670  1
  Se  Se135  1  0.25336025  0.59285279  0.06110036  1
  Se  Se136  1  0.24253489  0.57745261  0.54477846  1
  Se  Se137  1  0.25229451  0.93028395  0.06516925  1
  Se  Se138  1  0.25124086  0.92054633  0.56350015  1
  Se  Se139  1  0.58778601  0.26438626  0.05907094  1
  Se  Se140  1  0.59878249  0.25394108  0.55466105  1
  Se  Se141  1  0.59277862  0.58459509  0.06019201  1
  Se  Se142  1  0.59417125  0.59081065  0.56371390  1
  Se  Se143  1  0.58876200  0.91538607  0.05090351  1
  Se  Se144  1  0.59171731  0.92663381  0.56130514  1
  Se  Se145  1  0.91347286  0.24364048  0.05893465  1
  Se  Se146  1  0.93644788  0.25263773  0.54586258  1
  Se  Se147  1  0.92459919  0.57154914  0.06154034  1
  Se  Se148  1  0.91201072  0.58890550  0.55114732  1
  Se  Se149  1  0.91753113  0.91525427  0.05193252  1
  Se  Se150  1  0.91598894  0.91733880  0.55376348  1
  Se  Se151  1  0.07507400  0.25412028  0.45247088  1
  Se  Se152  1  0.08251238  0.24705644  0.94971021  1
  Se  Se153  1  0.07999236  0.58969708  0.44057350  1
  Se  Se154  1  0.07496909  0.59095640  0.94422927  1
  Se  Se155  1  0.07493367  0.92020194  0.43716256  1
  Se  Se156  1  0.08069689  0.92051768  0.93838615  1
  Se  Se157  1  0.41474350  0.24999297  0.43498101  1
  Se  Se158  1  0.40602718  0.25916405  0.94516193  1
  Se  Se159  1  0.40765002  0.57469771  0.43709368  1
  Se  Se160  1  0.40775680  0.59552588  0.93631026  1
  Se  Se161  1  0.40838169  0.91860933  0.44514700  1
  Se  Se162  1  0.42013878  0.92496451  0.95749232  1
  Se  Se163  1  0.75518188  0.24929974  0.44472832  1
  Se  Se164  1  0.75623544  0.24807790  0.95314663  1
  Se  Se165  1  0.75207854  0.58556356  0.44545706  1
  Se  Se166  1  0.75021993  0.58079915  0.94477987  1
  Se  Se167  1  0.75361015  0.91301760  0.44998194  1
  Se  Se168  1  0.75755881  0.91511557  0.94339157  1
  Se  Se169  1  0.24208326  0.07878614  0.44452564  1
  Se  Se170  1  0.24302890  0.08449356  0.95563151  1
  Se  Se171  1  0.24463440  0.41340838  0.44181757  1
  Se  Se172  1  0.24692407  0.41375306  0.94189792  1
  Se  Se173  1  0.24258558  0.73958963  0.43176568  1
  Se  Se174  1  0.24657679  0.74608910  0.94301108  1
  Se  Se175  1  0.59306886  0.07574825  0.44024740  1
  Se  Se176  1  0.59551357  0.07936043  0.93790225  1
  Se  Se177  1  0.58960324  0.41636035  0.43808378  1
  Se  Se178  1  0.59830993  0.41497174  0.93692369  1
  Se  Se179  1  0.58755013  0.74387282  0.44187749  1
  Se  Se180  1  0.58939132  0.75191675  0.94932345  1
  Se  Se181  1  0.91430079  0.08434398  0.44657020  1
  Se  Se182  1  0.91652294  0.08262970  0.94306669  1
  Se  Se183  1  0.90828340  0.42711080  0.44809749  1
  Se  Se184  1  0.92344981  0.41242112  0.94841172  1
  Se  Se185  1  0.91607510  0.75628146  0.43902509  1
  Se  Se186  1  0.92104291  0.74683707  0.95336575  1
  Se  Se187  1  0.24141964  0.25016952  0.31011913  1
  Se  Se188  1  0.24277294  0.24357187  0.81323605  1
  Se  Se189  1  0.25483630  0.59743458  0.31073214  1
  Se  Se190  1  0.24360931  0.56689021  0.79769807  1
  Se  Se191  1  0.26415332  0.93202671  0.29659053  1
  Se  Se192  1  0.25412252  0.92018493  0.80869963  1
  Se  Se193  1  0.58340820  0.24479229  0.29894337  1
  Se  Se194  1  0.57801462  0.24593517  0.81393785  1
  Se  Se195  1  0.58940479  0.58791755  0.29876844  1
  Se  Se196  1  0.56781945  0.57833249  0.79885870  1
  Se  Se197  1  0.57998433  0.91566981  0.31263405  1
  Se  Se198  1  0.58371401  0.91623126  0.80667450  1
  Se  Se199  1  0.91671787  0.24781332  0.30760962  1
  Se  Se200  1  0.92319805  0.25118240  0.80450410  1
  Se  Se201  1  0.92004380  0.58385093  0.30594825  1
  Se  Se202  1  0.91020733  0.57991201  0.81450879  1
  Se  Se203  1  0.90950345  0.91804569  0.29891206  1
  Se  Se204  1  0.91776040  0.92007477  0.80237491  1
  Se  Se205  1  0.07608822  0.08196351  0.30693539  1
  Se  Se206  1  0.08447250  0.08516490  0.80371228  1
  Se  Se207  1  0.09202747  0.42981520  0.30525905  1
  Se  Se208  1  0.07415004  0.41116128  0.79842387  1
  Se  Se209  1  0.09964529  0.77883592  0.29214142  1
  Se  Se210  1  0.09015729  0.75732186  0.81635281  1
  Se  Se211  1  0.41146937  0.08226711  0.29914919  1
  Se  Se212  1  0.41556431  0.08205291  0.81005548  1
  Se  Se213  1  0.42370714  0.41937452  0.29944056  1
  Se  Se214  1  0.42726034  0.42718437  0.80200886  1
  Se  Se215  1  0.42939824  0.75986053  0.31431868  1
  Se  Se216  1  0.41523721  0.75856834  0.81836154  1
  Se  Se217  1  0.75405154  0.08276904  0.30776788  1
  Se  Se218  1  0.75375496  0.08778057  0.79963688  1
  Se  Se219  1  0.74953582  0.41036607  0.30591941  1
  Se  Se220  1  0.75907790  0.41466919  0.81330732  1
  Se  Se221  1  0.74905998  0.74636384  0.30171625  1
  Se  Se222  1  0.75050208  0.75010313  0.80679440  1
  Se  Se223  1  0.23981661  0.08745798  0.19663368  1
  Se  Se224  1  0.25493055  0.08575752  0.70082171  1
  Se  Se225  1  0.25646938  0.41406152  0.20900793  1
  Se  Se226  1  0.23889424  0.40794659  0.68271095  1
  Se  Se227  1  0.25276742  0.75631789  0.18486214  1
  Se  Se228  1  0.23799838  0.75577871  0.69237153  1
  Se  Se229  1  0.57370462  0.09234681  0.18402130  1
  Se  Se230  1  0.58659432  0.08244004  0.70134456  1
  Se  Se231  1  0.58858842  0.41016813  0.19651716  1
  Se  Se232  1  0.57814755  0.41992662  0.68988753  1
  Se  Se233  1  0.58675819  0.74894472  0.19820303  1
  Se  Se234  1  0.57604970  0.75250412  0.69961517  1
  Se  Se235  1  0.91925656  0.08073056  0.19745341  1
  Se  Se236  1  0.92027434  0.08044933  0.69482791  1
  Se  Se237  1  0.91472661  0.40789091  0.20638781  1
  Se  Se238  1  0.90730496  0.42329851  0.68741638  1
  Se  Se239  1  0.91979152  0.74117686  0.19492280  1
  Se  Se240  1  0.91111708  0.76002697  0.69085685  1
  Se  Se241  1  0.07621733  0.25341792  0.20215835  1
  Se  Se242  1  0.08580825  0.24856357  0.68389988  1
  Se  Se243  1  0.10415330  0.56005286  0.20388215  1
  Se  Se244  1  0.08310260  0.58147274  0.69009750  1
  Se  Se245  1  0.08785493  0.89739043  0.20025668  1
  Se  Se246  1  0.08106596  0.92012369  0.70582690  1
  Se  Se247  1  0.40912448  0.25350655  0.19577126  1
  Se  Se248  1  0.42625770  0.24022595  0.69336373  1
  Se  Se249  1  0.43022993  0.57448204  0.18224324  1
  Se  Se250  1  0.41774938  0.57371902  0.68481584  1
  Se  Se251  1  0.41978147  0.91945812  0.19699873  1
  Se  Se252  1  0.41027980  0.91614038  0.70147015  1
  Se  Se253  1  0.75049937  0.24807327  0.19773750  1
  Se  Se254  1  0.76616870  0.24945577  0.68462183  1
  Se  Se255  1  0.75394757  0.58082358  0.19756347  1
  Se  Se256  1  0.75077098  0.59298233  0.70290932  1
  Se  Se257  1  0.75947890  0.90969981  0.18524690  1
  Se  Se258  1  0.74906987  0.91989969  0.69587311  1
