# generated using pymatgen
data_In86Cu29Se144
_symmetry_space_group_name_H-M   'P 1'
_cell_length_a   17.69010071
_cell_length_b   17.68764008
_cell_length_c   23.53350853
_cell_angle_alpha   89.97760768
_cell_angle_beta   89.94503347
_cell_angle_gamma   89.97190921
_symmetry_Int_Tables_number   1
_chemical_formula_structural   In86Cu29Se144
_chemical_formula_sum   'In86 Cu29 Se144'
_cell_volume   7363.53901065
_cell_formula_units_Z   1
loop_
 _symmetry_equiv_pos_site_id
 _symmetry_equiv_pos_as_xyz
  1  'x, y, z'
loop_
 _atom_site_type_symbol
 _atom_site_label
 _atom_site_symmetry_multiplicity
 _atom_site_fract_x
 _atom_site_fract_y
 _atom_site_fract_z
 _atom_site_occupancy
  In  In0  1  0.00344439  0.17116904  0.12588462  1
  In  In1  1  -0.00857646  0.17262739  0.62938858  1
  In  In2  1  -0.01212371  0.48043611  0.12055889  1
  In  In3  1  0.00788899  0.49374355  0.63468819  1
  In  In4  1  0.01830844  0.83497051  0.11916247  1
  In  In5  1  0.00885559  0.82521100  0.63235283  1
  In  In6  1  0.33454872  0.18017827  0.12505146  1
  In  In7  1  0.34353316  0.17225014  0.62627859  1
  In  In8  1  0.33322707  0.50562385  0.12632607  1
  In  In9  1  0.32988357  0.49038725  0.61870352  1
  In  In10  1  0.31695512  0.82449062  0.12142378  1
  In  In11  1  0.32614684  0.83991037  0.62118528  1
  In  In12  1  0.68091953  0.17889089  0.12208248  1
  In  In13  1  0.66432663  0.16462281  0.61199473  1
  In  In14  1  0.67433570  0.49740358  0.13685194  1
  In  In15  1  0.65901648  0.51143135  0.61790954  1
  In  In16  1  0.65999725  0.83297709  0.12726357  1
  In  In17  1  0.67810890  0.83406537  0.62710544  1
  In  In18  1  0.15189628  -0.00351033  0.37708448  1
  In  In19  1  0.15113158  0.02269742  0.89203909  1
  In  In20  1  0.17502342  0.33359055  0.36118285  1
  In  In21  1  0.16350691  0.33413931  0.87622957  1
  In  In22  1  0.17230325  0.65389330  0.38092615  1
  In  In23  1  0.16218646  0.67539052  0.88809376  1
  In  In24  1  0.50783226  0.01100914  0.38464282  1
  In  In25  1  0.50057051  -0.00390928  0.86864437  1
  In  In26  1  0.49635058  0.33422635  0.37271779  1
  In  In27  1  0.49667518  0.34853037  0.87885303  1
  In  In28  1  0.46451705  0.60318627  0.31615529  1
  In  In29  1  0.48651666  0.66620967  0.88199480  1
  In  In30  1  0.84002854  -0.00358552  0.37659460  1
  In  In31  1  0.83820945  0.00684456  0.86990188  1
  In  In32  1  0.82834244  0.32299019  0.36406811  1
  In  In33  1  0.83632064  0.32428800  0.88537681  1
  In  In34  1  0.81864344  0.66472468  0.36551875  1
  In  In35  1  0.83394281  0.64850699  0.88163824  1
  In  In36  1  -0.00000379  0.15233527  0.37071082  1
  In  In37  1  -0.00464787  0.17100358  0.87409415  1
  In  In38  1  0.01665882  0.49799354  0.37544615  1
  In  In39  1  0.00104756  0.49720314  0.87688464  1
  In  In40  1  -0.00789383  0.84000342  0.37541010  1
  In  In41  1  0.00731323  0.84036647  0.87108585  1
  In  In42  1  0.33272919  0.18687942  0.37254568  1
  In  In43  1  0.31547605  0.17105689  0.87835950  1
  In  In44  1  0.32040776  0.48724164  0.37233553  1
  In  In45  1  0.33757632  0.49774102  0.88538818  1
  In  In46  1  0.33896439  0.80898793  0.37315610  1
  In  In47  1  0.32124287  0.83755950  0.88225094  1
  In  In48  1  0.65539236  0.17234045  0.38961467  1
  In  In49  1  0.67761985  0.17023180  0.87772823  1
  In  In50  1  0.64657543  0.46135537  0.32531493  1
  In  In51  1  0.66247006  0.50221787  0.88863155  1
  In  In52  1  0.66666414  0.82861506  0.37610286  1
  In  In53  1  0.65723393  0.83951073  0.87106135  1
  In  In54  1  0.16321289  -0.00849802  0.11488391  1
  In  In55  1  0.16801557  -0.01181872  0.62500688  1
  In  In56  1  0.16492751  0.33426140  0.12373052  1
  In  In57  1  0.16105305  0.33989030  0.63178127  1
  In  In58  1  0.17360399  0.66635485  0.11795630  1
  In  In59  1  0.16496592  0.65393740  0.61945935  1
  In  In60  1  0.50288833  0.00112951  0.12435069  1
  In  In61  1  0.50558341  0.01847587  0.61956613  1
  In  In62  1  0.48528159  0.35615335  0.15236565  1
  In  In63  1  0.49499215  0.33037555  0.61740375  1
  In  In64  1  0.51509047  0.65686613  0.14081984  1
  In  In65  1  0.50454131  0.65411360  0.61732024  1
  In  In66  1  0.83683137  0.03011532  0.11295841  1
  In  In67  1  0.82679741  0.01171237  0.63375229  1
  In  In68  1  0.83964647  0.33190950  0.13154136  1
  In  In69  1  0.84758834  0.33187758  0.62273029  1
  In  In70  1  0.83549306  0.64821535  0.13153060  1
  In  In71  1  0.83497500  0.67629500  0.62630780  1
  In  In72  1  0.66893755  0.33576253  0.75035160  1
  In  In73  1  0.32628494  -0.00029731  0.24656869  1
  In  In74  1  0.67288825  0.66949957  0.75204334  1
  In  In75  1  0.49875090  0.82928584  0.49922670  1
  In  In76  1  0.50682872  0.17426328  0.00509034  1
  In  In77  1  0.67251094  -0.00065130  0.24998005  1
  In  In78  1  0.32998755  0.00648358  0.75041657  1
  In  In79  1  0.00744247  0.67288639  0.24356186  1
  In  In80  1  0.83497951  0.49840679  0.49412415  1
  In  In81  1  0.33001687  0.66790582  0.75918472  1
  In  In82  1  0.83313127  0.83216562  -0.00835793  1
  In  In83  1  0.49653106  0.82986252  0.00245371  1
  In  In84  1  0.16683190  0.16628396  0.49639292  1
  In  In85  1  0.83434066  0.83436285  0.49953072  1
  Cu  Cu86  1  0.16503172  0.49643308  0.24431444  1
  Cu  Cu87  1  0.00593253  0.33216802  0.50351858  1
  Cu  Cu88  1  -0.00176729  0.32940781  0.00099855  1
  Cu  Cu89  1  0.83587341  0.16841160  0.75239269  1
  Cu  Cu90  1  0.32986085  -0.00154194  0.50173307  1
  Cu  Cu91  1  0.49715542  0.83034975  0.24997619  1
  Cu  Cu92  1  0.66748643  0.34105168  0.48911289  1
  Cu  Cu93  1  0.16401590  0.49874225  0.75133750  1
  Cu  Cu94  1  0.49551201  0.49976676  0.75467440  1
  Cu  Cu95  1  0.00211270  0.66503819  0.50264665  1
  Cu  Cu96  1  0.84167638  0.83487727  0.75042519  1
  Cu  Cu97  1  0.16400812  0.83488798  0.75304412  1
  Cu  Cu98  1  0.50457529  0.84102065  0.74668301  1
  Cu  Cu99  1  -0.00335617  -0.00336793  0.50077519  1
  Cu  Cu100  1  0.33583919  0.65535325  0.48827475  1
  Cu  Cu101  1  0.66359508  0.34012981  0.01085405  1
  Cu  Cu102  1  0.00346239  0.65840612  0.00641080  1
  Cu  Cu103  1  0.83794366  0.16309145  0.24960578  1
  Cu  Cu104  1  0.50162745  0.17514912  0.74341110  1
  Cu  Cu105  1  0.65335557  0.65967356  0.48886297  1
  Cu  Cu106  1  0.15953572  0.17147135  0.75518241  1
  Cu  Cu107  1  0.16652236  0.83466039  0.24649629  1
  Cu  Cu108  1  -0.00275362  0.00347822  -0.00425742  1
  Cu  Cu109  1  0.33157169  0.33963164  0.00802489  1
  Cu  Cu110  1  0.50176584  0.16787408  0.25407973  1
  Cu  Cu111  1  0.33419250  0.33696384  0.49573563  1
  Cu  Cu112  1  0.66742417  0.66000618  0.01033673  1
  Cu  Cu113  1  0.84441725  0.84959115  0.24621140  1
  Cu  Cu114  1  0.84003128  0.49576387  0.75525032  1
  Se  Se115  1  0.07801793  0.08244487  0.05468319  1
  Se  Se116  1  0.07876087  0.07766324  0.56030618  1
  Se  Se117  1  0.08190075  0.41438739  0.05179275  1
  Se  Se118  1  0.08305458  0.41802327  0.55787090  1
  Se  Se119  1  0.08887574  0.74807236  0.04904647  1
  Se  Se120  1  0.08407377  0.74689423  0.55734560  1
  Se  Se121  1  0.41317805  0.08150031  0.05945924  1
  Se  Se122  1  0.41024361  0.08492214  0.55241961  1
  Se  Se123  1  0.41858603  0.41416160  0.06394254  1
  Se  Se124  1  0.41960942  0.41892007  0.54867338  1
  Se  Se125  1  0.42290321  0.74007911  0.07049496  1
  Se  Se126  1  0.40412114  0.73713869  0.55799472  1
  Se  Se127  1  0.73257182  0.08346517  0.04951252  1
  Se  Se128  1  0.75957600  0.08422653  0.55469112  1
  Se  Se129  1  0.75200026  0.41546852  0.06463809  1
  Se  Se130  1  0.74378732  0.41150773  0.56013403  1
  Se  Se131  1  0.74988325  0.74668498  0.06167091  1
  Se  Se132  1  0.73642436  0.73588281  0.55102508  1
  Se  Se133  1  0.24792151  0.25131249  0.05364722  1
  Se  Se134  1  0.25432251  0.25692589  0.55853102  1
  Se  Se135  1  0.25463979  0.58246469  0.05238372  1
  Se  Se136  1  0.25482831  0.58034091  0.55161288  1
  Se  Se137  1  0.25575434  0.91501752  0.05112230  1
  Se  Se138  1  0.24462127  0.91359673  0.54852805  1
  Se  Se139  1  0.57830518  0.26820045  0.07278264  1
  Se  Se140  1  0.58805224  0.25992882  0.55010291  1
  Se  Se141  1  0.58861103  0.57783356  0.06579646  1
  Se  Se142  1  0.57321617  0.57350884  0.54142603  1
  Se  Se143  1  0.59236879  0.92461096  0.05394617  1
  Se  Se144  1  0.58846178  0.91622050  0.56117709  1
  Se  Se145  1  0.91427445  0.24957835  0.05740098  1
  Se  Se146  1  0.91929498  0.24744883  0.55045905  1
  Se  Se147  1  0.91502869  0.57876250  0.05563484  1
  Se  Se148  1  0.91949833  0.58638696  0.56177813  1
  Se  Se149  1  0.91893471  0.92091163  0.05705511  1
  Se  Se150  1  0.92134876  0.91725466  0.56537343  1
  Se  Se151  1  0.07817497  0.25375902  0.43697276  1
  Se  Se152  1  0.08069324  0.24914954  0.94351683  1
  Se  Se153  1  0.08497412  0.57952550  0.45152953  1
  Se  Se154  1  0.08361553  0.57871342  0.94719314  1
  Se  Se155  1  0.07760226  0.91139933  0.44850080  1
  Se  Se156  1  0.08164245  0.91554499  0.94786570  1
  Se  Se157  1  0.41871606  0.25095196  0.44678721  1
  Se  Se158  1  0.40974302  0.25842100  0.94457820  1
  Se  Se159  1  0.41249202  0.58418678  0.42185186  1
  Se  Se160  1  0.43599081  0.56631036  0.94941109  1
  Se  Se161  1  0.40743634  0.91926505  0.43774778  1
  Se  Se162  1  0.41250871  0.92674032  0.94262570  1
  Se  Se163  1  0.75519821  0.25403095  0.44421700  1
  Se  Se164  1  0.74146296  0.25581559  0.95320771  1
  Se  Se165  1  0.74123606  0.58109604  0.43588892  1
  Se  Se166  1  0.75144816  0.57862198  0.95554641  1
  Se  Se167  1  0.74039496  0.92349066  0.44417212  1
  Se  Se168  1  0.74187718  0.92442485  0.93759988  1
  Se  Se169  1  0.25711679  0.07740411  0.43588601  1
  Se  Se170  1  0.25984747  0.07867589  0.95035244  1
  Se  Se171  1  0.23911018  0.40778905  0.44391989  1
  Se  Se172  1  0.24824201  0.41374746  0.94682374  1
  Se  Se173  1  0.24950288  0.74605082  0.44646768  1
  Se  Se174  1  0.27899589  0.72588516  0.94280063  1
  Se  Se175  1  0.58773951  0.07954545  0.45818175  1
  Se  Se176  1  0.58385593  0.08155073  0.93797206  1
  Se  Se177  1  0.59419312  0.42140031  0.42547810  1
  Se  Se178  1  0.57981585  0.41696285  0.95350292  1
  Se  Se179  1  0.57389955  0.74054965  0.43159823  1
  Se  Se180  1  0.59431781  0.74049906  0.94426808  1
  Se  Se181  1  0.91790889  0.08045671  0.44625426  1
  Se  Se182  1  0.91330153  0.08641565  0.94378808  1
  Se  Se183  1  0.92639892  0.40729800  0.43845708  1
  Se  Se184  1  0.91722323  0.41555394  0.94690026  1
  Se  Se185  1  0.91805531  0.73680260  0.44015078  1
  Se  Se186  1  0.92848840  0.73901849  0.94069291  1
  Se  Se187  1  0.23263089  0.22565011  0.30045547  1
  Se  Se188  1  0.24669726  0.25327786  0.80394041  1
  Se  Se189  1  0.24262542  0.57801104  0.30305936  1
  Se  Se190  1  0.24172637  0.57576081  0.81507355  1
  Se  Se191  1  0.24810575  0.90571774  0.31235469  1
  Se  Se192  1  0.24032197  0.91980155  0.81160713  1
  Se  Se193  1  0.58647930  0.24620338  0.30987457  1
  Se  Se194  1  0.57694836  0.24995810  0.81188549  1
  Se  Se195  1  0.61050353  0.60103466  0.30470172  1
  Se  Se196  1  0.57806291  0.58171316  0.81055819  1
  Se  Se197  1  0.57283687  0.91551479  0.30925127  1
  Se  Se198  1  0.58773349  0.92444774  0.79716837  1
  Se  Se199  1  0.92285552  0.24275443  0.30393013  1
  Se  Se200  1  0.91276593  0.25589130  0.80609000  1
  Se  Se201  1  0.92631897  0.58828133  0.31231588  1
  Se  Se202  1  0.91874767  0.58287139  0.80705865  1
  Se  Se203  1  0.92567125  0.92794569  0.30195365  1
  Se  Se204  1  0.92038951  0.91986797  0.80511539  1
  Se  Se205  1  0.09601187  0.08581226  0.30335703  1
  Se  Se206  1  0.08125026  0.08467738  0.80786403  1
  Se  Se207  1  0.08258660  0.41518467  0.29904895  1
  Se  Se208  1  0.08121416  0.41575265  0.80555581  1
  Se  Se209  1  0.09024473  0.75673124  0.31253988  1
  Se  Se210  1  0.08828464  0.74780622  0.80885194  1
  Se  Se211  1  0.42116332  0.08414327  0.31003397  1
  Se  Se212  1  0.42148811  0.09834420  0.80793027  1
  Se  Se213  1  0.40218232  0.40205602  0.30570867  1
  Se  Se214  1  0.41105133  0.41933304  0.80679974  1
  Se  Se215  1  0.41253395  0.74201281  0.29376284  1
  Se  Se216  1  0.42461614  0.76604457  0.80934001  1
  Se  Se217  1  0.75337314  0.09038090  0.31337855  1
  Se  Se218  1  0.74896987  0.08778164  0.80367232  1
  Se  Se219  1  0.78711763  0.43357522  0.29811530  1
  Se  Se220  1  0.75204802  0.42506421  0.81506102  1
  Se  Se221  1  0.76088863  0.77136969  0.30286496  1
  Se  Se222  1  0.76254443  0.75685980  0.81425720  1
  Se  Se223  1  0.24274513  0.08637493  0.18324636  1
  Se  Se224  1  0.23914351  0.09544748  0.68927598  1
  Se  Se225  1  0.25153534  0.41664614  0.19153852  1
  Se  Se226  1  0.25046528  0.42124741  0.69586657  1
  Se  Se227  1  0.24507821  0.74486195  0.19665199  1
  Se  Se228  1  0.24467219  0.75600511  0.69281370  1
  Se  Se229  1  0.58155906  0.09170315  0.19187247  1
  Se  Se230  1  0.58640940  0.09369837  0.69174104  1
  Se  Se231  1  0.59560846  0.41417823  0.21070104  1
  Se  Se232  1  0.57811925  0.42734245  0.69091528  1
  Se  Se233  1  0.59075298  0.75396973  0.20279695  1
  Se  Se234  1  0.57561494  0.75181948  0.68863616  1
  Se  Se235  1  0.91928964  0.08321193  0.19337820  1
  Se  Se236  1  0.91988047  0.08383354  0.70007525  1
  Se  Se237  1  0.89812707  0.43308976  0.20120971  1
  Se  Se238  1  0.91720007  0.41307908  0.69795174  1
  Se  Se239  1  0.91427815  0.76200400  0.18421389  1
  Se  Se240  1  0.91916518  0.74586722  0.69879492  1
  Se  Se241  1  0.06535974  0.27257303  0.19058017  1
  Se  Se242  1  0.07963660  0.25161318  0.69559533  1
  Se  Se243  1  0.08462564  0.57444523  0.18291831  1
  Se  Se244  1  0.08580499  0.58677410  0.69814864  1
  Se  Se245  1  0.08586582  0.91830431  0.19387421  1
  Se  Se246  1  0.08351788  0.91880890  0.69841653  1
  Se  Se247  1  0.41317163  0.24673379  0.20352083  1
  Se  Se248  1  0.41675032  0.26027909  0.69563324  1
  Se  Se249  1  0.42325546  0.57453885  0.20255347  1
  Se  Se250  1  0.41860249  0.58142724  0.69299832  1
  Se  Se251  1  0.42023858  0.90951076  0.18836528  1
  Se  Se252  1  0.42175208  0.91798617  0.68718039  1
  Se  Se253  1  0.75340207  0.24949924  0.20080336  1
  Se  Se254  1  0.75629561  0.24667529  0.68914025  1
  Se  Se255  1  0.73644761  0.60067276  0.20237481  1
  Se  Se256  1  0.75860603  0.57297193  0.69203229  1
  Se  Se257  1  0.76156371  0.92062515  0.18192208  1
  Se  Se258  1  0.75364627  0.91408412  0.69841922  1
