# generated using pymatgen
data_In86Cu29Se144
_symmetry_space_group_name_H-M   'P 1'
_cell_length_a   17.71817077
_cell_length_b   17.71466905
_cell_length_c   23.58394097
_cell_angle_alpha   89.95652673
_cell_angle_beta   90.00735439
_cell_angle_gamma   89.99792319
_symmetry_Int_Tables_number   1
_chemical_formula_structural   In86Cu29Se144
_chemical_formula_sum   'In86 Cu29 Se144'
_cell_volume   7402.32547189
_cell_formula_units_Z   1
loop_
 _symmetry_equiv_pos_site_id
 _symmetry_equiv_pos_as_xyz
  1  'x, y, z'
loop_
 _atom_site_type_symbol
 _atom_site_label
 _atom_site_symmetry_multiplicity
 _atom_site_fract_x
 _atom_site_fract_y
 _atom_site_fract_z
 _atom_site_occupancy
  In  In0  1  -0.00068976  0.16891290  0.11866492  1
  In  In1  1  0.00128147  0.16126940  0.63065959  1
  In  In2  1  0.02393980  0.47992465  0.14602777  1
  In  In3  1  0.04107819  0.46179829  0.70139108  1
  In  In4  1  -0.00956011  0.84222828  0.12809802  1
  In  In5  1  0.00026978  0.82607626  0.63102114  1
  In  In6  1  0.34492060  0.18246926  0.11361474  1
  In  In7  1  0.31889406  0.18662987  0.64047005  1
  In  In8  1  0.31331056  0.47596524  0.10962288  1
  In  In9  1  0.33454124  0.47837849  0.63056332  1
  In  In10  1  0.33007091  0.83340784  0.12242196  1
  In  In11  1  0.34412351  0.83627059  0.63186837  1
  In  In12  1  0.66661784  0.17096722  0.12271628  1
  In  In13  1  0.67839608  0.17176269  0.62849792  1
  In  In14  1  0.66450940  0.50090762  0.12736418  1
  In  In15  1  0.66501229  0.50374584  0.62639996  1
  In  In16  1  0.68112469  0.82251722  0.12593167  1
  In  In17  1  0.66253221  0.81247605  0.62471521  1
  In  In18  1  0.16956270  0.01850294  0.37476544  1
  In  In19  1  0.17250488  0.01658535  0.86815153  1
  In  In20  1  0.14900103  0.32078906  0.35961931  1
  In  In21  1  0.16565601  0.32885231  0.87530300  1
  In  In22  1  0.16040614  0.66538073  0.37370479  1
  In  In23  1  0.15205540  0.66340742  0.87222246  1
  In  In24  1  0.50279200  -0.00588819  0.37069273  1
  In  In25  1  0.50146827  0.02135010  0.87200972  1
  In  In26  1  0.50840338  0.34063428  0.36881727  1
  In  In27  1  0.50175950  0.33199869  0.86942647  1
  In  In28  1  0.49783427  0.65082460  0.37434566  1
  In  In29  1  0.49832932  0.64759517  0.87559497  1
  In  In30  1  0.83705732  0.00804587  0.36279632  1
  In  In31  1  0.83700684  -0.00243353  0.88340129  1
  In  In32  1  0.83833322  0.33960823  0.36308301  1
  In  In33  1  0.82865172  0.33297169  0.87115614  1
  In  In34  1  0.83203151  0.66953953  0.36814432  1
  In  In35  1  0.83614220  0.67277043  0.87576192  1
  In  In36  1  0.01232506  0.17756292  0.36410154  1
  In  In37  1  0.00083809  0.17043953  0.87436801  1
  In  In38  1  -0.00315488  0.49446601  0.36595790  1
  In  In39  1  -0.00269444  0.50364654  0.87295986  1
  In  In40  1  -0.00806327  0.83313839  0.36860034  1
  In  In41  1  -0.01197515  0.83167242  0.87377786  1
  In  In42  1  0.31738026  0.17078191  0.37730499  1
  In  In43  1  0.33108516  0.17269626  0.87131689  1
  In  In44  1  0.33899137  0.49513261  0.38029949  1
  In  In45  1  0.33945693  0.49365129  0.87646883  1
  In  In46  1  0.33671802  0.83317778  0.37595819  1
  In  In47  1  0.32252934  0.83826376  0.87141495  1
  In  In48  1  0.67444702  0.17277580  0.36114061  1
  In  In49  1  0.65641113  0.17970074  0.88610563  1
  In  In50  1  0.66035074  0.49375461  0.36622240  1
  In  In51  1  0.66479936  0.48574104  0.86485205  1
  In  In52  1  0.66731715  0.83591008  0.36343349  1
  In  In53  1  0.67972156  0.83757934  0.88102423  1
  In  In54  1  0.15369955  0.00288200  0.12590969  1
  In  In55  1  0.15581700  0.00930198  0.63025105  1
  In  In56  1  0.16898179  0.33251148  0.12464409  1
  In  In57  1  0.16589936  0.32914054  0.62791171  1
  In  In58  1  0.15971511  0.64738656  0.12528120  1
  In  In59  1  0.16128622  0.64348591  0.63298230  1
  In  In60  1  0.50141904  0.01837703  0.11971487  1
  In  In61  1  0.49622724  -0.01012140  0.63289681  1
  In  In62  1  0.49917402  0.33646100  0.12211831  1
  In  In63  1  0.49372907  0.33644500  0.63124870  1
  In  In64  1  0.51355962  0.65827335  0.12596084  1
  In  In65  1  0.52963571  0.65453899  0.63488330  1
  In  In66  1  0.83449190  0.00318759  0.11909433  1
  In  In67  1  0.83516221  0.00549394  0.62899696  1
  In  In68  1  0.84524443  0.32292644  0.12694620  1
  In  In69  1  0.84410432  0.33787775  0.63957114  1
  In  In70  1  0.83554795  0.66532409  0.12408147  1
  In  In71  1  0.86240247  0.61105962  0.66536776  1
  In  In72  1  0.33128983  0.67061869  0.75337038  1
  In  In73  1  0.66757319  -0.00037348  0.75532667  1
  In  In74  1  0.83819897  0.17395740  0.50266945  1
  In  In75  1  0.84099081  0.49603336  -0.00166632  1
  In  In76  1  0.83109812  0.83267015  0.50530185  1
  In  In77  1  0.49858639  0.82843536  0.49988375  1
  In  In78  1  0.16129000  0.83308948  -0.00451218  1
  In  In79  1  0.33534507  0.66208504  0.25061310  1
  In  In80  1  0.33432701  0.00316534  0.25371391  1
  In  In81  1  0.49721863  0.16549636  0.50395195  1
  In  In82  1  0.16006607  0.48190386  0.51006070  1
  In  In83  1  0.83931674  0.49918714  0.50391969  1
  In  In84  1  0.16797844  0.83483577  0.49404876  1
  In  In85  1  0.50197371  0.83295288  -0.00224362  1
  Cu  Cu86  1  0.00204227  0.66056438  0.50382354  1
  Cu  Cu87  1  0.83431470  0.16540225  0.75481883  1
  Cu  Cu88  1  0.50216515  0.49478253  0.75072215  1
  Cu  Cu89  1  0.66513159  0.65761727  0.49919120  1
  Cu  Cu90  1  0.66542844  0.33908043  0.49572648  1
  Cu  Cu91  1  0.66816104  0.00290456  0.00034016  1
  Cu  Cu92  1  0.33293000  0.33126691  0.50493481  1
  Cu  Cu93  1  0.33448103  0.65708942  -0.00056928  1
  Cu  Cu94  1  0.32621826  0.00833012  0.50780695  1
  Cu  Cu95  1  0.16194185  0.16685625  0.75463848  1
  Cu  Cu96  1  0.16847994  0.16466927  0.24348656  1
  Cu  Cu97  1  0.16453244  0.84248967  0.74953864  1
  Cu  Cu98  1  0.83289816  0.83611127  0.24425990  1
  Cu  Cu99  1  0.82875731  0.83078090  0.75437900  1
  Cu  Cu100  1  0.34155557  0.65627080  0.50397803  1
  Cu  Cu101  1  0.00416610  0.01131626  0.50023593  1
  Cu  Cu102  1  -0.00154475  0.66297782  -0.00174993  1
  Cu  Cu103  1  0.83325689  0.16286384  0.24008078  1
  Cu  Cu104  1  0.33075538  0.00805494  -0.00610123  1
  Cu  Cu105  1  0.49873416  0.50047182  0.24736747  1
  Cu  Cu106  1  0.66972699  0.65811443  0.00402160  1
  Cu  Cu107  1  0.15791159  0.82820034  0.25027168  1
  Cu  Cu108  1  0.66369493  -0.00313096  0.49253922  1
  Cu  Cu109  1  0.66627767  0.33554873  -0.00171628  1
  Cu  Cu110  1  0.00133957  0.00800869  -0.00015009  1
  Cu  Cu111  1  0.33182916  0.33175430  -0.00723568  1
  Cu  Cu112  1  0.82894067  0.50503352  0.24650796  1
  Cu  Cu113  1  0.50871715  0.83792833  0.24463434  1
  Cu  Cu114  1  0.50135891  0.17300156  0.24283583  1
  Se  Se115  1  0.08813664  0.08637183  0.05180695  1
  Se  Se116  1  0.08504223  0.09112431  0.55525178  1
  Se  Se117  1  0.08707791  0.42118188  0.06041364  1
  Se  Se118  1  0.06491778  0.42470952  0.58200134  1
  Se  Se119  1  0.07743489  0.74527487  0.06014084  1
  Se  Se120  1  0.08604295  0.74218108  0.55862836  1
  Se  Se121  1  0.41655083  0.08738130  0.04765103  1
  Se  Se122  1  0.41112299  0.07984665  0.56745994  1
  Se  Se123  1  0.41665818  0.41260357  0.04818489  1
  Se  Se124  1  0.41878585  0.41287751  0.55486770  1
  Se  Se125  1  0.41107845  0.74094177  0.05865424  1
  Se  Se126  1  0.41498224  0.73959003  0.56368577  1
  Se  Se127  1  0.74854601  0.08726192  0.05419657  1
  Se  Se128  1  0.74353154  0.07476216  0.55346011  1
  Se  Se129  1  0.74796753  0.41110927  0.05994794  1
  Se  Se130  1  0.74837982  0.40636683  0.56163748  1
  Se  Se131  1  0.75436020  0.74395341  0.05108949  1
  Se  Se132  1  0.74857003  0.73335040  0.55754499  1
  Se  Se133  1  0.24905316  0.25294175  0.05039146  1
  Se  Se134  1  0.24798849  0.25009111  0.55693040  1
  Se  Se135  1  0.24486498  0.58112065  0.05127622  1
  Se  Se136  1  0.25643082  0.57986735  0.56079930  1
  Se  Se137  1  0.25429870  0.92533631  0.05458513  1
  Se  Se138  1  0.25233650  0.91769774  0.56243883  1
  Se  Se139  1  0.58347848  0.25379909  0.05436350  1
  Se  Se140  1  0.59330031  0.25473835  0.55777506  1
  Se  Se141  1  0.58332472  0.57561973  0.05183395  1
  Se  Se142  1  0.58082933  0.57609765  0.55067259  1
  Se  Se143  1  0.58840086  0.92031553  0.06108907  1
  Se  Se144  1  0.58978299  0.92046029  0.55707667  1
  Se  Se145  1  0.91447232  0.24815456  0.05032158  1
  Se  Se146  1  0.92501410  0.26140260  0.56336353  1
  Se  Se147  1  0.92810083  0.58057936  0.06253393  1
  Se  Se148  1  0.92556100  0.58398748  0.56526254  1
  Se  Se149  1  0.92084740  0.92058250  0.05146610  1
  Se  Se150  1  0.92615582  0.92705990  0.55798487  1
  Se  Se151  1  0.08410314  0.25032929  0.44136915  1
  Se  Se152  1  0.09755034  0.23476380  0.94176474  1
  Se  Se153  1  0.07984308  0.57960493  0.44451263  1
  Se  Se154  1  0.08117014  0.58072200  0.94555038  1
  Se  Se155  1  0.07470236  0.92566041  0.43824999  1
  Se  Se156  1  0.07824207  0.92738906  0.93651454  1
  Se  Se157  1  0.41226109  0.25537674  0.44057933  1
  Se  Se158  1  0.41768223  0.25217495  0.93954602  1
  Se  Se159  1  0.42224389  0.57584905  0.44908083  1
  Se  Se160  1  0.41874902  0.57480629  0.94910739  1
  Se  Se161  1  0.40659091  0.93010848  0.44660920  1
  Se  Se162  1  0.41020843  0.92216356  0.93961407  1
  Se  Se163  1  0.74675607  0.25912921  0.43851597  1
  Se  Se164  1  0.75325785  0.25524898  0.94659935  1
  Se  Se165  1  0.74801731  0.58358605  0.43791088  1
  Se  Se166  1  0.74673725  0.58168525  0.93901581  1
  Se  Se167  1  0.74929614  0.92126924  0.43634885  1
  Se  Se168  1  0.75355238  0.91726511  0.95372351  1
  Se  Se169  1  0.24590304  0.08879779  0.45182249  1
  Se  Se170  1  0.24817263  0.09168704  0.94328211  1
  Se  Se171  1  0.25039453  0.40533577  0.44231298  1
  Se  Se172  1  0.24833917  0.41593306  0.94100964  1
  Se  Se173  1  0.26314576  0.73605026  0.44338079  1
  Se  Se174  1  0.25564691  0.73938104  0.94109218  1
  Se  Se175  1  0.58901764  0.08340382  0.43646264  1
  Se  Se176  1  0.58193248  0.08489646  0.95055803  1
  Se  Se177  1  0.58281483  0.42081692  0.44326188  1
  Se  Se178  1  0.58546176  0.41421484  0.93989489  1
  Se  Se179  1  0.59231413  0.74412847  0.43801504  1
  Se  Se180  1  0.59028185  0.73830618  0.94165560  1
  Se  Se181  1  0.92146441  0.08396957  0.43801310  1
  Se  Se182  1  0.91737212  0.08820305  0.94508481  1
  Se  Se183  1  0.92412213  0.40688496  0.44094025  1
  Se  Se184  1  0.92773231  0.40455509  0.94052122  1
  Se  Se185  1  0.92389884  0.74147444  0.44495103  1
  Se  Se186  1  0.91639622  0.75037722  0.94902099  1
  Se  Se187  1  0.24974986  0.24754028  0.29938533  1
  Se  Se188  1  0.24683329  0.25402501  0.80146843  1
  Se  Se189  1  0.24607838  0.57574731  0.31185054  1
  Se  Se190  1  0.24437953  0.57797238  0.80999275  1
  Se  Se191  1  0.24071675  0.90777824  0.30959999  1
  Se  Se192  1  0.24840093  0.92287459  0.80242331  1
  Se  Se193  1  0.58365767  0.25365250  0.30026696  1
  Se  Se194  1  0.59621397  0.25609937  0.80581706  1
  Se  Se195  1  0.58178474  0.58484325  0.30016864  1
  Se  Se196  1  0.58319168  0.57958601  0.80279686  1
  Se  Se197  1  0.58664302  0.92394531  0.29843171  1
  Se  Se198  1  0.57951896  0.91304123  0.81793302  1
  Se  Se199  1  0.91198758  0.24369360  0.30057418  1
  Se  Se200  1  0.91694418  0.25156191  0.80472057  1
  Se  Se201  1  0.91278973  0.58274484  0.30412711  1
  Se  Se202  1  0.92503105  0.59833617  0.80884229  1
  Se  Se203  1  0.91626695  0.91788983  0.29963890  1
  Se  Se204  1  0.90771734  0.91744812  0.80619873  1
  Se  Se205  1  0.08621420  0.08201441  0.29885941  1
  Se  Se206  1  0.07494262  0.08229970  0.80223962  1
  Se  Se207  1  0.08563855  0.42262272  0.29911545  1
  Se  Se208  1  0.07405022  0.41328812  0.80475119  1
  Se  Se209  1  0.07865318  0.74728934  0.30690336  1
  Se  Se210  1  0.08607056  0.76245304  0.80869755  1
  Se  Se211  1  0.42474647  0.09706532  0.31074639  1
  Se  Se212  1  0.40878226  0.08378167  0.80458763  1
  Se  Se213  1  0.41754961  0.42056534  0.30556522  1
  Se  Se214  1  0.41515623  0.41546042  0.80240276  1
  Se  Se215  1  0.42823889  0.75960874  0.30645241  1
  Se  Se216  1  0.42285517  0.75326492  0.81569065  1
  Se  Se217  1  0.74834445  0.08203881  0.29549794  1
  Se  Se218  1  0.75301511  0.08961088  0.81634442  1
  Se  Se219  1  0.74842884  0.41768326  0.29932305  1
  Se  Se220  1  0.77139219  0.43321168  0.80260130  1
  Se  Se221  1  0.75138910  0.75225553  0.29986790  1
  Se  Se222  1  0.74557147  0.75048090  0.80823436  1
  Se  Se223  1  0.25336809  0.08735150  0.18516902  1
  Se  Se224  1  0.24409505  0.08534535  0.69774428  1
  Se  Se225  1  0.25186917  0.41366385  0.19421799  1
  Se  Se226  1  0.22899112  0.42927107  0.69492799  1
  Se  Se227  1  0.24312800  0.75419653  0.19129068  1
  Se  Se228  1  0.23852602  0.75578679  0.68898232  1
  Se  Se229  1  0.58357779  0.08727449  0.19361255  1
  Se  Se230  1  0.58454722  0.08777434  0.68955134  1
  Se  Se231  1  0.58095789  0.41707132  0.19354392  1
  Se  Se232  1  0.58595110  0.41678080  0.69319038  1
  Se  Se233  1  0.58538494  0.75048351  0.19168341  1
  Se  Se234  1  0.55480723  0.77513272  0.69137204  1
  Se  Se235  1  0.91964284  0.08270963  0.18816505  1
  Se  Se236  1  0.91487020  0.08219817  0.69932060  1
  Se  Se237  1  0.91062220  0.41681677  0.19740731  1
  Se  Se238  1  0.89076956  0.45773536  0.69281735  1
  Se  Se239  1  0.91545126  0.75058642  0.19353473  1
  Se  Se240  1  0.90243704  0.75293315  0.69050658  1
  Se  Se241  1  0.08395117  0.24570803  0.19027901  1
  Se  Se242  1  0.08090177  0.24805360  0.69708776  1
  Se  Se243  1  0.07689439  0.59257599  0.20352547  1
  Se  Se244  1  0.06361534  0.60694137  0.70667158  1
  Se  Se245  1  0.08270581  0.91591147  0.19592747  1
  Se  Se246  1  0.07727140  0.91791515  0.69426221  1
  Se  Se247  1  0.41581914  0.25466230  0.19287246  1
  Se  Se248  1  0.42792468  0.24235985  0.69752475  1
  Se  Se249  1  0.41691764  0.57504119  0.18510253  1
  Se  Se250  1  0.42008816  0.57775092  0.69133601  1
  Se  Se251  1  0.42190010  0.91424654  0.18849371  1
  Se  Se252  1  0.41148071  0.92054163  0.70395134  1
  Se  Se253  1  0.75015820  0.25108982  0.19272002  1
  Se  Se254  1  0.75638663  0.25078904  0.69934504  1
  Se  Se255  1  0.74779722  0.58717725  0.19202697  1
  Se  Se256  1  0.71815839  0.61681279  0.68431189  1
  Se  Se257  1  0.75250256  0.91873888  0.18921440  1
  Se  Se258  1  0.75071314  0.90787349  0.68824418  1
