# generated using pymatgen
data_In86Cu29Se144
_symmetry_space_group_name_H-M   'P 1'
_cell_length_a   17.58753518
_cell_length_b   17.58523856
_cell_length_c   23.45005415
_cell_angle_alpha   89.98815539
_cell_angle_beta   89.99711475
_cell_angle_gamma   90.00464201
_symmetry_Int_Tables_number   1
_chemical_formula_structural   In86Cu29Se144
_chemical_formula_sum   'In86 Cu29 Se144'
_cell_volume   7252.65605088
_cell_formula_units_Z   1
loop_
 _symmetry_equiv_pos_site_id
 _symmetry_equiv_pos_as_xyz
  1  'x, y, z'
loop_
 _atom_site_type_symbol
 _atom_site_label
 _atom_site_symmetry_multiplicity
 _atom_site_fract_x
 _atom_site_fract_y
 _atom_site_fract_z
 _atom_site_occupancy
  In  In0  1  -0.00891614  0.15301268  0.11473601  1
  In  In1  1  0.01054280  0.15067748  0.62709671  1
  In  In2  1  0.00716799  0.50754640  0.12827195  1
  In  In3  1  0.01255497  0.50805666  0.61889686  1
  In  In4  1  0.01201571  0.82728346  0.14298821  1
  In  In5  1  -0.01562528  0.84998385  0.62533081  1
  In  In6  1  0.33592489  0.16358867  0.12293470  1
  In  In7  1  0.33215300  0.16374573  0.62709773  1
  In  In8  1  0.31902238  0.49214409  0.12585833  1
  In  In9  1  0.33097291  0.50940673  0.63301779  1
  In  In10  1  0.33764243  0.85557849  0.12573746  1
  In  In11  1  0.34065879  0.82869500  0.62602766  1
  In  In12  1  0.66216331  0.15825688  0.12286648  1
  In  In13  1  0.66073884  0.17462281  0.62845584  1
  In  In14  1  0.67271289  0.50225257  0.12632740  1
  In  In15  1  0.66600838  0.48534511  0.62344394  1
  In  In16  1  0.68383114  0.84078483  0.12669832  1
  In  In17  1  0.67874457  0.85130552  0.61027572  1
  In  In18  1  0.17732971  -0.00095169  0.36598296  1
  In  In19  1  0.16192680  0.00330192  0.87001860  1
  In  In20  1  0.17627575  0.32127587  0.38511279  1
  In  In21  1  0.17035718  0.31729618  0.86950040  1
  In  In22  1  0.14658938  0.67344017  0.37553558  1
  In  In23  1  0.16671488  0.67301328  0.86952609  1
  In  In24  1  0.49379209  0.00921421  0.38406532  1
  In  In25  1  0.50493307  0.00992130  0.86515649  1
  In  In26  1  0.48401660  0.32385341  0.37293577  1
  In  In27  1  0.47136639  0.31401156  0.85220077  1
  In  In28  1  0.51471507  0.67107247  0.38045759  1
  In  In29  1  0.48621448  0.67870125  0.87018194  1
  In  In30  1  0.82950545  -0.00050083  0.37485762  1
  In  In31  1  0.84380529  0.00990465  0.86754585  1
  In  In32  1  0.84177093  0.32962613  0.38008115  1
  In  In33  1  0.82085865  0.32436811  0.86869769  1
  In  In34  1  0.84087303  0.67082866  0.38134681  1
  In  In35  1  0.84014703  0.66426641  0.86951451  1
  In  In36  1  0.01009663  0.17170857  0.37396414  1
  In  In37  1  0.01363986  0.14719884  0.88789634  1
  In  In38  1  -0.00719257  0.50822917  0.38729592  1
  In  In39  1  -0.00486883  0.50757573  0.87053615  1
  In  In40  1  0.00565521  0.82723770  0.36679255  1
  In  In41  1  0.00804195  0.84088074  0.86837563  1
  In  In42  1  0.33050862  0.16662630  0.37664711  1
  In  In43  1  0.33166466  0.16476338  0.86898208  1
  In  In44  1  0.33689293  0.47998106  0.37784838  1
  In  In45  1  0.32654382  0.49334008  0.85932073  1
  In  In46  1  0.32547878  0.85495464  0.37491683  1
  In  In47  1  0.31850543  0.82717968  0.86405877  1
  In  In48  1  0.67057509  0.12080927  0.38643430  1
  In  In49  1  0.66413912  0.16026238  0.87335565  1
  In  In50  1  0.67087072  0.51079996  0.38076803  1
  In  In51  1  0.67091570  0.48804959  0.86619242  1
  In  In52  1  0.65540129  0.86508875  0.40536953  1
  In  In53  1  0.64947854  0.83970553  0.87231349  1
  In  In54  1  0.16571815  0.00118604  0.12097828  1
  In  In55  1  0.16227767  0.01142301  0.63211304  1
  In  In56  1  0.18090115  0.33057565  0.12635882  1
  In  In57  1  0.16919934  0.33495452  0.62365842  1
  In  In58  1  0.14445812  0.67713890  0.12974582  1
  In  In59  1  0.17393283  0.66161224  0.62991988  1
  In  In60  1  0.48723834  0.01356728  0.13321573  1
  In  In61  1  0.50051492  -0.00013972  0.62186521  1
  In  In62  1  0.50169360  0.30870583  0.12259094  1
  In  In63  1  0.51272226  0.33234230  0.63519066  1
  In  In64  1  0.50820198  0.66871378  0.12439117  1
  In  In65  1  0.48638365  0.66981173  0.62679476  1
  In  In66  1  0.83563893  0.00684863  0.13767601  1
  In  In67  1  0.84200099  -0.00493899  0.62462355  1
  In  In68  1  0.84552645  0.32632725  0.12744431  1
  In  In69  1  0.81749385  0.33237148  0.62377248  1
  In  In70  1  0.85036641  0.68121979  0.12414553  1
  In  In71  1  0.84648482  0.67601453  0.61973579  1
  In  In72  1  0.67535908  0.67638015  0.25842210  1
  In  In73  1  -0.00320972  0.32527258  0.74353165  1
  In  In74  1  0.49394751  0.84368686  -0.00272146  1
  In  In75  1  0.66213067  0.32455730  0.25262645  1
  In  In76  1  0.16286586  0.49630165  -0.00337484  1
  In  In77  1  0.66183919  0.66940154  0.74495048  1
  In  In78  1  0.49943513  0.50112021  0.50808054  1
  In  In79  1  0.49082552  0.48645391  -0.02200824  1
  In  In80  1  0.84072469  0.83824993  -0.00690364  1
  In  In81  1  0.16478042  0.83557176  0.49836757  1
  In  In82  1  0.32846522  0.67000485  0.25628142  1
  In  In83  1  0.01016346  0.32834325  0.25798932  1
  In  In84  1  0.83483147  0.16984673  0.50060870  1
  In  In85  1  0.83621120  0.48808893  0.00879951  1
  Cu  Cu86  1  0.66238059  0.31181870  -0.00510096  1
  Cu  Cu87  1  0.31870360  0.67678733  -0.00268954  1
  Cu  Cu88  1  0.50598984  0.84632583  0.26129896  1
  Cu  Cu89  1  0.67672025  0.67135793  0.50107094  1
  Cu  Cu90  1  0.32638022  0.00515087  -0.00478577  1
  Cu  Cu91  1  0.66807680  0.00132362  0.00279567  1
  Cu  Cu92  1  0.49877675  0.84053805  0.74556438  1
  Cu  Cu93  1  0.00496255  0.66884439  0.50310909  1
  Cu  Cu94  1  0.83097185  0.83637313  0.74432338  1
  Cu  Cu95  1  0.17527126  0.16636435  0.24790841  1
  Cu  Cu96  1  0.49506656  0.16320186  0.25421468  1
  Cu  Cu97  1  -0.00205956  0.32461103  -0.00255234  1
  Cu  Cu98  1  0.84027283  0.50599571  0.26030203  1
  Cu  Cu99  1  0.32847047  0.66201837  0.50244464  1
  Cu  Cu100  1  0.16405708  0.83420669  0.74410960  1
  Cu  Cu101  1  0.66177682  0.33190150  0.49900831  1
  Cu  Cu102  1  0.49088897  0.49386175  0.24858973  1
  Cu  Cu103  1  0.83540830  0.50411059  0.74776469  1
  Cu  Cu104  1  0.33085844  0.32667321  0.50427466  1
  Cu  Cu105  1  0.16247352  0.50107198  0.74661071  1
  Cu  Cu106  1  0.82931090  0.16486278  0.74771954  1
  Cu  Cu107  1  0.66698046  0.65066355  -0.00179763  1
  Cu  Cu108  1  0.00147948  -0.00348444  0.00251770  1
  Cu  Cu109  1  0.34078326  0.32197305  -0.00281400  1
  Cu  Cu110  1  0.83143544  0.83825938  0.25662224  1
  Cu  Cu111  1  0.33290766  0.00518432  0.50069238  1
  Cu  Cu112  1  0.16406054  0.49937811  0.25351252  1
  Cu  Cu113  1  0.49794924  0.16216300  0.74636327  1
  Cu  Cu114  1  0.00255926  0.33652518  0.50204255  1
  Se  Se115  1  0.08801711  0.08652739  0.04810380  1
  Se  Se116  1  0.08620401  0.07797563  0.55156191  1
  Se  Se117  1  0.07383410  0.40608751  0.05983340  1
  Se  Se118  1  0.08940246  0.41820138  0.55274676  1
  Se  Se119  1  0.07031783  0.75614196  0.05730467  1
  Se  Se120  1  0.08038371  0.74971810  0.56608899  1
  Se  Se121  1  0.41577387  0.08014143  0.05065284  1
  Se  Se122  1  0.41675349  0.08627788  0.55468782  1
  Se  Se123  1  0.41393354  0.40976503  0.05824096  1
  Se  Se124  1  0.41045967  0.40932713  0.56486850  1
  Se  Se125  1  0.41053455  0.74452790  0.05812583  1
  Se  Se126  1  0.41428645  0.74748874  0.54979224  1
  Se  Se127  1  0.75395772  0.07656520  0.05983776  1
  Se  Se128  1  0.74662436  0.08404397  0.56315735  1
  Se  Se129  1  0.73547343  0.39639757  0.05921457  1
  Se  Se130  1  0.74873123  0.41573891  0.54743689  1
  Se  Se131  1  0.74546906  0.74016351  0.05351031  1
  Se  Se132  1  0.76029615  0.75512690  0.55166441  1
  Se  Se133  1  0.25252061  0.24769960  0.05296480  1
  Se  Se134  1  0.24622640  0.24406828  0.55678325  1
  Se  Se135  1  0.24697462  0.59149718  0.06003141  1
  Se  Se136  1  0.24854785  0.57847873  0.55591920  1
  Se  Se137  1  0.25025793  0.91800204  0.05096633  1
  Se  Se138  1  0.25461669  0.92118787  0.56092437  1
  Se  Se139  1  0.57729475  0.23217460  0.04891905  1
  Se  Se140  1  0.57909007  0.25348322  0.55540600  1
  Se  Se141  1  0.57938189  0.57296166  0.05219898  1
  Se  Se142  1  0.59376630  0.59376707  0.56265260  1
  Se  Se143  1  0.58751129  0.92217114  0.06405677  1
  Se  Se144  1  0.57259060  0.91144497  0.55025906  1
  Se  Se145  1  0.91090178  0.24579174  0.05010394  1
  Se  Se146  1  0.92434752  0.25710525  0.56554630  1
  Se  Se147  1  0.92766629  0.59071117  0.05370099  1
  Se  Se148  1  0.91899157  0.58213063  0.55250257  1
  Se  Se149  1  0.92023678  0.91925846  0.06443243  1
  Se  Se150  1  0.90792568  0.91590624  0.54478414  1
  Se  Se151  1  0.08284779  0.24841889  0.45140147  1
  Se  Se152  1  0.08872496  0.24905800  0.94614954  1
  Se  Se153  1  0.08843919  0.58385703  0.45164567  1
  Se  Se154  1  0.07499713  0.59116444  0.94195545  1
  Se  Se155  1  0.08058943  0.92416985  0.43594777  1
  Se  Se156  1  0.08302778  0.91937326  0.94317609  1
  Se  Se157  1  0.41436256  0.24579612  0.44986444  1
  Se  Se158  1  0.42178243  0.24205670  0.94050491  1
  Se  Se159  1  0.41200669  0.58677410  0.43955448  1
  Se  Se160  1  0.39659310  0.59284580  0.93768416  1
  Se  Se161  1  0.41333476  0.91600988  0.44992321  1
  Se  Se162  1  0.40531389  0.92472231  0.93179115  1
  Se  Se163  1  0.73666342  0.25022081  0.43636841  1
  Se  Se164  1  0.75448276  0.23794770  0.94279478  1
  Se  Se165  1  0.75724552  0.58447532  0.44914344  1
  Se  Se166  1  0.75126470  0.57725337  0.93933448  1
  Se  Se167  1  0.77247355  0.91922218  0.45822488  1
  Se  Se168  1  0.74128417  0.92252409  0.93676959  1
  Se  Se169  1  0.24697588  0.08078754  0.44347429  1
  Se  Se170  1  0.24571111  0.08709259  0.93921603  1
  Se  Se171  1  0.25132994  0.41477187  0.45253718  1
  Se  Se172  1  0.25941764  0.40840125  0.94091581  1
  Se  Se173  1  0.25597589  0.74382752  0.43721082  1
  Se  Se174  1  0.23872737  0.75928214  0.94311225  1
  Se  Se175  1  0.57334389  0.08360189  0.46035645  1
  Se  Se176  1  0.58262562  0.07714766  0.94494765  1
  Se  Se177  1  0.58168112  0.41339881  0.43793989  1
  Se  Se178  1  0.59133591  0.39541509  0.93184743  1
  Se  Se179  1  0.58462422  0.75185043  0.45506911  1
  Se  Se180  1  0.58606257  0.73904705  0.94502953  1
  Se  Se181  1  0.92546770  0.08396648  0.44044810  1
  Se  Se182  1  0.91263528  0.07820241  0.95101637  1
  Se  Se183  1  0.91312499  0.41577950  0.45107084  1
  Se  Se184  1  0.92082250  0.40661089  0.93696784  1
  Se  Se185  1  0.92871055  0.75400495  0.44584826  1
  Se  Se186  1  0.92766258  0.74264742  0.93814608  1
  Se  Se187  1  0.25115591  0.25232518  0.30506282  1
  Se  Se188  1  0.27113016  0.26708413  0.80133220  1
  Se  Se189  1  0.24557526  0.57522503  0.31739544  1
  Se  Se190  1  0.24459324  0.58641480  0.80040868  1
  Se  Se191  1  0.24109936  0.90407527  0.29507610  1
  Se  Se192  1  0.24359043  0.91967431  0.79891498  1
  Se  Se193  1  0.58048188  0.23466735  0.31699898  1
  Se  Se194  1  0.58330448  0.24394408  0.80205233  1
  Se  Se195  1  0.57623091  0.57420023  0.30401227  1
  Se  Se196  1  0.57834765  0.58515316  0.81301798  1
  Se  Se197  1  0.58633508  0.92539201  0.31875069  1
  Se  Se198  1  0.58523600  0.92241293  0.79630285  1
  Se  Se199  1  0.90714457  0.24041867  0.30513572  1
  Se  Se200  1  0.91555560  0.23729345  0.81006776  1
  Se  Se201  1  0.92349299  0.59021415  0.31007963  1
  Se  Se202  1  0.92039052  0.58812798  0.79633745  1
  Se  Se203  1  0.91764386  0.91860482  0.30816788  1
  Se  Se204  1  0.91480970  0.91538269  0.80190169  1
  Se  Se205  1  0.09057753  0.08991446  0.30443044  1
  Se  Se206  1  0.07514338  0.08367409  0.80220052  1
  Se  Se207  1  0.08956521  0.42257210  0.32067036  1
  Se  Se208  1  0.08475683  0.41918957  0.80829984  1
  Se  Se209  1  0.09668664  0.75825479  0.29586473  1
  Se  Se210  1  0.08109354  0.75015604  0.79914386  1
  Se  Se211  1  0.41157804  0.08069738  0.30794998  1
  Se  Se212  1  0.41147556  0.08006533  0.79793020  1
  Se  Se213  1  0.41088709  0.40716146  0.29927131  1
  Se  Se214  1  0.43286134  0.43560439  0.79901748  1
  Se  Se215  1  0.42693931  0.75655982  0.31479851  1
  Se  Se216  1  0.41259199  0.75539621  0.79531760  1
  Se  Se217  1  0.75606618  0.08706241  0.30373120  1
  Se  Se218  1  0.74722418  0.08000719  0.80195397  1
  Se  Se219  1  0.75447509  0.42200554  0.31106159  1
  Se  Se220  1  0.75493688  0.41351833  0.79490169  1
  Se  Se221  1  0.75005075  0.76809562  0.32491787  1
  Se  Se222  1  0.75241224  0.75890426  0.80922518  1
  Se  Se223  1  0.25273274  0.08123055  0.19118865  1
  Se  Se224  1  0.26027704  0.07504858  0.69795012  1
  Se  Se225  1  0.24809427  0.41455708  0.20288941  1
  Se  Se226  1  0.24728219  0.41810325  0.69529706  1
  Se  Se227  1  0.25260846  0.75520960  0.18448720  1
  Se  Se228  1  0.25280093  0.75090817  0.69524705  1
  Se  Se229  1  0.58292734  0.08502326  0.19957646  1
  Se  Se230  1  0.58380667  0.08157907  0.69311700  1
  Se  Se231  1  0.57647155  0.41918301  0.18844540  1
  Se  Se232  1  0.58433420  0.42621499  0.70143952  1
  Se  Se233  1  0.57959090  0.76295241  0.19590891  1
  Se  Se234  1  0.58143423  0.76383836  0.68339238  1
  Se  Se235  1  0.93123590  0.08420062  0.19961246  1
  Se  Se236  1  0.91543231  0.08380101  0.69524363  1
  Se  Se237  1  0.91578384  0.42398415  0.19769431  1
  Se  Se238  1  0.91294079  0.42275837  0.68467576  1
  Se  Se239  1  0.91506336  0.75061585  0.20689186  1
  Se  Se240  1  0.91880930  0.75365549  0.69631926  1
  Se  Se241  1  0.08947807  0.24355057  0.18785903  1
  Se  Se242  1  0.09723276  0.23802056  0.69504183  1
  Se  Se243  1  0.08116638  0.58481614  0.20329647  1
  Se  Se244  1  0.07950416  0.58764715  0.69722606  1
  Se  Se245  1  0.06524431  0.94540115  0.19164284  1
  Se  Se246  1  0.07951997  0.91832417  0.69296486  1
  Se  Se247  1  0.41489529  0.24701131  0.19749385  1
  Se  Se248  1  0.41790860  0.25001078  0.69405392  1
  Se  Se249  1  0.41720972  0.58002788  0.18823997  1
  Se  Se250  1  0.42516457  0.58044032  0.69937813  1
  Se  Se251  1  0.41877917  0.92076914  0.20370500  1
  Se  Se252  1  0.41405770  0.92171702  0.69300048  1
  Se  Se253  1  0.75582811  0.24258517  0.19133950  1
  Se  Se254  1  0.74659847  0.25316392  0.69950208  1
  Se  Se255  1  0.76254773  0.58388755  0.19414088  1
  Se  Se256  1  0.75558490  0.58306469  0.68527165  1
  Se  Se257  1  0.74818659  0.92159944  0.20363606  1
  Se  Se258  1  0.74850259  0.92080484  0.69292243  1
