# generated using pymatgen
data_In86Cu29Se144
_symmetry_space_group_name_H-M   'P 1'
_cell_length_a   17.55781388
_cell_length_b   17.55900821
_cell_length_c   23.40897350
_cell_angle_alpha   90.00655802
_cell_angle_beta   89.99210324
_cell_angle_gamma   89.98085583
_symmetry_Int_Tables_number   1
_chemical_formula_structural   In86Cu29Se144
_chemical_formula_sum   'In86 Cu29 Se144'
_cell_volume   7216.93446763
_cell_formula_units_Z   1
loop_
 _symmetry_equiv_pos_site_id
 _symmetry_equiv_pos_as_xyz
  1  'x, y, z'
loop_
 _atom_site_type_symbol
 _atom_site_label
 _atom_site_symmetry_multiplicity
 _atom_site_fract_x
 _atom_site_fract_y
 _atom_site_fract_z
 _atom_site_occupancy
  In  In0  1  0.00515022  0.16058972  0.12752129  1
  In  In1  1  0.00019489  0.15741669  0.61577084  1
  In  In2  1  0.00322350  0.50559551  0.12535287  1
  In  In3  1  -0.00224372  0.49074135  0.60840291  1
  In  In4  1  -0.01493018  0.84643263  0.14676492  1
  In  In5  1  0.00280174  0.84485330  0.61762821  1
  In  In6  1  0.31882474  0.17047828  0.12679065  1
  In  In7  1  0.32834448  0.18228771  0.62320245  1
  In  In8  1  0.32370033  0.51179474  0.12980164  1
  In  In9  1  0.30953085  0.48265976  0.60749203  1
  In  In10  1  0.34299017  0.82315385  0.13223352  1
  In  In11  1  0.33138343  0.82972815  0.61496638  1
  In  In12  1  0.67414354  0.15237849  0.13881029  1
  In  In13  1  0.66145680  0.15583774  0.61897633  1
  In  In14  1  0.67291344  0.50901799  0.14638189  1
  In  In15  1  0.67936744  0.48618782  0.61359462  1
  In  In16  1  0.66423086  0.84158304  0.13087623  1
  In  In17  1  0.68040407  0.84427354  0.60928668  1
  In  In18  1  0.16199343  -0.00126835  0.37434478  1
  In  In19  1  0.17207571  0.01233624  0.87303288  1
  In  In20  1  0.14884292  0.34563219  0.41305266  1
  In  In21  1  0.16350979  0.33407605  0.86811881  1
  In  In22  1  0.16854473  0.67165526  0.37101982  1
  In  In23  1  0.15014454  0.65682874  0.88152403  1
  In  In24  1  0.48921613  -0.00854960  0.36700040  1
  In  In25  1  0.50544889  -0.01228858  0.88143677  1
  In  In26  1  0.50984050  0.32614920  0.37707255  1
  In  In27  1  0.49254369  0.34743925  0.87201111  1
  In  In28  1  0.51370997  0.67981577  0.36416759  1
  In  In29  1  0.51034431  0.67973525  0.88106396  1
  In  In30  1  0.83491088  -0.00846036  0.36657176  1
  In  In31  1  0.83188132  -0.00216385  0.86439626  1
  In  In32  1  0.81788299  0.34844623  0.40299420  1
  In  In33  1  0.83271468  0.31594662  0.86842428  1
  In  In34  1  0.83878737  0.66649100  0.36253796  1
  In  In35  1  0.84855014  0.67715958  0.87902810  1
  In  In36  1  0.00153205  0.16074785  0.38466667  1
  In  In37  1  0.00440945  0.17518352  0.86346090  1
  In  In38  1  -0.01365612  0.51401817  0.38772359  1
  In  In39  1  0.01063635  0.50528369  0.87491531  1
  In  In40  1  -0.00411824  0.83743710  0.36531267  1
  In  In41  1  -0.01234516  0.82935712  0.87375736  1
  In  In42  1  0.33045526  0.16104348  0.37986070  1
  In  In43  1  0.31380448  0.16505583  0.87301653  1
  In  In44  1  0.31431307  0.50148939  0.37992695  1
  In  In45  1  0.32616911  0.48584952  0.86834787  1
  In  In46  1  0.33283879  0.83814094  0.37328021  1
  In  In47  1  0.34194366  0.84360475  0.87795183  1
  In  In48  1  0.68061478  0.17589313  0.37151030  1
  In  In49  1  0.68014297  0.15809407  0.87583849  1
  In  In50  1  0.68368185  0.50459974  0.36124738  1
  In  In51  1  0.66530589  0.50147929  0.87776840  1
  In  In52  1  0.67318997  0.82978902  0.36863345  1
  In  In53  1  0.66598896  0.84658324  0.88988341  1
  In  In54  1  0.16050053  0.01038543  0.13197317  1
  In  In55  1  0.15136919  -0.01846777  0.61865019  1
  In  In56  1  0.15704220  0.33460213  0.11842024  1
  In  In57  1  0.16188876  0.32731941  0.61529751  1
  In  In58  1  0.16940210  0.66622631  0.13283877  1
  In  In59  1  0.16367699  0.67034689  0.61517860  1
  In  In60  1  0.51623407  -0.02041827  0.13701346  1
  In  In61  1  0.51479896  0.00305297  0.62380606  1
  In  In62  1  0.50088772  0.34425187  0.12911651  1
  In  In63  1  0.50069842  0.31965791  0.62628716  1
  In  In64  1  0.49307704  0.67351972  0.13080691  1
  In  In65  1  0.49310070  0.67433016  0.61853439  1
  In  In66  1  0.83800524  -0.00478087  0.13566797  1
  In  In67  1  0.83108569  -0.00073599  0.61796162  1
  In  In68  1  0.83155125  0.32421048  0.13234563  1
  In  In69  1  0.85254230  0.34078344  0.59788059  1
  In  In70  1  0.79875638  0.70618122  0.17733096  1
  In  In71  1  0.84067061  0.66642801  0.60783627  1
  In  In72  1  0.32959382  0.32598873  0.26395709  1
  In  In73  1  0.32914813  0.66211402  0.73650049  1
  In  In74  1  0.16646060  0.83521285  0.00207518  1
  In  In75  1  0.50764351  0.50874052  0.49548642  1
  In  In76  1  0.50204107  0.16396680  0.50177196  1
  In  In77  1  0.66664528  0.66798286  0.75061840  1
  In  In78  1  0.83983292  0.15415801  0.01120422  1
  In  In79  1  0.49113433  0.51030781  0.00897113  1
  In  In80  1  0.00013084  0.66872596  0.74963075  1
  In  In81  1  0.67496470  0.31283109  0.74002504  1
  In  In82  1  0.33351600  0.00499418  0.74992675  1
  In  In83  1  0.84258171  0.50839612  0.00608754  1
  In  In84  1  0.49540415  0.15940068  -0.00105582  1
  In  In85  1  -0.00866521  0.34072045  0.26784492  1
  Cu  Cu86  1  0.33659712  -0.00162319  0.00533975  1
  Cu  Cu87  1  0.50427046  0.83670999  0.75147935  1
  Cu  Cu88  1  0.67572898  0.68094764  0.01258797  1
  Cu  Cu89  1  0.66458871  0.33058685  0.01366200  1
  Cu  Cu90  1  0.50036191  0.16357390  0.74898348  1
  Cu  Cu91  1  0.16709650  0.49707483  0.25536204  1
  Cu  Cu92  1  0.84360054  0.16356461  0.73901075  1
  Cu  Cu93  1  0.49922763  0.83423558  0.25206190  1
  Cu  Cu94  1  0.00684369  0.33845247  -0.00788285  1
  Cu  Cu95  1  0.50040098  0.16366956  0.25651912  1
  Cu  Cu96  1  -0.00519090  -0.00993984  0.49420977  1
  Cu  Cu97  1  0.32671129  0.66356466  0.00558671  1
  Cu  Cu98  1  0.16155724  0.17087530  0.25928046  1
  Cu  Cu99  1  0.66519353  -0.00257741  0.49033102  1
  Cu  Cu100  1  0.00327165  0.00362934  0.00488120  1
  Cu  Cu101  1  0.67400882  0.66942408  0.48645372  1
  Cu  Cu102  1  0.83479647  0.48991503  0.73804600  1
  Cu  Cu103  1  0.31581904  0.33293582  -0.00408444  1
  Cu  Cu104  1  0.33940863  0.67876438  0.49282291  1
  Cu  Cu105  1  -0.00171218  0.67019774  0.48894635  1
  Cu  Cu106  1  0.16196867  0.16921542  0.74258130  1
  Cu  Cu107  1  0.16936965  0.83699438  0.25305094  1
  Cu  Cu108  1  0.32582782  -0.00065172  0.49764233  1
  Cu  Cu109  1  0.82872532  0.84249874  0.74459527  1
  Cu  Cu110  1  0.48868213  0.49252976  0.74417064  1
  Cu  Cu111  1  0.16305074  0.48947372  0.74245247  1
  Cu  Cu112  1  0.50117140  0.49887748  0.25199234  1
  Cu  Cu113  1  0.83351377  0.16771382  0.25562242  1
  Cu  Cu114  1  -0.00481292  0.67347270  0.01281893  1
  Se  Se115  1  0.08913130  0.08899566  0.05312474  1
  Se  Se116  1  0.08194298  0.07057734  0.54755719  1
  Se  Se117  1  0.07993830  0.42346306  0.05149112  1
  Se  Se118  1  0.10949146  0.43701426  0.55049974  1
  Se  Se119  1  0.07825603  0.75607458  0.06940025  1
  Se  Se120  1  0.07642388  0.75155268  0.55018974  1
  Se  Se121  1  0.41269739  0.07770374  0.06960640  1
  Se  Se122  1  0.40742781  0.07469567  0.56168346  1
  Se  Se123  1  0.39838981  0.40878092  0.05912697  1
  Se  Se124  1  0.42474668  0.41135288  0.55635158  1
  Se  Se125  1  0.41475507  0.74645243  0.05344626  1
  Se  Se126  1  0.42503588  0.76052034  0.54526619  1
  Se  Se127  1  0.74119399  0.06626621  0.06144691  1
  Se  Se128  1  0.74511497  0.07999025  0.54802565  1
  Se  Se129  1  0.74704137  0.41699122  0.06475475  1
  Se  Se130  1  0.75899411  0.42173601  0.53707247  1
  Se  Se131  1  0.76000227  0.75218165  0.07383845  1
  Se  Se132  1  0.75590725  0.75239478  0.54395085  1
  Se  Se133  1  0.23969214  0.24741806  0.05296984  1
  Se  Se134  1  0.24983666  0.24814246  0.54635355  1
  Se  Se135  1  0.24082039  0.58230149  0.05533908  1
  Se  Se136  1  0.25866513  0.59718970  0.54991576  1
  Se  Se137  1  0.25456808  0.92013260  0.06679333  1
  Se  Se138  1  0.24517428  0.91133713  0.54972858  1
  Se  Se139  1  0.58430608  0.24611504  0.06713591  1
  Se  Se140  1  0.59678209  0.26188386  0.55233694  1
  Se  Se141  1  0.59600495  0.58851056  0.06535462  1
  Se  Se142  1  0.59973343  0.59697773  0.55827722  1
  Se  Se143  1  0.58179048  0.91192728  0.05445589  1
  Se  Se144  1  0.58083340  0.91901448  0.54767615  1
  Se  Se145  1  0.92932697  0.26079234  0.05772447  1
  Se  Se146  1  0.92927944  0.24194708  0.53977892  1
  Se  Se147  1  0.91057478  0.60212506  0.07397216  1
  Se  Se148  1  0.91811361  0.57924377  0.54105265  1
  Se  Se149  1  0.92443894  0.92258539  0.06252201  1
  Se  Se150  1  0.90770553  0.91039436  0.54838324  1
  Se  Se151  1  0.06541509  0.24539485  0.46374633  1
  Se  Se152  1  0.08409069  0.24942197  0.93906964  1
  Se  Se153  1  0.09093144  0.58717431  0.44386305  1
  Se  Se154  1  0.07205565  0.58468932  0.95734998  1
  Se  Se155  1  0.08111357  0.90944090  0.44020537  1
  Se  Se156  1  0.07823701  0.92346699  0.93897944  1
  Se  Se157  1  0.41136967  0.25779855  0.44488268  1
  Se  Se158  1  0.40743771  0.25789133  0.94028259  1
  Se  Se159  1  0.41636256  0.59403298  0.43320981  1
  Se  Se160  1  0.40660019  0.59042360  0.93545852  1
  Se  Se161  1  0.41476494  0.91980900  0.44582796  1
  Se  Se162  1  0.42023507  0.91434528  0.95433559  1
  Se  Se163  1  0.74768966  0.23964273  0.45625281  1
  Se  Se164  1  0.74698049  0.25342966  0.95149426  1
  Se  Se165  1  0.75720788  0.58532459  0.43638259  1
  Se  Se166  1  0.74380108  0.59743892  0.94413042  1
  Se  Se167  1  0.75147794  0.91320250  0.44051858  1
  Se  Se168  1  0.77381018  0.91315295  0.94317385  1
  Se  Se169  1  0.24197631  0.08330241  0.44650634  1
  Se  Se170  1  0.25322626  0.07970120  0.95099158  1
  Se  Se171  1  0.26715984  0.40989674  0.45684029  1
  Se  Se172  1  0.23893854  0.42140363  0.94191341  1
  Se  Se173  1  0.24824642  0.75626643  0.44187699  1
  Se  Se174  1  0.25433539  0.74323308  0.93795764  1
  Se  Se175  1  0.58415954  0.08010983  0.43239260  1
  Se  Se176  1  0.59821512  0.07407702  0.94707153  1
  Se  Se177  1  0.59621693  0.41903498  0.43646812  1
  Se  Se178  1  0.58549354  0.41171356  0.95032863  1
  Se  Se179  1  0.58557621  0.75494336  0.44229403  1
  Se  Se180  1  0.58631584  0.75577329  0.95588369  1
  Se  Se181  1  0.90918291  0.07317564  0.44254929  1
  Se  Se182  1  0.92683369  0.08141671  0.93774474  1
  Se  Se183  1  0.94357214  0.39735485  0.44622295  1
  Se  Se184  1  0.91476110  0.41083079  0.93556799  1
  Se  Se185  1  0.91439535  0.75120547  0.43537612  1
  Se  Se186  1  0.91743097  0.75780070  0.95573067  1
  Se  Se187  1  0.22969216  0.25251961  0.32570680  1
  Se  Se188  1  0.24627734  0.24982664  0.79841621  1
  Se  Se189  1  0.25273068  0.58529219  0.30189262  1
  Se  Se190  1  0.23694858  0.57803768  0.80297399  1
  Se  Se191  1  0.25160867  0.92351059  0.30466523  1
  Se  Se192  1  0.24619201  0.90952676  0.80797312  1
  Se  Se193  1  0.58648356  0.24958261  0.30305038  1
  Se  Se194  1  0.57966700  0.24512655  0.81395877  1
  Se  Se195  1  0.58763160  0.58379200  0.30039549  1
  Se  Se196  1  0.56769000  0.57396471  0.80667996  1
  Se  Se197  1  0.58518100  0.91649196  0.30381393  1
  Se  Se198  1  0.58867985  0.91429057  0.80795513  1
  Se  Se199  1  0.90449071  0.24546477  0.32248636  1
  Se  Se200  1  0.91901303  0.25343043  0.79277958  1
  Se  Se201  1  0.91979253  0.57066768  0.30105139  1
  Se  Se202  1  0.90513401  0.57328636  0.80553479  1
  Se  Se203  1  0.90538703  0.90525576  0.29259262  1
  Se  Se204  1  0.92109494  0.91611418  0.79883874  1
  Se  Se205  1  0.07558264  0.08444051  0.30731550  1
  Se  Se206  1  0.08629994  0.08322209  0.80045402  1
  Se  Se207  1  0.09681700  0.41918597  0.32145618  1
  Se  Se208  1  0.07522944  0.41646917  0.80119807  1
  Se  Se209  1  0.08423137  0.75077310  0.30095563  1
  Se  Se210  1  0.09299231  0.75625570  0.80981421  1
  Se  Se211  1  0.40862094  0.08552375  0.30485318  1
  Se  Se212  1  0.42503579  0.08825109  0.81646615  1
  Se  Se213  1  0.42224355  0.42430897  0.31579552  1
  Se  Se214  1  0.40617467  0.40802561  0.79504892  1
  Se  Se215  1  0.41228037  0.75102169  0.30337435  1
  Se  Se216  1  0.41981292  0.75152032  0.80431795  1
  Se  Se217  1  0.74732797  0.08054056  0.30266428  1
  Se  Se218  1  0.75517196  0.08868441  0.79645719  1
  Se  Se219  1  0.75887690  0.39787896  0.30993489  1
  Se  Se220  1  0.75064038  0.41828438  0.80441912  1
  Se  Se221  1  0.74713995  0.74385012  0.29546132  1
  Se  Se222  1  0.75678682  0.75770381  0.81016281  1
  Se  Se223  1  0.24531374  0.09164078  0.20246961  1
  Se  Se224  1  0.24223424  0.08473915  0.68433807  1
  Se  Se225  1  0.24320491  0.41288360  0.19510136  1
  Se  Se226  1  0.24726205  0.40703422  0.68986954  1
  Se  Se227  1  0.25213010  0.74967239  0.20019142  1
  Se  Se228  1  0.23821035  0.76129068  0.68950142  1
  Se  Se229  1  0.58299880  0.07709697  0.20448582  1
  Se  Se230  1  0.58830518  0.08288349  0.69938749  1
  Se  Se231  1  0.58595989  0.41321307  0.20210045  1
  Se  Se232  1  0.58571392  0.41980365  0.69030091  1
  Se  Se233  1  0.58204517  0.75034581  0.19728920  1
  Se  Se234  1  0.58141762  0.75781976  0.68672707  1
  Se  Se235  1  0.91750423  0.09068610  0.19795465  1
  Se  Se236  1  0.92151819  0.07354787  0.68759842  1
  Se  Se237  1  0.91273323  0.42042365  0.19250691  1
  Se  Se238  1  0.91859819  0.41226053  0.68263403  1
  Se  Se239  1  0.93990896  0.73179898  0.20576564  1
  Se  Se240  1  0.90577660  0.75240165  0.68803048  1
  Se  Se241  1  0.08313204  0.25450678  0.19908132  1
  Se  Se242  1  0.07794315  0.24684438  0.68513309  1
  Se  Se243  1  0.08689456  0.57864765  0.19875599  1
  Se  Se244  1  0.08516072  0.57696257  0.68605812  1
  Se  Se245  1  0.08568571  0.92517887  0.20273590  1
  Se  Se246  1  0.07728597  0.91137222  0.69778341  1
  Se  Se247  1  0.42114343  0.24637436  0.19462443  1
  Se  Se248  1  0.41635091  0.24759257  0.69899158  1
  Se  Se249  1  0.41696060  0.58048803  0.19692002  1
  Se  Se250  1  0.41680560  0.56875136  0.67745345  1
  Se  Se251  1  0.41142588  0.91833368  0.20065988  1
  Se  Se252  1  0.42190800  0.91232210  0.68928488  1
  Se  Se253  1  0.74684930  0.24950409  0.20236396  1
  Se  Se254  1  0.76861834  0.24186832  0.67208634  1
  Se  Se255  1  0.76584683  0.57106004  0.21558303  1
  Se  Se256  1  0.75550665  0.57885343  0.68555460  1
  Se  Se257  1  0.75743032  0.90999094  0.20223043  1
  Se  Se258  1  0.74303746  0.92206995  0.69078191  1
