# generated using pymatgen
data_In86Cu29Se144
_symmetry_space_group_name_H-M   'P 1'
_cell_length_a   17.57895007
_cell_length_b   17.58102273
_cell_length_c   23.43747593
_cell_angle_alpha   89.98286917
_cell_angle_beta   89.99437390
_cell_angle_gamma   89.98881252
_symmetry_Int_Tables_number   1
_chemical_formula_structural   In86Cu29Se144
_chemical_formula_sum   'In86 Cu29 Se144'
_cell_volume   7243.49020735
_cell_formula_units_Z   1
loop_
 _symmetry_equiv_pos_site_id
 _symmetry_equiv_pos_as_xyz
  1  'x, y, z'
loop_
 _atom_site_type_symbol
 _atom_site_label
 _atom_site_symmetry_multiplicity
 _atom_site_fract_x
 _atom_site_fract_y
 _atom_site_fract_z
 _atom_site_occupancy
  In  In0  1  0.01726055  0.17948470  0.12943307  1
  In  In1  1  -0.00351269  0.18007918  0.62430037  1
  In  In2  1  -0.00045471  0.50433608  0.12349270  1
  In  In3  1  0.00770410  0.49609736  0.62998721  1
  In  In4  1  0.01231116  0.81146210  0.13087620  1
  In  In5  1  -0.00509874  0.82692806  0.62036836  1
  In  In6  1  0.32243885  0.15593944  0.13109962  1
  In  In7  1  0.34253505  0.15582069  0.63232208  1
  In  In8  1  0.33699290  0.51466141  0.12230805  1
  In  In9  1  0.32329525  0.49620370  0.61851666  1
  In  In10  1  0.32581830  0.83129098  0.12489082  1
  In  In11  1  0.34577163  0.84400859  0.61343069  1
  In  In12  1  0.65905882  0.17343297  0.12741446  1
  In  In13  1  0.66681856  0.16357797  0.62084089  1
  In  In14  1  0.68292720  0.51244613  0.11495109  1
  In  In15  1  0.65040956  0.50333886  0.62657440  1
  In  In16  1  0.64969762  0.83256257  0.12848212  1
  In  In17  1  0.66970174  0.84374065  0.60972428  1
  In  In18  1  0.17237552  -0.02430218  0.36730218  1
  In  In19  1  0.17430147  -0.01743330  0.87597813  1
  In  In20  1  0.16955040  0.34979438  0.37464832  1
  In  In21  1  0.17527915  0.34860465  0.86998656  1
  In  In22  1  0.16489995  0.66918319  0.36814437  1
  In  In23  1  0.15887190  0.67041961  0.88743967  1
  In  In24  1  0.49934530  -0.00252195  0.38236677  1
  In  In25  1  0.49427413  -0.00645352  0.86333344  1
  In  In26  1  0.50036394  0.32493936  0.38720162  1
  In  In27  1  0.49258275  0.32949172  0.86442620  1
  In  In28  1  0.49610207  0.66682834  0.37162797  1
  In  In29  1  0.51009051  0.67523554  0.88017045  1
  In  In30  1  0.82591692  0.00225222  0.39048000  1
  In  In31  1  0.83052847  0.01089159  0.87074550  1
  In  In32  1  0.83400423  0.32435071  0.37899621  1
  In  In33  1  0.83965072  0.33643342  0.86572710  1
  In  In34  1  0.84627797  0.67705750  0.36790215  1
  In  In35  1  0.83453107  0.65109158  0.87873835  1
  In  In36  1  -0.01092268  0.16559974  0.37543798  1
  In  In37  1  -0.00953892  0.17194826  0.87187962  1
  In  In38  1  0.01287481  0.51606226  0.36514234  1
  In  In39  1  0.00324355  0.49996242  0.87370104  1
  In  In40  1  0.01082060  0.82249532  0.38228257  1
  In  In41  1  0.01225734  0.82454500  0.87997901  1
  In  In42  1  0.34737418  0.16410476  0.37826499  1
  In  In43  1  0.33791219  0.17039262  0.86582812  1
  In  In44  1  0.32493300  0.50495592  0.38088491  1
  In  In45  1  0.32106726  0.48547508  0.87909351  1
  In  In46  1  0.33499253  0.82697164  0.36707067  1
  In  In47  1  0.33430067  0.83369232  0.87678807  1
  In  In48  1  0.66594363  0.15915542  0.39233301  1
  In  In49  1  0.66986288  0.16766730  0.85944434  1
  In  In50  1  0.65295549  0.49990749  0.37894130  1
  In  In51  1  0.67643919  0.49717009  0.87505311  1
  In  In52  1  0.66861177  0.83144710  0.38070378  1
  In  In53  1  0.65392614  0.83062857  0.87484261  1
  In  In54  1  0.19764491  -0.00528358  0.13726170  1
  In  In55  1  0.18069953  -0.00250648  0.62573692  1
  In  In56  1  0.15091074  0.32500755  0.12509669  1
  In  In57  1  0.15757485  0.34182191  0.63238925  1
  In  In58  1  0.16717982  0.66747276  0.12048244  1
  In  In59  1  0.16174617  0.66126880  0.61861686  1
  In  In60  1  0.48763666  -0.01664160  0.13193669  1
  In  In61  1  0.50146140  -0.00058916  0.61963026  1
  In  In62  1  0.49962913  0.33767440  0.12270539  1
  In  In63  1  0.49739896  0.33298314  0.62776767  1
  In  In64  1  0.46920641  0.69591783  0.15370575  1
  In  In65  1  0.50217254  0.66977600  0.61122872  1
  In  In66  1  0.83557903  0.00408214  0.12577934  1
  In  In67  1  0.81967293  -0.01011664  0.61160030  1
  In  In68  1  0.84073123  0.37497955  0.10979699  1
  In  In69  1  0.83917895  0.32484632  0.62851385  1
  In  In70  1  0.84241563  0.65621318  0.13636315  1
  In  In71  1  0.83539670  0.68318246  0.62577910  1
  In  In72  1  0.33161049  0.33418139  0.24925433  1
  In  In73  1  0.00213591  0.00294065  0.75302336  1
  In  In74  1  0.67249301  0.33582387  0.24843182  1
  In  In75  1  0.16776173  0.16647471  0.50557165  1
  In  In76  1  0.16747600  0.16709415  0.00313154  1
  In  In77  1  0.50094104  0.50850880  0.00012875  1
  In  In78  1  0.67157470  0.66565791  0.75206805  1
  In  In79  1  0.33123681  0.66617166  0.74643863  1
  In  In80  1  0.66651143  -0.00613651  0.26734038  1
  In  In81  1  0.00483063  -0.00659122  0.25516905  1
  In  In82  1  0.49946490  0.17072767  -0.00981784  1
  In  In83  1  0.83363452  0.17037714  -0.00943747  1
  In  In84  1  0.83665362  0.49979363  0.50209336  1
  In  In85  1  0.83807340  0.82525350  -0.00255395  1
  Cu  Cu86  1  0.16193663  0.50154428  0.74880581  1
  Cu  Cu87  1  0.83198199  0.83470421  0.25600204  1
  Cu  Cu88  1  0.82769740  0.16290499  0.74262453  1
  Cu  Cu89  1  0.34038801  -0.00630356  -0.00123270  1
  Cu  Cu90  1  0.83731799  0.50219650  0.24713203  1
  Cu  Cu91  1  -0.00030073  -0.00293630  0.49641107  1
  Cu  Cu92  1  0.16190186  0.50200689  0.24619671  1
  Cu  Cu93  1  0.17292796  0.82966951  0.75357681  1
  Cu  Cu94  1  0.33383697  0.67394907  0.00506208  1
  Cu  Cu95  1  -0.00444821  0.34010179  -0.00246965  1
  Cu  Cu96  1  0.66018638  0.67140845  0.00778136  1
  Cu  Cu97  1  0.66201613  0.33155372  0.50470071  1
  Cu  Cu98  1  0.66717934  0.66539157  0.49710166  1
  Cu  Cu99  1  0.49994628  0.16546493  0.74188988  1
  Cu  Cu100  1  0.00363863  0.67140115  0.49422418  1
  Cu  Cu101  1  0.01173112  -0.01057336  0.00685868  1
  Cu  Cu102  1  0.83689063  0.17900847  0.25020848  1
  Cu  Cu103  1  0.49303430  0.49425059  0.74836088  1
  Cu  Cu104  1  0.16848351  0.16977498  0.74648867  1
  Cu  Cu105  1  0.50529050  0.84025346  0.74156978  1
  Cu  Cu106  1  0.33095582  -0.00587033  0.49829892  1
  Cu  Cu107  1  0.50414077  0.16117096  0.25665969  1
  Cu  Cu108  1  0.00490941  0.34080793  0.50351591  1
  Cu  Cu109  1  0.33073517  0.66764098  0.49129495  1
  Cu  Cu110  1  0.83792305  0.49573275  0.75105522  1
  Cu  Cu111  1  0.33524864  0.33392311  0.50422493  1
  Cu  Cu112  1  0.50232027  0.49916065  0.25347283  1
  Cu  Cu113  1  0.83538464  0.83636065  0.74301144  1
  Cu  Cu114  1  0.65998804  -0.00230217  0.00107639  1
  Se  Se115  1  0.08613330  0.07259743  0.06733942  1
  Se  Se116  1  0.07491017  0.07450808  0.56365247  1
  Se  Se117  1  0.08050607  0.41521657  0.05576576  1
  Se  Se118  1  0.08929479  0.42335447  0.55441934  1
  Se  Se119  1  0.08094587  0.74449923  0.04980388  1
  Se  Se120  1  0.08557462  0.75310239  0.55191932  1
  Se  Se121  1  0.41450122  0.08133607  0.05783056  1
  Se  Se122  1  0.41062544  0.08067326  0.55249551  1
  Se  Se123  1  0.40839435  0.41275667  0.05514721  1
  Se  Se124  1  0.41892242  0.41890016  0.55653612  1
  Se  Se125  1  0.42022384  0.75358631  0.05868204  1
  Se  Se126  1  0.41475435  0.74940830  0.54578419  1
  Se  Se127  1  0.74080410  0.08122798  0.05665703  1
  Se  Se128  1  0.75796914  0.09393988  0.55082696  1
  Se  Se129  1  0.73069133  0.41018662  0.04498056  1
  Se  Se130  1  0.74371429  0.41380822  0.56300205  1
  Se  Se131  1  0.74738496  0.74819760  0.06582079  1
  Se  Se132  1  0.75162413  0.74838041  0.54991625  1
  Se  Se133  1  0.25959668  0.25632308  0.06166227  1
  Se  Se134  1  0.25478221  0.25559539  0.56745439  1
  Se  Se135  1  0.25063716  0.58362429  0.04969702  1
  Se  Se136  1  0.24975697  0.58575787  0.54975999  1
  Se  Se137  1  0.25041580  0.91795509  0.05211963  1
  Se  Se138  1  0.24385348  0.91236009  0.54930223  1
  Se  Se139  1  0.59040605  0.26038525  0.05194087  1
  Se  Se140  1  0.57744271  0.24926577  0.55748060  1
  Se  Se141  1  0.57494558  0.59867282  0.06941870  1
  Se  Se142  1  0.58331582  0.57969102  0.54697804  1
  Se  Se143  1  0.57698296  0.91919912  0.05703526  1
  Se  Se144  1  0.55997847  0.89858150  0.55126492  1
  Se  Se145  1  0.92078785  0.25375808  0.05860746  1
  Se  Se146  1  0.91760845  0.25511830  0.54930590  1
  Se  Se147  1  0.89507121  0.56642388  0.05919185  1
  Se  Se148  1  0.92556119  0.59313203  0.55998271  1
  Se  Se149  1  0.92342380  0.91566556  0.06382091  1
  Se  Se150  1  0.91685895  0.91237302  0.55107731  1
  Se  Se151  1  0.08139796  0.25643122  0.44156387  1
  Se  Se152  1  0.07604389  0.25497890  0.94045940  1
  Se  Se153  1  0.08759329  0.58593280  0.44402832  1
  Se  Se154  1  0.09797563  0.56229663  0.94488888  1
  Se  Se155  1  0.08773032  0.91636152  0.44663849  1
  Se  Se156  1  0.09118331  0.90949439  0.94904061  1
  Se  Se157  1  0.41604934  0.24438536  0.45553684  1
  Se  Se158  1  0.40147794  0.26296271  0.94234960  1
  Se  Se159  1  0.41881417  0.58127268  0.44432695  1
  Se  Se160  1  0.40652529  0.59428931  0.93680716  1
  Se  Se161  1  0.41031551  0.90973004  0.44255259  1
  Se  Se162  1  0.42458918  0.91525112  0.94198738  1
  Se  Se163  1  0.74971237  0.25280610  0.45149461  1
  Se  Se164  1  0.74057521  0.25742519  0.93392368  1
  Se  Se165  1  0.75153907  0.58796056  0.43729598  1
  Se  Se166  1  0.73809621  0.58911584  0.94887047  1
  Se  Se167  1  0.73048555  0.92772824  0.45046858  1
  Se  Se168  1  0.74728631  0.92331506  0.94177396  1
  Se  Se169  1  0.24968493  0.07661772  0.43952961  1
  Se  Se170  1  0.26007947  0.07828684  0.94060705  1
  Se  Se171  1  0.25037167  0.41663015  0.45177941  1
  Se  Se172  1  0.23758806  0.41892549  0.95430032  1
  Se  Se173  1  0.24704162  0.75138607  0.43843972  1
  Se  Se174  1  0.25182378  0.75472074  0.94677755  1
  Se  Se175  1  0.57209849  0.08466849  0.45288894  1
  Se  Se176  1  0.59099777  0.07812449  0.93413017  1
  Se  Se177  1  0.58052077  0.41568218  0.45113424  1
  Se  Se178  1  0.57901743  0.41298336  0.93558429  1
  Se  Se179  1  0.58086064  0.74499117  0.44331858  1
  Se  Se180  1  0.58078311  0.75827316  0.95433590  1
  Se  Se181  1  0.91675937  0.08729733  0.45122125  1
  Se  Se182  1  0.93181124  0.06925996  0.94557735  1
  Se  Se183  1  0.92796884  0.41804841  0.43742358  1
  Se  Se184  1  0.91191685  0.41804903  0.94035275  1
  Se  Se185  1  0.91220261  0.75404492  0.44863822  1
  Se  Se186  1  0.92956486  0.73040362  0.94558158  1
  Se  Se187  1  0.24963230  0.24696233  0.31613398  1
  Se  Se188  1  0.24804728  0.25353884  0.80370089  1
  Se  Se189  1  0.24758181  0.57704122  0.30408024  1
  Se  Se190  1  0.24298175  0.58045515  0.80985451  1
  Se  Se191  1  0.26647786  0.91996690  0.29431475  1
  Se  Se192  1  0.25940538  0.91468755  0.80133544  1
  Se  Se193  1  0.58571545  0.24415377  0.31171475  1
  Se  Se194  1  0.58014119  0.25050480  0.79730391  1
  Se  Se195  1  0.58603136  0.58366577  0.30440214  1
  Se  Se196  1  0.57373117  0.57577899  0.80828476  1
  Se  Se197  1  0.56753125  0.90020732  0.30969879  1
  Se  Se198  1  0.59049832  0.91721824  0.79925134  1
  Se  Se199  1  0.92153509  0.25827473  0.30432413  1
  Se  Se200  1  0.91345045  0.24516013  0.79635157  1
  Se  Se201  1  0.92010495  0.58878884  0.29838830  1
  Se  Se202  1  0.91762848  0.58235257  0.80386667  1
  Se  Se203  1  0.90751540  0.91561798  0.31819465  1
  Se  Se204  1  0.91366880  0.90802194  0.81281694  1
  Se  Se205  1  0.09005585  0.08592723  0.31597354  1
  Se  Se206  1  0.09535941  0.09016412  0.81464333  1
  Se  Se207  1  0.08230661  0.41638263  0.30056946  1
  Se  Se208  1  0.07943594  0.41404852  0.80088849  1
  Se  Se209  1  0.07736269  0.75138576  0.30212245  1
  Se  Se210  1  0.08975347  0.74649769  0.80598351  1
  Se  Se211  1  0.42050086  0.07801890  0.30739201  1
  Se  Se212  1  0.41616538  0.08376819  0.79842026  1
  Se  Se213  1  0.42493121  0.41533757  0.31359593  1
  Se  Se214  1  0.40599772  0.41830719  0.80339086  1
  Se  Se215  1  0.40552673  0.73252390  0.29928110  1
  Se  Se216  1  0.43001913  0.75457054  0.80286001  1
  Se  Se217  1  0.75885766  0.09783640  0.31159394  1
  Se  Se218  1  0.74724141  0.07523601  0.79419011  1
  Se  Se219  1  0.75872061  0.42581304  0.31243950  1
  Se  Se220  1  0.74750011  0.41549890  0.79995134  1
  Se  Se221  1  0.74671152  0.75126961  0.30692091  1
  Se  Se222  1  0.76129641  0.75787257  0.81212611  1
  Se  Se223  1  0.23831287  0.09873914  0.20812054  1
  Se  Se224  1  0.25077130  0.08018611  0.70014095  1
  Se  Se225  1  0.24453022  0.42262638  0.18589067  1
  Se  Se226  1  0.25017187  0.42076289  0.69701729  1
  Se  Se227  1  0.26484262  0.72886455  0.19019551  1
  Se  Se228  1  0.24879964  0.75831424  0.68376206  1
  Se  Se229  1  0.58205437  0.08052961  0.19464729  1
  Se  Se230  1  0.58328285  0.08080647  0.69043790  1
  Se  Se231  1  0.58214748  0.42642546  0.18889404  1
  Se  Se232  1  0.58288199  0.41475071  0.69838912  1
  Se  Se233  1  0.58864397  0.74801669  0.20407850  1
  Se  Se234  1  0.58384254  0.75143994  0.68716984  1
  Se  Se235  1  0.91596978  0.09183032  0.19413376  1
  Se  Se236  1  0.91218057  0.08162511  0.68566645  1
  Se  Se237  1  0.91975097  0.41641189  0.19577201  1
  Se  Se238  1  0.91985759  0.41350736  0.69432178  1
  Se  Se239  1  0.91519821  0.75263200  0.20109729  1
  Se  Se240  1  0.92329289  0.75004005  0.69962845  1
  Se  Se241  1  0.09061220  0.24938504  0.20749495  1
  Se  Se242  1  0.07941985  0.25084391  0.69860490  1
  Se  Se243  1  0.08180769  0.58704554  0.19187300  1
  Se  Se244  1  0.08283516  0.58964410  0.69618117  1
  Se  Se245  1  0.09495306  0.90827286  0.19292028  1
  Se  Se246  1  0.08976973  0.91069327  0.69316565  1
  Se  Se247  1  0.42837095  0.24112137  0.19243516  1
  Se  Se248  1  0.41161741  0.25335887  0.69771731  1
  Se  Se249  1  0.41067501  0.57810655  0.20476846  1
  Se  Se250  1  0.42456953  0.58088251  0.68600124  1
  Se  Se251  1  0.38868035  0.92696923  0.19983357  1
  Se  Se252  1  0.41529519  0.92018532  0.69239800  1
  Se  Se253  1  0.76299121  0.25294745  0.18252751  1
  Se  Se254  1  0.74467514  0.25023583  0.69289037  1
  Se  Se255  1  0.74444312  0.58274428  0.20053973  1
  Se  Se256  1  0.75985152  0.57627200  0.68795412  1
  Se  Se257  1  0.75537551  0.91571242  0.19391564  1
  Se  Se258  1  0.74767127  0.91263803  0.68971239  1
