# generated using pymatgen
data_In86Cu29Se144
_symmetry_space_group_name_H-M   'P 1'
_cell_length_a   17.58840298
_cell_length_b   17.59398097
_cell_length_c   23.44436677
_cell_angle_alpha   90.01681821
_cell_angle_beta   90.00937263
_cell_angle_gamma   90.01462784
_symmetry_Int_Tables_number   1
_chemical_formula_structural   In86Cu29Se144
_chemical_formula_sum   'In86 Cu29 Se144'
_cell_volume   7254.85928943
_cell_formula_units_Z   1
loop_
 _symmetry_equiv_pos_site_id
 _symmetry_equiv_pos_as_xyz
  1  'x, y, z'
loop_
 _atom_site_type_symbol
 _atom_site_label
 _atom_site_symmetry_multiplicity
 _atom_site_fract_x
 _atom_site_fract_y
 _atom_site_fract_z
 _atom_site_occupancy
  In  In0  1  -0.00941780  0.16923588  0.13861079  1
  In  In1  1  0.00973143  0.16898699  0.61277060  1
  In  In2  1  -0.01352614  0.49279858  0.12929598  1
  In  In3  1  -0.00827057  0.51120448  0.62605786  1
  In  In4  1  -0.00203447  0.84927708  0.13130382  1
  In  In5  1  -0.01674638  0.82972503  0.60975585  1
  In  In6  1  0.33088308  0.17950094  0.12544681  1
  In  In7  1  0.34265565  0.17277644  0.61491262  1
  In  In8  1  0.35865807  0.50155510  0.11677845  1
  In  In9  1  0.34267084  0.49223189  0.63259686  1
  In  In10  1  0.33550502  0.81534357  0.12916685  1
  In  In11  1  0.32804696  0.83631755  0.63161912  1
  In  In12  1  0.66455589  0.16100603  0.14480703  1
  In  In13  1  0.66375274  0.17257290  0.61768623  1
  In  In14  1  0.65627754  0.50935906  0.13559830  1
  In  In15  1  0.65649962  0.48328681  0.60543596  1
  In  In16  1  0.66432496  0.83279303  0.12549465  1
  In  In17  1  0.68722005  0.83487935  0.63030698  1
  In  In18  1  0.14564772  0.01862595  0.39569406  1
  In  In19  1  0.16603534  -0.00353554  0.87113066  1
  In  In20  1  0.15234480  0.32997605  0.37546601  1
  In  In21  1  0.17004943  0.33921883  0.85744310  1
  In  In22  1  0.17950510  0.66827559  0.37317284  1
  In  In23  1  0.16878457  0.66685467  0.86583808  1
  In  In24  1  0.51607004  0.00812196  0.36886994  1
  In  In25  1  0.50460309  -0.01606032  0.87137985  1
  In  In26  1  0.53644178  0.31050794  0.40711674  1
  In  In27  1  0.50252135  0.34098779  0.87043040  1
  In  In28  1  0.49704723  0.65907076  0.37060679  1
  In  In29  1  0.48686504  0.67119408  0.88752759  1
  In  In30  1  0.83359555  0.00255782  0.38241415  1
  In  In31  1  0.81525546  -0.00439390  0.86688599  1
  In  In32  1  0.82579057  0.32879800  0.38674567  1
  In  In33  1  0.83062918  0.33678195  0.85848199  1
  In  In34  1  0.82599285  0.67733312  0.38071682  1
  In  In35  1  0.84253165  0.66902061  0.87260535  1
  In  In36  1  -0.01053877  0.16241004  0.38701314  1
  In  In37  1  -0.01209029  0.16995251  0.86607454  1
  In  In38  1  -0.00029570  0.48226281  0.37360760  1
  In  In39  1  -0.00141545  0.50116488  0.86075032  1
  In  In40  1  -0.01538006  0.85454694  0.39395822  1
  In  In41  1  0.00024981  0.82311117  0.87315245  1
  In  In42  1  0.33658532  0.16612297  0.38164471  1
  In  In43  1  0.32668871  0.17010592  0.86874128  1
  In  In44  1  0.34159036  0.51272875  0.37076703  1
  In  In45  1  0.34335574  0.50551297  0.86897220  1
  In  In46  1  0.33058028  0.82174773  0.37594547  1
  In  In47  1  0.35351557  0.81857161  0.87944547  1
  In  In48  1  0.67154293  0.17068905  0.38334518  1
  In  In49  1  0.66274825  0.17123980  0.86513475  1
  In  In50  1  0.66477633  0.49967800  0.37992384  1
  In  In51  1  0.66173040  0.48869498  0.87179231  1
  In  In52  1  0.67914490  0.84315351  0.36862018  1
  In  In53  1  0.66043327  0.83575821  0.87604863  1
  In  In54  1  0.15913638  -0.00749735  0.13457465  1
  In  In55  1  0.15894554  -0.00967054  0.60868075  1
  In  In56  1  0.16388743  0.32543138  0.12883777  1
  In  In57  1  0.17371879  0.32858817  0.62747400  1
  In  In58  1  0.17796848  0.67265706  0.12950643  1
  In  In59  1  0.16084725  0.67537035  0.63140281  1
  In  In60  1  0.51969309  0.00040912  0.12961338  1
  In  In61  1  0.50061877  0.01143309  0.62699154  1
  In  In62  1  0.50419971  0.34129447  0.12756433  1
  In  In63  1  0.49951108  0.33331074  0.62078514  1
  In  In64  1  0.49977271  0.66663807  0.12314702  1
  In  In65  1  0.50664764  0.65640842  0.62896411  1
  In  In66  1  0.83344348  -0.00334580  0.13540181  1
  In  In67  1  0.82452864  -0.00819028  0.61184345  1
  In  In68  1  0.83197560  0.32663067  0.13439396  1
  In  In69  1  0.82783980  0.33804412  0.61525193  1
  In  In70  1  0.81571122  0.66336726  0.12695959  1
  In  In71  1  0.83978472  0.67240831  0.61679762  1
  In  In72  1  0.33322207  -0.00302293  0.25860934  1
  In  In73  1  -0.00126827  0.66674891  0.25435807  1
  In  In74  1  0.82991478  0.16590465  0.00194585  1
  In  In75  1  0.50067026  0.83461661  0.49725722  1
  In  In76  1  -0.00214039  0.00088380  0.73843669  1
  In  In77  1  0.82638551  0.50339563  -0.00195983  1
  In  In78  1  0.17099970  0.82893485  -0.00582718  1
  In  In79  1  0.17229597  0.50173435  -0.01032125  1
  In  In80  1  0.66835471  0.66454599  0.74556803  1
  In  In81  1  0.16456558  0.16795167  0.00490363  1
  In  In82  1  0.16805225  0.49986248  0.49869938  1
  In  In83  1  0.33555650  0.00409791  0.74800016  1
  In  In84  1  0.49946167  0.16591673  0.00231892  1
  In  In85  1  0.34225840  0.33986600  0.24737804  1
  Cu  Cu86  1  0.16916371  0.82655475  0.75030055  1
  Cu  Cu87  1  0.66593899  0.00165442  0.49732397  1
  Cu  Cu88  1  0.50043165  0.82365080  0.24955693  1
  Cu  Cu89  1  0.66012627  0.67041831  0.00391110  1
  Cu  Cu90  1  0.49848808  0.49918340  0.74610168  1
  Cu  Cu91  1  0.66843156  0.66802944  0.50043014  1
  Cu  Cu92  1  0.66826930  -0.00811150  0.00050453  1
  Cu  Cu93  1  0.83154144  0.17828810  0.73937898  1
  Cu  Cu94  1  0.66569906  0.33670098  0.00002446  1
  Cu  Cu95  1  0.15776604  0.83916993  0.25675589  1
  Cu  Cu96  1  0.16212821  0.49905758  0.74371274  1
  Cu  Cu97  1  -0.00182783  0.67692005  -0.00185624  1
  Cu  Cu98  1  -0.01269819  -0.00209128  0.00667776  1
  Cu  Cu99  1  -0.00089987  0.66534122  0.50040233  1
  Cu  Cu100  1  0.33684436  -0.00594212  0.00193080  1
  Cu  Cu101  1  0.17040880  0.49895272  0.25352716  1
  Cu  Cu102  1  0.15936667  0.16531832  0.25784872  1
  Cu  Cu103  1  0.33236065  0.33751139  0.50359030  1
  Cu  Cu104  1  0.33469141  0.66382947  0.50160226  1
  Cu  Cu105  1  0.83194819  0.16538875  0.26325001  1
  Cu  Cu106  1  0.82840372  0.83516923  0.25564147  1
  Cu  Cu107  1  0.83009650  0.48694257  0.25623903  1
  Cu  Cu108  1  0.00501277  0.33777996  -0.00649760  1
  Cu  Cu109  1  -0.00402694  0.33269011  0.49953225  1
  Cu  Cu110  1  0.16916280  0.16988015  0.73686314  1
  Cu  Cu111  1  0.50772603  0.49746067  0.25222396  1
  Cu  Cu112  1  0.82777285  0.50120751  0.73990235  1
  Cu  Cu113  1  0.50383254  0.17600379  0.74208356  1
  Cu  Cu114  1  0.33451994  -0.00113286  0.50044066  1
  Se  Se115  1  0.07061838  0.07768566  0.06358496  1
  Se  Se116  1  0.09180509  0.08689209  0.54505178  1
  Se  Se117  1  0.07989688  0.41611967  0.05709691  1
  Se  Se118  1  0.07805663  0.41316589  0.56006469  1
  Se  Se119  1  0.07784663  0.74921022  0.06322155  1
  Se  Se120  1  0.08266409  0.74731769  0.55434781  1
  Se  Se121  1  0.40908555  0.07590424  0.06549174  1
  Se  Se122  1  0.42155738  0.08131671  0.55030059  1
  Se  Se123  1  0.41901662  0.40159299  0.05176055  1
  Se  Se124  1  0.41636039  0.42193025  0.55343416  1
  Se  Se125  1  0.41446193  0.74711000  0.05462657  1
  Se  Se126  1  0.41462245  0.74587991  0.56189597  1
  Se  Se127  1  0.73983509  0.07849583  0.06271170  1
  Se  Se128  1  0.74821534  0.08730837  0.54993975  1
  Se  Se129  1  0.74603444  0.41218089  0.06375064  1
  Se  Se130  1  0.74889798  0.41254438  0.53954980  1
  Se  Se131  1  0.74855232  0.75063480  0.05457925  1
  Se  Se132  1  0.75082025  0.75471749  0.55097552  1
  Se  Se133  1  0.25868860  0.26716431  0.05121980  1
  Se  Se134  1  0.24766685  0.25089882  0.55138921  1
  Se  Se135  1  0.25561447  0.58698897  0.05836995  1
  Se  Se136  1  0.25353246  0.58657110  0.56396406  1
  Se  Se137  1  0.25154963  0.92051483  0.06239039  1
  Se  Se138  1  0.25767671  0.90914856  0.55198188  1
  Se  Se139  1  0.59814130  0.24763848  0.06211336  1
  Se  Se140  1  0.57453513  0.24877521  0.54976822  1
  Se  Se141  1  0.58398688  0.57938496  0.05566755  1
  Se  Se142  1  0.57964294  0.58713719  0.54938647  1
  Se  Se143  1  0.58023953  0.91366041  0.05363914  1
  Se  Se144  1  0.58963388  0.92028494  0.56084110  1
  Se  Se145  1  0.92652922  0.25855379  0.05651962  1
  Se  Se146  1  0.91378307  0.24794098  0.55175707  1
  Se  Se147  1  0.92180927  0.59237432  0.05820636  1
  Se  Se148  1  0.91298293  0.58002654  0.54799553  1
  Se  Se149  1  0.90674921  0.91436657  0.05940433  1
  Se  Se150  1  0.93506071  0.94169131  0.54744381  1
  Se  Se151  1  0.08176425  0.24855511  0.44940923  1
  Se  Se152  1  0.08003032  0.25311510  0.93459554  1
  Se  Se153  1  0.07765517  0.58806070  0.43642093  1
  Se  Se154  1  0.07088693  0.59199322  0.93796793  1
  Se  Se155  1  0.10822058  0.89360868  0.44485316  1
  Se  Se156  1  0.07364261  0.92622294  0.94428000  1
  Se  Se157  1  0.41418504  0.25096428  0.45137896  1
  Se  Se158  1  0.41233737  0.25150436  0.93816283  1
  Se  Se159  1  0.41942810  0.58471985  0.44808033  1
  Se  Se160  1  0.42053864  0.56962567  0.94886910  1
  Se  Se161  1  0.41377441  0.92520040  0.43427901  1
  Se  Se162  1  0.42005473  0.91549323  0.94669332  1
  Se  Se163  1  0.76076770  0.23573642  0.45776880  1
  Se  Se164  1  0.74680174  0.26016381  0.93851410  1
  Se  Se165  1  0.75163117  0.58462671  0.44665147  1
  Se  Se166  1  0.73758070  0.59349256  0.93749511  1
  Se  Se167  1  0.75027039  0.91380109  0.44918637  1
  Se  Se168  1  0.75228335  0.91310171  0.94508524  1
  Se  Se169  1  0.25266713  0.08817536  0.45148711  1
  Se  Se170  1  0.25590134  0.07401501  0.94371540  1
  Se  Se171  1  0.25631632  0.41213975  0.43530063  1
  Se  Se172  1  0.25640276  0.40512083  0.93404897  1
  Se  Se173  1  0.25033597  0.74688549  0.45092201  1
  Se  Se174  1  0.25974980  0.73158805  0.94322503  1
  Se  Se175  1  0.57988099  0.08552464  0.44865264  1
  Se  Se176  1  0.59204924  0.07913915  0.94122681  1
  Se  Se177  1  0.57077571  0.43792189  0.45251992  1
  Se  Se178  1  0.58098403  0.41665052  0.94723417  1
  Se  Se179  1  0.59067128  0.74770034  0.43616193  1
  Se  Se180  1  0.58115472  0.75364045  0.94677167  1
  Se  Se181  1  0.93142560  0.05953622  0.45542494  1
  Se  Se182  1  0.91803333  0.07662631  0.93908871  1
  Se  Se183  1  0.91447382  0.41966316  0.44916659  1
  Se  Se184  1  0.91850624  0.41361767  0.93648340  1
  Se  Se185  1  0.91259497  0.75147202  0.45170639  1
  Se  Se186  1  0.91151316  0.75646098  0.94672385  1
  Se  Se187  1  0.24831063  0.24803740  0.30834892  1
  Se  Se188  1  0.25269422  0.24860987  0.79435255  1
  Se  Se189  1  0.25431812  0.58641727  0.29956566  1
  Se  Se190  1  0.24686298  0.57618252  0.80240336  1
  Se  Se191  1  0.23818772  0.91731642  0.31919716  1
  Se  Se192  1  0.25110071  0.90509201  0.81043819  1
  Se  Se193  1  0.58880565  0.25410053  0.31478139  1
  Se  Se194  1  0.58414535  0.25934718  0.79985352  1
  Se  Se195  1  0.58958832  0.58389543  0.30482969  1
  Se  Se196  1  0.57684123  0.57997061  0.80832839  1
  Se  Se197  1  0.58074200  0.91019440  0.30226842  1
  Se  Se198  1  0.60113903  0.92855850  0.80216146  1
  Se  Se199  1  0.91427027  0.24970182  0.31669369  1
  Se  Se200  1  0.91968527  0.25593918  0.79370289  1
  Se  Se201  1  0.90900858  0.57515359  0.31275730  1
  Se  Se202  1  0.90914047  0.58305959  0.79759417  1
  Se  Se203  1  0.91256369  0.91674284  0.30969464  1
  Se  Se204  1  0.91643033  0.91431450  0.80699730  1
  Se  Se205  1  0.07576194  0.08544779  0.31264462  1
  Se  Se206  1  0.09244310  0.09096612  0.80259737  1
  Se  Se207  1  0.08447379  0.41309342  0.29907371  1
  Se  Se208  1  0.07575732  0.41330004  0.79365684  1
  Se  Se209  1  0.07994238  0.75722283  0.31818697  1
  Se  Se210  1  0.07950196  0.74634181  0.80065525  1
  Se  Se211  1  0.42459942  0.09657250  0.30541141  1
  Se  Se212  1  0.42991269  0.09323709  0.80823628  1
  Se  Se213  1  0.43006778  0.41783512  0.31467547  1
  Se  Se214  1  0.41481762  0.41406786  0.79912153  1
  Se  Se215  1  0.41369326  0.74612818  0.30414036  1
  Se  Se216  1  0.42453310  0.74326511  0.80328413  1
  Se  Se217  1  0.74751927  0.08047858  0.31330482  1
  Se  Se218  1  0.75551503  0.09588183  0.80015856  1
  Se  Se219  1  0.74658174  0.41065080  0.31383205  1
  Se  Se220  1  0.74384364  0.42024921  0.79516940  1
  Se  Se221  1  0.74665628  0.74440406  0.30186837  1
  Se  Se222  1  0.75515268  0.75459979  0.80730995  1
  Se  Se223  1  0.24301492  0.09244341  0.19453476  1
  Se  Se224  1  0.24451718  0.08197348  0.68041707  1
  Se  Se225  1  0.24891377  0.42665392  0.18528382  1
  Se  Se226  1  0.25029057  0.41472428  0.69685457  1
  Se  Se227  1  0.24382649  0.75700855  0.20515132  1
  Se  Se228  1  0.25663910  0.74443574  0.69987388  1
  Se  Se229  1  0.58512860  0.07404654  0.20919222  1
  Se  Se230  1  0.58801002  0.08951417  0.69382192  1
  Se  Se231  1  0.59002160  0.40982342  0.20140017  1
  Se  Se232  1  0.58193979  0.42013701  0.68921295  1
  Se  Se233  1  0.58510219  0.74489945  0.19353643  1
  Se  Se234  1  0.58011143  0.76096598  0.68952337  1
  Se  Se235  1  0.91215713  0.08263363  0.20438883  1
  Se  Se236  1  0.90966895  0.09361830  0.68176056  1
  Se  Se237  1  0.91754195  0.40850436  0.20236873  1
  Se  Se238  1  0.91207870  0.41723875  0.68787342  1
  Se  Se239  1  0.90815839  0.75455784  0.19262512  1
  Se  Se240  1  0.91324899  0.75666393  0.68859884  1
  Se  Se241  1  0.08133141  0.25156473  0.20087958  1
  Se  Se242  1  0.07820449  0.25090063  0.69049594  1
  Se  Se243  1  0.08803561  0.57659829  0.18992362  1
  Se  Se244  1  0.07864109  0.58687612  0.69581381  1
  Se  Se245  1  0.07342815  0.92458925  0.20814008  1
  Se  Se246  1  0.09202142  0.90549688  0.68811866  1
  Se  Se247  1  0.43101671  0.23978697  0.19404421  1
  Se  Se248  1  0.41306456  0.25310683  0.69147925  1
  Se  Se249  1  0.42328088  0.57935536  0.19636892  1
  Se  Se250  1  0.41465694  0.58773375  0.69877496  1
  Se  Se251  1  0.42020291  0.91066150  0.19215293  1
  Se  Se252  1  0.42926447  0.91148110  0.69501656  1
  Se  Se253  1  0.75144031  0.24815770  0.20534332  1
  Se  Se254  1  0.74467935  0.25847433  0.68727706  1
  Se  Se255  1  0.75360132  0.57706700  0.20255589  1
  Se  Se256  1  0.74758748  0.57649073  0.67662492  1
  Se  Se257  1  0.74416427  0.91481376  0.19853580  1
  Se  Se258  1  0.76131814  0.92411341  0.69667894  1
