# generated using pymatgen
data_In86Cu29Se144
_symmetry_space_group_name_H-M   'P 1'
_cell_length_a   17.57660971
_cell_length_b   17.57781194
_cell_length_c   23.42479217
_cell_angle_alpha   89.99628679
_cell_angle_beta   89.99927548
_cell_angle_gamma   90.01502877
_symmetry_Int_Tables_number   1
_chemical_formula_structural   In86Cu29Se144
_chemical_formula_sum   'In86 Cu29 Se144'
_cell_volume   7237.28464073
_cell_formula_units_Z   1
loop_
 _symmetry_equiv_pos_site_id
 _symmetry_equiv_pos_as_xyz
  1  'x, y, z'
loop_
 _atom_site_type_symbol
 _atom_site_label
 _atom_site_symmetry_multiplicity
 _atom_site_fract_x
 _atom_site_fract_y
 _atom_site_fract_z
 _atom_site_occupancy
  In  In0  1  -0.00146105  0.16059407  0.11962594  1
  In  In1  1  0.00199831  0.16815839  0.62433217  1
  In  In2  1  0.00010808  0.51628475  0.11937769  1
  In  In3  1  -0.00181242  0.49481159  0.63048885  1
  In  In4  1  0.00387226  0.82265826  0.12368604  1
  In  In5  1  -0.00544424  0.84265602  0.63373572  1
  In  In6  1  0.32047789  0.16766911  0.12291240  1
  In  In7  1  0.33121167  0.16667680  0.62698735  1
  In  In8  1  0.33765351  0.49989034  0.12843325  1
  In  In9  1  0.32159251  0.50734310  0.62843112  1
  In  In10  1  0.33208575  0.83076918  0.12676764  1
  In  In11  1  0.33928858  0.82885989  0.62999012  1
  In  In12  1  0.67893630  0.16700259  0.12684063  1
  In  In13  1  0.67913880  0.17228508  0.61218848  1
  In  In14  1  0.66215069  0.49608393  0.13223076  1
  In  In15  1  0.69264332  0.48175697  0.64696531  1
  In  In16  1  0.66054360  0.84714752  0.12443648  1
  In  In17  1  0.65688607  0.82925578  0.61440891  1
  In  In18  1  0.18215773  -0.00073912  0.37398642  1
  In  In19  1  0.16727882  -0.00303145  0.87587829  1
  In  In20  1  0.16152397  0.33828675  0.38514394  1
  In  In21  1  0.15751039  0.32490827  0.86690514  1
  In  In22  1  0.16838564  0.65877273  0.37241624  1
  In  In23  1  0.17624990  0.68119676  0.86648319  1
  In  In24  1  0.49295038  0.00688334  0.38606804  1
  In  In25  1  0.48009439  -0.00297379  0.87177397  1
  In  In26  1  0.50018369  0.31448673  0.38013136  1
  In  In27  1  0.50581134  0.34137309  0.86102821  1
  In  In28  1  0.49510262  0.68093819  0.38025033  1
  In  In29  1  0.50099208  0.67479440  0.87172723  1
  In  In30  1  0.82493852  0.00402566  0.39068795  1
  In  In31  1  0.85109847  0.00294349  0.87168942  1
  In  In32  1  0.83148184  0.33635645  0.38039713  1
  In  In33  1  0.82673209  0.32621096  0.86241093  1
  In  In34  1  0.82980047  0.66973541  0.39044118  1
  In  In35  1  0.83447145  0.66673808  0.85602543  1
  In  In36  1  -0.00624258  0.17476895  0.38556890  1
  In  In37  1  0.00262906  0.16383212  0.87377177  1
  In  In38  1  0.00260255  0.50060948  0.38648647  1
  In  In39  1  -0.00427104  0.50086399  0.85483474  1
  In  In40  1  -0.00682282  0.82501330  0.37805992  1
  In  In41  1  0.01181962  0.84493951  0.86328954  1
  In  In42  1  0.34187470  0.15873911  0.38241475  1
  In  In43  1  0.32137460  0.15379388  0.86441860  1
  In  In44  1  0.31802286  0.50309960  0.37840138  1
  In  In45  1  0.33842299  0.50847560  0.86571726  1
  In  In46  1  0.33568338  0.84792741  0.36152058  1
  In  In47  1  0.32706390  0.82862594  0.87773401  1
  In  In48  1  0.66043496  0.16679040  0.38477250  1
  In  In49  1  0.67184923  0.18014072  0.87045037  1
  In  In50  1  0.68320285  0.49804081  0.38281981  1
  In  In51  1  0.66934812  0.50069960  0.85737778  1
  In  In52  1  0.66575433  0.83673875  0.39366866  1
  In  In53  1  0.66374733  0.82538136  0.87375675  1
  In  In54  1  0.17305473  0.00403876  0.12524281  1
  In  In55  1  0.15808538  0.00876659  0.63132954  1
  In  In56  1  0.17816108  0.32537541  0.12071464  1
  In  In57  1  0.16399830  0.33208986  0.62762085  1
  In  In58  1  0.17161126  0.67751396  0.12118804  1
  In  In59  1  0.17439105  0.65988107  0.63144689  1
  In  In60  1  0.49657115  -0.01912402  0.12123769  1
  In  In61  1  0.49566140  -0.00936200  0.61511105  1
  In  In62  1  0.50631035  0.34201833  0.12784409  1
  In  In63  1  0.50801054  0.32382335  0.62950890  1
  In  In64  1  0.48568844  0.67051631  0.12692325  1
  In  In65  1  0.49772971  0.67360471  0.62823574  1
  In  In66  1  0.82279487  0.00677115  0.12672325  1
  In  In67  1  0.83923619  0.01039742  0.61147888  1
  In  In68  1  0.83795770  0.32106927  0.13003188  1
  In  In69  1  0.84064026  0.33258576  0.62757361  1
  In  In70  1  0.84668731  0.66854460  0.12481507  1
  In  In71  1  0.83277880  0.66247409  0.63016477  1
  In  In72  1  0.49832870  0.16519037  -0.00927683  1
  In  In73  1  0.00718314  0.67004735  0.24941172  1
  In  In74  1  0.66690388  0.00198207  0.73399963  1
  In  In75  1  0.16388701  0.49962467  -0.00149808  1
  In  In76  1  0.00011262  0.33854034  0.26040663  1
  In  In77  1  0.16484304  0.83210544  0.49651355  1
  In  In78  1  -0.00188351  0.00021175  0.25013973  1
  In  In79  1  0.33666348  0.32867951  0.24929060  1
  In  In80  1  0.50294800  0.50000550  0.51454057  1
  In  In81  1  0.83560272  0.83511760  0.00113526  1
  In  In82  1  0.66529884  0.66514448  0.26693908  1
  In  In83  1  0.49839278  0.50228262  -0.01205406  1
  In  In84  1  0.66340964  0.00012921  0.25971574  1
  In  In85  1  0.82593973  0.49173651  -0.02309966  1
  Cu  Cu86  1  0.66846206  0.00598668  0.00024097  1
  Cu  Cu87  1  0.65706584  0.67184529  -0.00234837  1
  Cu  Cu88  1  0.67184244  0.66006814  0.50830008  1
  Cu  Cu89  1  0.00118669  0.00642050  0.50529759  1
  Cu  Cu90  1  0.32653673  0.32805079  0.50304480  1
  Cu  Cu91  1  0.00794067  0.00280563  -0.00297891  1
  Cu  Cu92  1  0.00052858  0.66380685  0.50798163  1
  Cu  Cu93  1  0.32790383  -0.00694185  -0.00143945  1
  Cu  Cu94  1  0.83478252  0.83264842  0.74644471  1
  Cu  Cu95  1  0.49804198  0.16926408  0.74823513  1
  Cu  Cu96  1  0.49458528  0.83161039  0.25003978  1
  Cu  Cu97  1  0.16676314  0.16710172  0.25138344  1
  Cu  Cu98  1  0.67049318  0.33599548  0.50684212  1
  Cu  Cu99  1  0.00165449  0.66950087  -0.01199588  1
  Cu  Cu100  1  0.16493323  0.16626578  0.74930490  1
  Cu  Cu101  1  -0.00132092  0.33419661  0.50755223  1
  Cu  Cu102  1  0.49712387  0.83872254  0.74697103  1
  Cu  Cu103  1  0.33001608  0.32792657  -0.00816486  1
  Cu  Cu104  1  0.33005291  -0.00029727  0.50146687  1
  Cu  Cu105  1  0.67864108  0.32818755  -0.00165301  1
  Cu  Cu106  1  0.49981219  0.49411133  0.25276011  1
  Cu  Cu107  1  0.16843735  0.83185493  0.75040238  1
  Cu  Cu108  1  0.00425113  0.32196523  -0.00454110  1
  Cu  Cu109  1  0.50376453  0.15729274  0.25663720  1
  Cu  Cu110  1  0.49231199  0.50464939  0.74280155  1
  Cu  Cu111  1  0.83509711  0.49991720  0.25689381  1
  Cu  Cu112  1  0.83695271  0.16314905  0.74047354  1
  Cu  Cu113  1  0.16703730  0.49778157  0.74871029  1
  Cu  Cu114  1  0.33464360  0.67118183  0.50619847  1
  Se  Se115  1  0.08929737  0.08469657  0.05471447  1
  Se  Se116  1  0.08876287  0.08849066  0.55403908  1
  Se  Se117  1  0.07322527  0.40695827  0.06031393  1
  Se  Se118  1  0.08400255  0.41856002  0.55807882  1
  Se  Se119  1  0.08070878  0.74623768  0.04913933  1
  Se  Se120  1  0.08099949  0.74819460  0.56523168  1
  Se  Se121  1  0.41079921  0.07823611  0.05631074  1
  Se  Se122  1  0.41218499  0.08433368  0.55495429  1
  Se  Se123  1  0.41064532  0.40725337  0.05271593  1
  Se  Se124  1  0.40670117  0.40719067  0.56499171  1
  Se  Se125  1  0.42495949  0.76111660  0.05637840  1
  Se  Se126  1  0.42045623  0.75528963  0.55437259  1
  Se  Se127  1  0.75298752  0.08843801  0.05075176  1
  Se  Se128  1  0.73853769  0.07159500  0.54580936  1
  Se  Se129  1  0.74975103  0.41664923  0.05868220  1
  Se  Se130  1  0.75525017  0.41791898  0.55908963  1
  Se  Se131  1  0.74257433  0.74261530  0.06115703  1
  Se  Se132  1  0.75543727  0.74762935  0.55735027  1
  Se  Se133  1  0.24826935  0.24449085  0.04499972  1
  Se  Se134  1  0.24379619  0.24566493  0.55774353  1
  Se  Se135  1  0.25960714  0.58493022  0.05596452  1
  Se  Se136  1  0.24737373  0.58557015  0.55170396  1
  Se  Se137  1  0.24705699  0.91370196  0.05716264  1
  Se  Se138  1  0.24986377  0.91946159  0.56227045  1
  Se  Se139  1  0.58663308  0.25546595  0.05457974  1
  Se  Se140  1  0.58089852  0.25040454  0.55085248  1
  Se  Se141  1  0.58723534  0.58423314  0.05861747  1
  Se  Se142  1  0.59737863  0.58203401  0.57375965  1
  Se  Se143  1  0.58460953  0.91678940  0.04588675  1
  Se  Se144  1  0.58533405  0.91974517  0.54595460  1
  Se  Se145  1  0.91704337  0.24939653  0.05414600  1
  Se  Se146  1  0.91402336  0.24627157  0.55496082  1
  Se  Se147  1  0.91447687  0.58739088  0.04140704  1
  Se  Se148  1  0.91699942  0.58063039  0.56054932  1
  Se  Se149  1  0.92527575  0.92744062  0.06193441  1
  Se  Se150  1  0.92279911  0.91384245  0.55308804  1
  Se  Se151  1  0.08294684  0.25179211  0.45224071  1
  Se  Se152  1  0.09107479  0.24224192  0.94404317  1
  Se  Se153  1  0.08621815  0.58988968  0.44903211  1
  Se  Se154  1  0.07693580  0.58289411  0.93069239  1
  Se  Se155  1  0.07570140  0.92751034  0.43883507  1
  Se  Se156  1  0.08374978  0.91229304  0.94548715  1
  Se  Se157  1  0.41572912  0.24588776  0.45387729  1
  Se  Se158  1  0.41366431  0.25648527  0.92881955  1
  Se  Se159  1  0.41370585  0.58475146  0.44733604  1
  Se  Se160  1  0.40404228  0.59864411  0.94241390  1
  Se  Se161  1  0.40803269  0.91280973  0.44515983  1
  Se  Se162  1  0.41429800  0.91270347  0.94646049  1
  Se  Se163  1  0.74898351  0.25239620  0.44824668  1
  Se  Se164  1  0.76063336  0.24674863  0.94387927  1
  Se  Se165  1  0.75707567  0.57627256  0.45745188  1
  Se  Se166  1  0.73683945  0.59756779  0.93331080  1
  Se  Se167  1  0.76266656  0.90509382  0.45682354  1
  Se  Se168  1  0.74798867  0.92470992  0.93733161  1
  Se  Se169  1  0.24732367  0.08496103  0.44912619  1
  Se  Se170  1  0.25056243  0.08201042  0.94516237  1
  Se  Se171  1  0.24839142  0.41850243  0.45237813  1
  Se  Se172  1  0.25436044  0.41474982  0.93422280  1
  Se  Se173  1  0.25973433  0.74713175  0.43828934  1
  Se  Se174  1  0.23949267  0.75326856  0.94786144  1
  Se  Se175  1  0.59456669  0.06791997  0.44992756  1
  Se  Se176  1  0.59058298  0.07616063  0.93124958  1
  Se  Se177  1  0.58574459  0.41197171  0.44512357  1
  Se  Se178  1  0.59843905  0.40996837  0.93824822  1
  Se  Se179  1  0.58585649  0.74092135  0.45434089  1
  Se  Se180  1  0.57593391  0.75724120  0.94672506  1
  Se  Se181  1  0.91422592  0.08882190  0.45305371  1
  Se  Se182  1  0.91938011  0.08449177  0.94749845  1
  Se  Se183  1  0.91668537  0.41606745  0.44951648  1
  Se  Se184  1  0.93043474  0.40387078  0.93214531  1
  Se  Se185  1  0.91934168  0.75045820  0.45526014  1
  Se  Se186  1  0.91695831  0.74946502  0.93160846  1
  Se  Se187  1  0.24499928  0.24676541  0.31434835  1
  Se  Se188  1  0.25114627  0.25152296  0.79992126  1
  Se  Se189  1  0.25744402  0.58788511  0.30236632  1
  Se  Se190  1  0.24852467  0.58610578  0.80017180  1
  Se  Se191  1  0.24443476  0.92129663  0.29523919  1
  Se  Se192  1  0.25065875  0.91505157  0.80645974  1
  Se  Se193  1  0.58497091  0.24432666  0.30668235  1
  Se  Se194  1  0.58720354  0.25079679  0.79744668  1
  Se  Se195  1  0.57294626  0.57098947  0.32120097  1
  Se  Se196  1  0.57403545  0.58519927  0.80166178  1
  Se  Se197  1  0.57458117  0.90542836  0.31571069  1
  Se  Se198  1  0.58112744  0.91904182  0.80536834  1
  Se  Se199  1  0.90664458  0.24265651  0.30773957  1
  Se  Se200  1  0.91778320  0.24160362  0.80187438  1
  Se  Se201  1  0.91340060  0.58437198  0.31413230  1
  Se  Se202  1  0.89928362  0.56950196  0.79090730  1
  Se  Se203  1  0.90804701  0.91740622  0.31532262  1
  Se  Se204  1  0.91818009  0.91936992  0.79680359  1
  Se  Se205  1  0.08326857  0.09344504  0.31319150  1
  Se  Se206  1  0.08539734  0.08009654  0.80542313  1
  Se  Se207  1  0.09474698  0.43239342  0.31004919  1
  Se  Se208  1  0.08206873  0.41036535  0.79641153  1
  Se  Se209  1  0.09427475  0.76347135  0.30900683  1
  Se  Se210  1  0.07887345  0.74588162  0.79785719  1
  Se  Se211  1  0.41542144  0.07784747  0.30695534  1
  Se  Se212  1  0.41478479  0.08163052  0.79651908  1
  Se  Se213  1  0.42087022  0.41630434  0.31632744  1
  Se  Se214  1  0.41256762  0.41817071  0.79786153  1
  Se  Se215  1  0.41310366  0.74593421  0.30300809  1
  Se  Se216  1  0.41568066  0.75601145  0.80415288  1
  Se  Se217  1  0.75617397  0.09127449  0.31261450  1
  Se  Se218  1  0.75501863  0.08490252  0.80380851  1
  Se  Se219  1  0.75047838  0.41568066  0.30629580  1
  Se  Se220  1  0.75140817  0.41437140  0.79500464  1
  Se  Se221  1  0.75639448  0.76048602  0.31720254  1
  Se  Se222  1  0.74438466  0.75547454  0.79816588  1
  Se  Se223  1  0.25188015  0.08581819  0.19883237  1
  Se  Se224  1  0.25097132  0.08255386  0.69814458  1
  Se  Se225  1  0.24168416  0.41991694  0.19379531  1
  Se  Se226  1  0.25063131  0.41393454  0.69612939  1
  Se  Se227  1  0.25472157  0.74305575  0.19560206  1
  Se  Se228  1  0.25350812  0.74908466  0.69790259  1
  Se  Se229  1  0.57728742  0.08185241  0.18691320  1
  Se  Se230  1  0.57479309  0.09449966  0.68084352  1
  Se  Se231  1  0.58724844  0.41197414  0.20402550  1
  Se  Se232  1  0.57920570  0.41608381  0.69860912  1
  Se  Se233  1  0.58369042  0.75273571  0.19545665  1
  Se  Se234  1  0.58373141  0.75717594  0.69511754  1
  Se  Se235  1  0.90542900  0.09518833  0.19533967  1
  Se  Se236  1  0.91950778  0.07752370  0.69011968  1
  Se  Se237  1  0.91656052  0.42997646  0.19049113  1
  Se  Se238  1  0.91245149  0.41787365  0.70038871  1
  Se  Se239  1  0.90600982  0.76324197  0.19900614  1
  Se  Se240  1  0.92038147  0.74652629  0.69750937  1
  Se  Se241  1  0.08611563  0.24745006  0.19255450  1
  Se  Se242  1  0.08002620  0.24979577  0.69720148  1
  Se  Se243  1  0.09535811  0.57659916  0.19079986  1
  Se  Se244  1  0.08356607  0.58232289  0.69661814  1
  Se  Se245  1  0.08729103  0.90986279  0.19096058  1
  Se  Se246  1  0.08480611  0.91896320  0.70073936  1
  Se  Se247  1  0.42853080  0.23719877  0.18928952  1
  Se  Se248  1  0.41276806  0.25287310  0.69627527  1
  Se  Se249  1  0.42022797  0.57830149  0.19874144  1
  Se  Se250  1  0.40961323  0.59076517  0.69324829  1
  Se  Se251  1  0.41340855  0.91763853  0.19782161  1
  Se  Se252  1  0.41555073  0.92372624  0.69442177  1
  Se  Se253  1  0.73887163  0.26165210  0.19657040  1
  Se  Se254  1  0.74970281  0.24660911  0.69159124  1
  Se  Se255  1  0.75799920  0.58387417  0.19502667  1
  Se  Se256  1  0.73684049  0.60050407  0.70116307  1
  Se  Se257  1  0.75602691  0.90960150  0.19753511  1
  Se  Se258  1  0.75935149  0.90983519  0.68059786  1
