# generated using pymatgen
data_In86Cu29Se144
_symmetry_space_group_name_H-M   'P 1'
_cell_length_a   17.59468725
_cell_length_b   17.60085854
_cell_length_c   23.45024894
_cell_angle_alpha   90.00887692
_cell_angle_beta   90.02653969
_cell_angle_gamma   89.96899518
_symmetry_Int_Tables_number   1
_chemical_formula_structural   In86Cu29Se144
_chemical_formula_sum   'In86 Cu29 Se144'
_cell_volume   7262.10871204
_cell_formula_units_Z   1
loop_
 _symmetry_equiv_pos_site_id
 _symmetry_equiv_pos_as_xyz
  1  'x, y, z'
loop_
 _atom_site_type_symbol
 _atom_site_label
 _atom_site_symmetry_multiplicity
 _atom_site_fract_x
 _atom_site_fract_y
 _atom_site_fract_z
 _atom_site_occupancy
  In  In0  1  0.01840734  0.16366970  0.12820434  1
  In  In1  1  0.01113681  0.18039934  0.62100112  1
  In  In2  1  0.00133415  0.50363061  0.12753392  1
  In  In3  1  -0.00027457  0.49932269  0.62813950  1
  In  In4  1  -0.00239009  0.82790812  0.11744647  1
  In  In5  1  -0.00197905  0.82823936  0.61604275  1
  In  In6  1  0.31857991  0.16215341  0.12999584  1
  In  In7  1  0.32117545  0.14791338  0.60954821  1
  In  In8  1  0.32251652  0.51242598  0.13126047  1
  In  In9  1  0.32559148  0.50195229  0.61865278  1
  In  In10  1  0.33392148  0.83497266  0.12225382  1
  In  In11  1  0.33431458  0.85179254  0.61686722  1
  In  In12  1  0.65482189  0.16534423  0.12918472  1
  In  In13  1  0.67100307  0.17900704  0.60984308  1
  In  In14  1  0.67343391  0.48685638  0.12372519  1
  In  In15  1  0.65951055  0.49740562  0.62166848  1
  In  In16  1  0.67313007  0.83732351  0.13029769  1
  In  In17  1  0.66521640  0.83630512  0.62083055  1
  In  In18  1  0.17755468  -0.00995968  0.38547576  1
  In  In19  1  0.17616153  -0.00506962  0.87511490  1
  In  In20  1  0.16234614  0.33609467  0.38153273  1
  In  In21  1  0.15631144  0.34488511  0.88218544  1
  In  In22  1  0.15663229  0.66087786  0.37664923  1
  In  In23  1  0.15369429  0.67611019  0.88462336  1
  In  In24  1  0.50017976  -0.00772877  0.37671041  1
  In  In25  1  0.49085653  -0.00029153  0.86749851  1
  In  In26  1  0.51678589  0.32603219  0.40083239  1
  In  In27  1  0.49951615  0.32053089  0.86411636  1
  In  In28  1  0.49545450  0.67011361  0.38813492  1
  In  In29  1  0.50921454  0.67155985  0.87496847  1
  In  In30  1  0.82814593  0.00263265  0.37855347  1
  In  In31  1  0.82566679  -0.00982203  0.87836477  1
  In  In32  1  0.84233422  0.32410403  0.37820960  1
  In  In33  1  0.84917725  0.34401822  0.86022681  1
  In  In34  1  0.85805249  0.66051312  0.37691726  1
  In  In35  1  0.85168914  0.65146209  0.89483242  1
  In  In36  1  -0.00637023  0.17381786  0.38200274  1
  In  In37  1  0.00459345  0.17993087  0.87126407  1
  In  In38  1  0.02306333  0.50796275  0.35247231  1
  In  In39  1  0.00174919  0.50106476  0.87784412  1
  In  In40  1  0.01211707  0.81745429  0.38838159  1
  In  In41  1  0.00861067  0.82474885  0.88261832  1
  In  In42  1  0.34668726  0.14419135  0.39419194  1
  In  In43  1  0.33598620  0.15522809  0.86874867  1
  In  In44  1  0.33015408  0.50121730  0.38540995  1
  In  In45  1  0.32145852  0.48742424  0.87532395  1
  In  In46  1  0.32425358  0.84588323  0.38657079  1
  In  In47  1  0.33246383  0.84298593  0.87344126  1
  In  In48  1  0.67712530  0.16103406  0.38227476  1
  In  In49  1  0.65585928  0.16497392  0.86504483  1
  In  In50  1  0.66852832  0.48147935  0.38285335  1
  In  In51  1  0.67946082  0.50418828  0.86890528  1
  In  In52  1  0.65701956  0.83995480  0.38076584  1
  In  In53  1  0.67319091  0.82693384  0.88238067  1
  In  In54  1  0.17527553  0.00749693  0.12280882  1
  In  In55  1  0.17963667  0.00792579  0.61375991  1
  In  In56  1  0.15749406  0.32721997  0.12721275  1
  In  In57  1  0.15318043  0.32621260  0.62612367  1
  In  In58  1  0.13915132  0.65083456  0.09939201  1
  In  In59  1  0.15368990  0.66550217  0.61593977  1
  In  In60  1  0.50464902  -0.00707428  0.13732964  1
  In  In61  1  0.47856727  -0.00874118  0.61140329  1
  In  In62  1  0.50870517  0.32958415  0.12658642  1
  In  In63  1  0.50812985  0.33825275  0.61261217  1
  In  In64  1  0.48052715  0.67026229  0.12667251  1
  In  In65  1  0.49985666  0.67683487  0.61989617  1
  In  In66  1  0.83144923  -0.01358613  0.13088797  1
  In  In67  1  0.82402924  -0.00352936  0.61649126  1
  In  In68  1  0.84028988  0.35171623  0.11811412  1
  In  In69  1  0.84082184  0.33232537  0.62813428  1
  In  In70  1  0.85015221  0.67759749  0.11459660  1
  In  In71  1  0.84386623  0.67886318  0.62236020  1
  In  In72  1  0.83849757  0.50000317  0.50028866  1
  In  In73  1  0.00692909  0.00484449  0.74558173  1
  In  In74  1  0.67410200  0.66964987  0.74051102  1
  In  In75  1  0.32902612  0.32328778  0.74295825  1
  In  In76  1  0.49394231  0.16175103  -0.00712185  1
  In  In77  1  0.31904118  0.67487637  0.26042633  1
  In  In78  1  0.67611493  0.32507501  0.25866944  1
  In  In79  1  0.83197607  0.16583258  -0.00692636  1
  In  In80  1  0.49730075  0.50177124  0.00133081  1
  In  In81  1  0.00371518  -0.00492251  0.25375272  1
  In  In82  1  0.67104300  0.66696730  0.25319732  1
  In  In83  1  0.32900204  0.67562336  0.75325626  1
  In  In84  1  0.32944000  0.32985549  0.25685472  1
  In  In85  1  0.66326439  0.00212456  0.74199591  1
  Cu  Cu86  1  0.66956259  0.66940008  0.50276929  1
  Cu  Cu87  1  0.32806183  0.66672472  0.50285741  1
  Cu  Cu88  1  0.16914957  0.83545242  0.75014442  1
  Cu  Cu89  1  0.49836075  0.49532897  0.26516699  1
  Cu  Cu90  1  0.83314212  0.16973421  0.74000328  1
  Cu  Cu91  1  0.84475458  0.82283071  0.75407171  1
  Cu  Cu92  1  0.83459401  0.83291080  0.25278633  1
  Cu  Cu93  1  0.67217469  0.33782458  -0.01169876  1
  Cu  Cu94  1  0.33592843  -0.00264900  -0.00257667  1
  Cu  Cu95  1  0.83969442  0.49765607  0.75271568  1
  Cu  Cu96  1  0.33066625  0.67336444  -0.00332215  1
  Cu  Cu97  1  0.83128256  0.16545134  0.25428626  1
  Cu  Cu98  1  0.32721624  0.33714963  0.50564295  1
  Cu  Cu99  1  0.16812528  0.82997527  0.25353384  1
  Cu  Cu100  1  0.66661148  -0.00943891  0.00658520  1
  Cu  Cu101  1  0.32164613  0.33746483  0.00504136  1
  Cu  Cu102  1  0.49957573  0.49787268  0.73952300  1
  Cu  Cu103  1  0.66326881  0.00217301  0.49952106  1
  Cu  Cu104  1  -0.00931068  0.00261829  0.50107915  1
  Cu  Cu105  1  0.50322425  0.16891167  0.73580653  1
  Cu  Cu106  1  0.17172334  0.16166040  0.25729039  1
  Cu  Cu107  1  0.00092333  0.33678945  0.50220775  1
  Cu  Cu108  1  0.66479278  0.67002979  0.00260898  1
  Cu  Cu109  1  0.84651632  0.50528873  0.24360278  1
  Cu  Cu110  1  0.49583233  0.15603997  0.25851605  1
  Cu  Cu111  1  0.49667487  0.84136888  0.25228949  1
  Cu  Cu112  1  0.00519529  -0.00161421  0.00196701  1
  Cu  Cu113  1  0.15505986  0.50504285  0.75136706  1
  Cu  Cu114  1  -0.00051666  0.33541990  -0.00041785  1
  Se  Se115  1  0.08765956  0.08414169  0.05241502  1
  Se  Se116  1  0.07643562  0.08253254  0.55482242  1
  Se  Se117  1  0.08150512  0.41439624  0.05801248  1
  Se  Se118  1  0.08273565  0.41946977  0.55795563  1
  Se  Se119  1  0.08204658  0.76057990  0.04277438  1
  Se  Se120  1  0.09142563  0.76163003  0.54663819  1
  Se  Se121  1  0.41290698  0.07826579  0.06233563  1
  Se  Se122  1  0.41724154  0.08565031  0.54096184  1
  Se  Se123  1  0.40977218  0.41077580  0.06529147  1
  Se  Se124  1  0.41378452  0.42218803  0.55385178  1
  Se  Se125  1  0.41665640  0.75286601  0.05041515  1
  Se  Se126  1  0.41010153  0.75299593  0.55404939  1
  Se  Se127  1  0.74344737  0.08071341  0.06066008  1
  Se  Se128  1  0.75166732  0.08620600  0.54764707  1
  Se  Se129  1  0.75172527  0.41931579  0.04484708  1
  Se  Se130  1  0.74765748  0.40983611  0.55694549  1
  Se  Se131  1  0.74573309  0.75153067  0.05869576  1
  Se  Se132  1  0.75149516  0.75241101  0.55638242  1
  Se  Se133  1  0.24657739  0.24783145  0.05864595  1
  Se  Se134  1  0.24322651  0.25337521  0.55690034  1
  Se  Se135  1  0.25536586  0.58427554  0.05043496  1
  Se  Se136  1  0.24171466  0.58212842  0.55125258  1
  Se  Se137  1  0.25096756  0.91869570  0.05387810  1
  Se  Se138  1  0.24849403  0.91888807  0.54287779  1
  Se  Se139  1  0.59303844  0.25669286  0.04829801  1
  Se  Se140  1  0.57639306  0.24736943  0.54253126  1
  Se  Se141  1  0.58631050  0.58981077  0.06595378  1
  Se  Se142  1  0.58398466  0.58918584  0.55644012  1
  Se  Se143  1  0.58137159  0.91432509  0.06310829  1
  Se  Se144  1  0.58220344  0.91730800  0.55340670  1
  Se  Se145  1  0.92224246  0.24851858  0.05916451  1
  Se  Se146  1  0.91638230  0.25229315  0.55347068  1
  Se  Se147  1  0.90469817  0.56685225  0.05781790  1
  Se  Se148  1  0.92901670  0.59343234  0.55414808  1
  Se  Se149  1  0.91699206  0.92338319  0.05582902  1
  Se  Se150  1  0.91049273  0.91372527  0.55242335  1
  Se  Se151  1  0.08313530  0.24923256  0.45017102  1
  Se  Se152  1  0.08308739  0.24918437  0.94905640  1
  Se  Se153  1  0.07593913  0.57289100  0.44163779  1
  Se  Se154  1  0.07958684  0.58399902  0.94880127  1
  Se  Se155  1  0.07707851  0.92152041  0.44902405  1
  Se  Se156  1  0.08798327  0.91981991  0.94405649  1
  Se  Se157  1  0.41030130  0.25334924  0.45307538  1
  Se  Se158  1  0.40344578  0.26226134  0.94139943  1
  Se  Se159  1  0.41513042  0.58228789  0.45288482  1
  Se  Se160  1  0.40810104  0.58881694  0.93589285  1
  Se  Se161  1  0.42479418  0.91007627  0.44942857  1
  Se  Se162  1  0.42253679  0.91861971  0.94381803  1
  Se  Se163  1  0.73182950  0.27498977  0.43835398  1
  Se  Se164  1  0.74615741  0.25400430  0.92792280  1
  Se  Se165  1  0.74582880  0.59062683  0.43829290  1
  Se  Se166  1  0.74176247  0.58221874  0.94906422  1
  Se  Se167  1  0.74759780  0.91770106  0.44730846  1
  Se  Se168  1  0.75292474  0.91122696  0.95277531  1
  Se  Se169  1  0.24289091  0.08273070  0.45597114  1
  Se  Se170  1  0.25602086  0.08379073  0.94412356  1
  Se  Se171  1  0.24391746  0.41896151  0.45083976  1
  Se  Se172  1  0.24126136  0.42407016  0.95354223  1
  Se  Se173  1  0.24831182  0.74135156  0.44043055  1
  Se  Se174  1  0.25214494  0.75747663  0.94143716  1
  Se  Se175  1  0.58185364  0.08273094  0.44284741  1
  Se  Se176  1  0.59357218  0.07036023  0.94100978  1
  Se  Se177  1  0.57653283  0.43459564  0.45894064  1
  Se  Se178  1  0.58084083  0.41311631  0.93336530  1
  Se  Se179  1  0.58306961  0.75293433  0.45186083  1
  Se  Se180  1  0.58094678  0.75173101  0.94969624  1
  Se  Se181  1  0.90935751  0.08728368  0.44676292  1
  Se  Se182  1  0.92693691  0.07543508  0.93646962  1
  Se  Se183  1  0.93044072  0.41824861  0.43680201  1
  Se  Se184  1  0.91501360  0.41336346  0.94372745  1
  Se  Se185  1  0.90792504  0.75467978  0.45081245  1
  Se  Se186  1  0.90353849  0.76794501  0.94658651  1
  Se  Se187  1  0.25237764  0.23637170  0.32125119  1
  Se  Se188  1  0.24385306  0.25061371  0.81550979  1
  Se  Se189  1  0.24013629  0.56706985  0.30841082  1
  Se  Se190  1  0.24070344  0.58078499  0.81023361  1
  Se  Se191  1  0.24930090  0.91496269  0.30581870  1
  Se  Se192  1  0.25458565  0.92030370  0.79844332  1
  Se  Se193  1  0.57413836  0.24361286  0.31344224  1
  Se  Se194  1  0.58542086  0.25018597  0.79167331  1
  Se  Se195  1  0.58153314  0.57900642  0.31760694  1
  Se  Se196  1  0.57838837  0.57744704  0.80087249  1
  Se  Se197  1  0.58720722  0.91881266  0.30282942  1
  Se  Se198  1  0.58781990  0.91128550  0.81017934  1
  Se  Se199  1  0.91842508  0.24795106  0.30256105  1
  Se  Se200  1  0.91944506  0.24651421  0.79600486  1
  Se  Se201  1  0.92768294  0.59257554  0.29399044  1
  Se  Se202  1  0.91494167  0.58377727  0.80917286  1
  Se  Se203  1  0.91624787  0.90815159  0.31592553  1
  Se  Se204  1  0.91738428  0.91485985  0.80881040  1
  Se  Se205  1  0.08792581  0.08448316  0.31770681  1
  Se  Se206  1  0.09388900  0.09044209  0.80927582  1
  Se  Se207  1  0.08131458  0.39396344  0.29988692  1
  Se  Se208  1  0.07816006  0.41637296  0.80478271  1
  Se  Se209  1  0.08201742  0.74885737  0.30520996  1
  Se  Se210  1  0.08635175  0.75343329  0.80454077  1
  Se  Se211  1  0.41091814  0.07423506  0.30914405  1
  Se  Se212  1  0.42395042  0.08883548  0.79515875  1
  Se  Se213  1  0.42337478  0.41002438  0.32246481  1
  Se  Se214  1  0.41976749  0.42275797  0.80263380  1
  Se  Se215  1  0.42105225  0.75777426  0.31387294  1
  Se  Se216  1  0.42860813  0.75992119  0.80724146  1
  Se  Se217  1  0.74834700  0.08242652  0.30455270  1
  Se  Se218  1  0.76041363  0.08810916  0.80392384  1
  Se  Se219  1  0.76733799  0.42754607  0.30678335  1
  Se  Se220  1  0.74753742  0.41461871  0.79809577  1
  Se  Se221  1  0.75739767  0.75426164  0.31648560  1
  Se  Se222  1  0.76061598  0.74526970  0.81197525  1
  Se  Se223  1  0.25192055  0.07594378  0.20400053  1
  Se  Se224  1  0.24707809  0.08633809  0.69214339  1
  Se  Se225  1  0.24249798  0.42003782  0.19532783  1
  Se  Se226  1  0.24084736  0.42633819  0.69352200  1
  Se  Se227  1  0.23935154  0.75088358  0.18569333  1
  Se  Se228  1  0.24398289  0.75598025  0.68447843  1
  Se  Se229  1  0.58600662  0.08214828  0.20274891  1
  Se  Se230  1  0.58031500  0.08719350  0.67561647  1
  Se  Se231  1  0.57964943  0.42116872  0.20115569  1
  Se  Se232  1  0.58397707  0.41186462  0.69228451  1
  Se  Se233  1  0.57142934  0.75205340  0.19489216  1
  Se  Se234  1  0.57490631  0.76317847  0.69502692  1
  Se  Se235  1  0.91366065  0.08759654  0.19154141  1
  Se  Se236  1  0.91011243  0.08476758  0.68327855  1
  Se  Se237  1  0.92357175  0.41034631  0.19628834  1
  Se  Se238  1  0.92192485  0.41406401  0.69819754  1
  Se  Se239  1  0.91715174  0.75586448  0.19420492  1
  Se  Se240  1  0.92887842  0.74816410  0.69629439  1
  Se  Se241  1  0.08806433  0.24426127  0.20426738  1
  Se  Se242  1  0.08338118  0.24714928  0.70232745  1
  Se  Se243  1  0.08844155  0.58920361  0.19014969  1
  Se  Se244  1  0.07942192  0.59041776  0.69448266  1
  Se  Se245  1  0.09070105  0.90939980  0.18906208  1
  Se  Se246  1  0.09115485  0.91233953  0.68497461  1
  Se  Se247  1  0.42511911  0.24109485  0.19409431  1
  Se  Se248  1  0.41897372  0.24541021  0.67681221  1
  Se  Se249  1  0.42011962  0.57700394  0.20443156  1
  Se  Se250  1  0.41684867  0.58369735  0.68896471  1
  Se  Se251  1  0.40698597  0.91646010  0.19839214  1
  Se  Se252  1  0.41514083  0.91892054  0.69402035  1
  Se  Se253  1  0.76074635  0.24587207  0.18490776  1
  Se  Se254  1  0.74595553  0.25077759  0.68981893  1
  Se  Se255  1  0.75542165  0.57875428  0.18795859  1
  Se  Se256  1  0.76453395  0.57429764  0.68465984  1
  Se  Se257  1  0.74741548  0.91750741  0.20572512  1
  Se  Se258  1  0.76183768  0.90361011  0.69590915  1
