# generated using pymatgen
data_In86Cu29Se144
_symmetry_space_group_name_H-M   'P 1'
_cell_length_a   17.58590449
_cell_length_b   17.58451264
_cell_length_c   23.44872608
_cell_angle_alpha   90.01381606
_cell_angle_beta   89.98165805
_cell_angle_gamma   90.00507382
_symmetry_Int_Tables_number   1
_chemical_formula_structural   In86Cu29Se144
_chemical_formula_sum   'In86 Cu29 Se144'
_cell_volume   7251.27311774
_cell_formula_units_Z   1
loop_
 _symmetry_equiv_pos_site_id
 _symmetry_equiv_pos_as_xyz
  1  'x, y, z'
loop_
 _atom_site_type_symbol
 _atom_site_label
 _atom_site_symmetry_multiplicity
 _atom_site_fract_x
 _atom_site_fract_y
 _atom_site_fract_z
 _atom_site_occupancy
  In  In0  1  -0.00159714  0.17819025  0.12034494  1
  In  In1  1  -0.00086752  0.15586374  0.63165331  1
  In  In2  1  0.00351508  0.50463822  0.11480417  1
  In  In3  1  -0.00915969  0.51850475  0.63618390  1
  In  In4  1  0.00442616  0.83844007  0.11471425  1
  In  In5  1  -0.00089939  0.83091627  0.63002852  1
  In  In6  1  0.33903155  0.16003181  0.12919655  1
  In  In7  1  0.34639303  0.15235665  0.63558678  1
  In  In8  1  0.32571185  0.49993425  0.12286064  1
  In  In9  1  0.34282816  0.49808967  0.63076544  1
  In  In10  1  0.33458975  0.83825465  0.11085062  1
  In  In11  1  0.32688951  0.83946347  0.63174524  1
  In  In12  1  0.66911205  0.16099863  0.12757456  1
  In  In13  1  0.65339615  0.16755582  0.61908022  1
  In  In14  1  0.66314901  0.48920688  0.12558053  1
  In  In15  1  0.67276407  0.50942431  0.61291413  1
  In  In16  1  0.67709222  0.84400630  0.11811604  1
  In  In17  1  0.67246236  0.82963637  0.63237119  1
  In  In18  1  0.18213496  -0.02587812  0.37918880  1
  In  In19  1  0.15798480  -0.00654741  0.87046059  1
  In  In20  1  0.16970088  0.32019497  0.37425837  1
  In  In21  1  0.18100537  0.33070186  0.87430705  1
  In  In22  1  0.17980862  0.68039476  0.38120157  1
  In  In23  1  0.16543996  0.66722760  0.87257321  1
  In  In24  1  0.51121011  0.00870798  0.36920141  1
  In  In25  1  0.48415043  -0.01723458  0.86625349  1
  In  In26  1  0.50157026  0.33254359  0.37646640  1
  In  In27  1  0.48895946  0.33751765  0.87464976  1
  In  In28  1  0.49055498  0.64844562  0.38629368  1
  In  In29  1  0.51099608  0.68051196  0.86494856  1
  In  In30  1  0.81570238  0.00265469  0.37800340  1
  In  In31  1  0.83189963  -0.00376426  0.87344151  1
  In  In32  1  0.83124076  0.34816567  0.37934882  1
  In  In33  1  0.82884158  0.33898030  0.88176479  1
  In  In34  1  0.82928067  0.67081563  0.38583150  1
  In  In35  1  0.83643909  0.66775080  0.87118585  1
  In  In36  1  -0.00062975  0.16479182  0.37539301  1
  In  In37  1  -0.00025040  0.14976969  0.87028839  1
  In  In38  1  -0.00745662  0.49399020  0.38219016  1
  In  In39  1  -0.01073865  0.51485726  0.87614376  1
  In  In40  1  0.00267719  0.82832743  0.38077277  1
  In  In41  1  -0.00183746  0.83164836  0.87390223  1
  In  In42  1  0.34987440  0.17367308  0.36992096  1
  In  In43  1  0.31471720  0.15611016  0.85590192  1
  In  In44  1  0.36149273  0.49611851  0.38429325  1
  In  In45  1  0.32358035  0.49283347  0.86864879  1
  In  In46  1  0.32507613  0.83322523  0.37656841  1
  In  In47  1  0.33450116  0.83505413  0.87572052  1
  In  In48  1  0.65387652  0.15539959  0.37054378  1
  In  In49  1  0.68013214  0.16287921  0.87782579  1
  In  In50  1  0.67317582  0.48983280  0.38611081  1
  In  In51  1  0.67288045  0.51584436  0.86769945  1
  In  In52  1  0.66360578  0.85164194  0.37989578  1
  In  In53  1  0.66577204  0.83705247  0.87323199  1
  In  In54  1  0.17795178  -0.01001228  0.12314887  1
  In  In55  1  0.18305169  -0.01346329  0.63863666  1
  In  In56  1  0.16575954  0.34073921  0.12511337  1
  In  In57  1  0.17536229  0.34071538  0.62621592  1
  In  In58  1  0.17368559  0.66720978  0.11195474  1
  In  In59  1  0.15622690  0.67714924  0.63688437  1
  In  In60  1  0.50036658  -0.00404317  0.12500109  1
  In  In61  1  0.50084215  0.00086222  0.62817929  1
  In  In62  1  0.50254910  0.33106592  0.13535982  1
  In  In63  1  0.49951967  0.32689880  0.61317610  1
  In  In64  1  0.48741751  0.67039373  0.12079578  1
  In  In65  1  0.50895132  0.66291883  0.63429540  1
  In  In66  1  0.82647402  -0.00503506  0.11628693  1
  In  In67  1  0.84230566  -0.00779097  0.63523389  1
  In  In68  1  0.82685107  0.32755421  0.11727574  1
  In  In69  1  0.81514925  0.34591932  0.62152128  1
  In  In70  1  0.84107835  0.67310747  0.11420081  1
  In  In71  1  0.82817926  0.66577569  0.63171329  1
  In  In72  1  0.33391655  0.66819192  0.25242081  1
  In  In73  1  0.00286342  0.00480802  0.24473303  1
  In  In74  1  0.49892585  0.16067081  0.00232700  1
  In  In75  1  0.50380872  0.50605688  -0.00334710  1
  In  In76  1  0.00317608  0.66826093  0.25270327  1
  In  In77  1  0.65955358  0.33380457  0.74588488  1
  In  In78  1  0.16523918  0.50737395  0.50291880  1
  In  In79  1  0.66670619  0.67094093  0.25009403  1
  In  In80  1  0.16648952  0.16234913  0.49940772  1
  In  In81  1  0.00591782  0.33165858  0.74771876  1
  In  In82  1  0.49995957  0.83005937  0.50374120  1
  In  In83  1  -0.00054604  0.33430654  0.25092409  1
  In  In84  1  0.16125907  0.16053587  -0.00777780  1
  In  In85  1  0.82623098  0.16510220  0.50049518  1
  Cu  Cu86  1  0.49972057  0.16663696  0.74632008  1
  Cu  Cu87  1  0.00015662  0.66568099  -0.00877546  1
  Cu  Cu88  1  0.66602704  0.66503768  0.50833801  1
  Cu  Cu89  1  0.49807549  0.83752362  0.24827980  1
  Cu  Cu90  1  0.50175051  0.48891646  0.25605056  1
  Cu  Cu91  1  0.49549451  0.50105417  0.75093109  1
  Cu  Cu92  1  0.33406441  0.66798414  -0.00763174  1
  Cu  Cu93  1  0.17706400  0.50088693  0.24852022  1
  Cu  Cu94  1  0.33665986  0.32915500  0.49922178  1
  Cu  Cu95  1  0.49747843  0.83762620  0.74815624  1
  Cu  Cu96  1  0.33411010  0.32930837  -0.00168679  1
  Cu  Cu97  1  0.34010518  0.00162354  0.50694455  1
  Cu  Cu98  1  -0.01184374  0.34100346  0.50874133  1
  Cu  Cu99  1  0.83184883  0.84570636  0.24742471  1
  Cu  Cu100  1  0.66624108  -0.00075172  -0.00168505  1
  Cu  Cu101  1  0.16429585  0.83209738  0.75541627  1
  Cu  Cu102  1  0.00195177  -0.01181604  0.50546375  1
  Cu  Cu103  1  -0.00405273  0.67164275  0.51043497  1
  Cu  Cu104  1  0.49734020  0.16673762  0.25057977  1
  Cu  Cu105  1  0.82728733  0.49692172  0.24986497  1
  Cu  Cu106  1  0.81941635  0.16987609  0.24731579  1
  Cu  Cu107  1  0.17874270  0.15693990  0.25313082  1
  Cu  Cu108  1  0.83454475  0.83150324  0.75379577  1
  Cu  Cu109  1  -0.00227996  0.33962320  -0.00100655  1
  Cu  Cu110  1  0.67380966  0.33729986  -0.00037713  1
  Cu  Cu111  1  0.16790703  0.50410038  0.75032200  1
  Cu  Cu112  1  0.83343941  0.15995171  0.75228707  1
  Cu  Cu113  1  0.67151405  0.67277259  -0.00889058  1
  Cu  Cu114  1  -0.00524561  -0.00365475  -0.00669081  1
  Se  Se115  1  0.07297033  0.07432520  0.05925057  1
  Se  Se116  1  0.08292257  0.07080014  0.56240394  1
  Se  Se117  1  0.08758390  0.41667271  0.05141186  1
  Se  Se118  1  0.07295588  0.41898801  0.56534189  1
  Se  Se119  1  0.08127012  0.74668737  0.04989221  1
  Se  Se120  1  0.08514623  0.75329065  0.55797869  1
  Se  Se121  1  0.40332751  0.06947257  0.05373081  1
  Se  Se122  1  0.42456380  0.08647977  0.55549767  1
  Se  Se123  1  0.41744425  0.40880918  0.05686878  1
  Se  Se124  1  0.41295811  0.41852186  0.55300748  1
  Se  Se125  1  0.41855915  0.75019547  0.04549690  1
  Se  Se126  1  0.41386562  0.74675495  0.56881520  1
  Se  Se127  1  0.74737833  0.08664547  0.05147608  1
  Se  Se128  1  0.74886704  0.07302194  0.56515570  1
  Se  Se129  1  0.75284247  0.42450184  0.05276891  1
  Se  Se130  1  0.72881852  0.40460839  0.54631107  1
  Se  Se131  1  0.75246200  0.75412134  0.05049624  1
  Se  Se132  1  0.74961676  0.74927742  0.55892036  1
  Se  Se133  1  0.25206280  0.24866217  0.05795266  1
  Se  Se134  1  0.25766482  0.24935960  0.56026867  1
  Se  Se135  1  0.25571741  0.57953518  0.04665110  1
  Se  Se136  1  0.24758328  0.58900462  0.57102029  1
  Se  Se137  1  0.23497343  0.90494719  0.04597855  1
  Se  Se138  1  0.25205399  0.91894577  0.55505122  1
  Se  Se139  1  0.58756483  0.25960374  0.05692928  1
  Se  Se140  1  0.60050643  0.26429885  0.54768542  1
  Se  Se141  1  0.59432172  0.59579655  0.05869729  1
  Se  Se142  1  0.57264535  0.58454532  0.55271168  1
  Se  Se143  1  0.58250038  0.91759916  0.05298857  1
  Se  Se144  1  0.59192189  0.91863934  0.56067545  1
  Se  Se145  1  0.91557476  0.25134691  0.04853201  1
  Se  Se146  1  0.91720548  0.25181211  0.56618949  1
  Se  Se147  1  0.91718787  0.58329400  0.04798406  1
  Se  Se148  1  0.91185492  0.58472060  0.55807348  1
  Se  Se149  1  0.91236953  0.91386399  0.04970315  1
  Se  Se150  1  0.91452545  0.91173920  0.55938399  1
  Se  Se151  1  0.06852487  0.26121634  0.44835559  1
  Se  Se152  1  0.07319788  0.25757871  0.93594445  1
  Se  Se153  1  0.07302265  0.59730994  0.44091577  1
  Se  Se154  1  0.08721424  0.58057710  0.94358851  1
  Se  Se155  1  0.08699864  0.91046039  0.44871900  1
  Se  Se156  1  0.08212837  0.91387766  0.94446442  1
  Se  Se157  1  0.42290889  0.24649675  0.44813939  1
  Se  Se158  1  0.40575522  0.24424927  0.93764058  1
  Se  Se159  1  0.38463521  0.60459301  0.45466946  1
  Se  Se160  1  0.41522222  0.58817241  0.93182347  1
  Se  Se161  1  0.41662904  0.92330851  0.44075327  1
  Se  Se162  1  0.41968882  0.91136319  0.94727369  1
  Se  Se163  1  0.74349767  0.25142512  0.43458362  1
  Se  Se164  1  0.75351302  0.24828588  0.94916608  1
  Se  Se165  1  0.74950154  0.58297519  0.45081785  1
  Se  Se166  1  0.75364155  0.58419712  0.94368800  1
  Se  Se167  1  0.76131945  0.90713865  0.44933042  1
  Se  Se168  1  0.75027415  0.91569836  0.94485922  1
  Se  Se169  1  0.26172425  0.07853746  0.44001179  1
  Se  Se170  1  0.25725208  0.07266388  0.93924506  1
  Se  Se171  1  0.25056332  0.40868642  0.44287839  1
  Se  Se172  1  0.25180931  0.41622117  0.94805110  1
  Se  Se173  1  0.25932895  0.75261955  0.45413959  1
  Se  Se174  1  0.24734201  0.75067224  0.94215557  1
  Se  Se175  1  0.59429019  0.06922912  0.44753354  1
  Se  Se176  1  0.58442434  0.07534837  0.93651480  1
  Se  Se177  1  0.55135329  0.44694329  0.43710775  1
  Se  Se178  1  0.59286634  0.41289009  0.93659652  1
  Se  Se179  1  0.59062072  0.74015932  0.43953322  1
  Se  Se180  1  0.58196466  0.75455192  0.94431164  1
  Se  Se181  1  0.92634197  0.07345774  0.44519548  1
  Se  Se182  1  0.91259557  0.08330389  0.94382394  1
  Se  Se183  1  0.90734943  0.42495161  0.45538785  1
  Se  Se184  1  0.91524230  0.42310932  0.94546340  1
  Se  Se185  1  0.91599203  0.75295347  0.45032528  1
  Se  Se186  1  0.91382730  0.75127430  0.94361998  1
  Se  Se187  1  0.25524892  0.24882425  0.30359197  1
  Se  Se188  1  0.25803861  0.26472815  0.79627364  1
  Se  Se189  1  0.24975860  0.57557068  0.31655364  1
  Se  Se190  1  0.25258300  0.58793793  0.80280841  1
  Se  Se191  1  0.25916377  0.91322396  0.29877237  1
  Se  Se192  1  0.25041706  0.91622780  0.80527270  1
  Se  Se193  1  0.58079702  0.24949461  0.30487023  1
  Se  Se194  1  0.57677067  0.24253557  0.81303291  1
  Se  Se195  1  0.57911807  0.57904692  0.30980833  1
  Se  Se196  1  0.58318945  0.58538296  0.79848799  1
  Se  Se197  1  0.58639826  0.91736745  0.30000039  1
  Se  Se198  1  0.58528820  0.91921645  0.80085751  1
  Se  Se199  1  0.90502052  0.24340204  0.30874125  1
  Se  Se200  1  0.90900049  0.24761798  0.81004904  1
  Se  Se201  1  0.90771971  0.57716821  0.30928910  1
  Se  Se202  1  0.91357189  0.58418477  0.79913897  1
  Se  Se203  1  0.91657301  0.91715876  0.31069338  1
  Se  Se204  1  0.91889144  0.91786389  0.80447367  1
  Se  Se205  1  0.09543383  0.08354962  0.31452677  1
  Se  Se206  1  0.10184091  0.09783323  0.80403774  1
  Se  Se207  1  0.09215702  0.42623225  0.31081971  1
  Se  Se208  1  0.08830576  0.42298201  0.81219211  1
  Se  Se209  1  0.09700399  0.75939994  0.30600521  1
  Se  Se210  1  0.07857954  0.74717081  0.80438493  1
  Se  Se211  1  0.41611225  0.07788138  0.30139474  1
  Se  Se212  1  0.41751044  0.08181085  0.79961331  1
  Se  Se213  1  0.41087652  0.40884468  0.30461954  1
  Se  Se214  1  0.41285582  0.41395338  0.80072538  1
  Se  Se215  1  0.43029032  0.75232718  0.31259643  1
  Se  Se216  1  0.41426586  0.75364509  0.80191157  1
  Se  Se217  1  0.74465936  0.08011096  0.30087751  1
  Se  Se218  1  0.74668221  0.07816229  0.80295664  1
  Se  Se219  1  0.74540185  0.41640701  0.30505497  1
  Se  Se220  1  0.75495112  0.42021383  0.80390844  1
  Se  Se221  1  0.75848142  0.76032220  0.30915466  1
  Se  Se222  1  0.74723733  0.75024286  0.80577067  1
  Se  Se223  1  0.25339838  0.07484259  0.19365261  1
  Se  Se224  1  0.24653842  0.08974570  0.69983404  1
  Se  Se225  1  0.25493620  0.41319957  0.19566227  1
  Se  Se226  1  0.25154028  0.42053737  0.69831000  1
  Se  Se227  1  0.24855269  0.75162745  0.18631429  1
  Se  Se228  1  0.25094639  0.75200992  0.70177548  1
  Se  Se229  1  0.57835792  0.08434188  0.19275501  1
  Se  Se230  1  0.58631161  0.08492683  0.69573272  1
  Se  Se231  1  0.58946942  0.41259006  0.20155978  1
  Se  Se232  1  0.57346361  0.42438520  0.68595593  1
  Se  Se233  1  0.57655230  0.75655131  0.18687522  1
  Se  Se234  1  0.58566800  0.75196537  0.70150892  1
  Se  Se235  1  0.90788944  0.09553231  0.18873896  1
  Se  Se236  1  0.92285278  0.07755899  0.70492283  1
  Se  Se237  1  0.91413335  0.42463519  0.18843437  1
  Se  Se238  1  0.90640967  0.41817738  0.69368699  1
  Se  Se239  1  0.91280376  0.76068220  0.19234489  1
  Se  Se240  1  0.91574647  0.74764484  0.69826711  1
  Se  Se241  1  0.09473325  0.23904875  0.19607776  1
  Se  Se242  1  0.09635511  0.24188726  0.68945040  1
  Se  Se243  1  0.09389838  0.57851806  0.19049456  1
  Se  Se244  1  0.07891464  0.58919163  0.70594596  1
  Se  Se245  1  0.08991397  0.90533272  0.19335230  1
  Se  Se246  1  0.08186087  0.91518564  0.69933058  1
  Se  Se247  1  0.41266168  0.24974729  0.19763764  1
  Se  Se248  1  0.42338502  0.25500572  0.69181980  1
  Se  Se249  1  0.42552330  0.57154067  0.19399684  1
  Se  Se250  1  0.41375398  0.58927480  0.70071048  1
  Se  Se251  1  0.41297758  0.91037232  0.18900659  1
  Se  Se252  1  0.41414475  0.92298130  0.69678982  1
  Se  Se253  1  0.74380322  0.25757765  0.19246077  1
  Se  Se254  1  0.75565984  0.24079057  0.69084298  1
  Se  Se255  1  0.75787954  0.58367067  0.18749080  1
  Se  Se256  1  0.74326018  0.57587199  0.69350891  1
  Se  Se257  1  0.74683587  0.92610047  0.19492257  1
  Se  Se258  1  0.75060662  0.91629790  0.70180131  1
