# generated using pymatgen
data_In86Cu29Se144
_symmetry_space_group_name_H-M   'P 1'
_cell_length_a   17.58906424
_cell_length_b   17.58991692
_cell_length_c   23.45515582
_cell_angle_alpha   90.02895185
_cell_angle_beta   89.99614183
_cell_angle_gamma   89.97875696
_symmetry_Int_Tables_number   1
_chemical_formula_structural   In86Cu29Se144
_chemical_formula_sum   'In86 Cu29 Se144'
_cell_volume   7256.79340817
_cell_formula_units_Z   1
loop_
 _symmetry_equiv_pos_site_id
 _symmetry_equiv_pos_as_xyz
  1  'x, y, z'
loop_
 _atom_site_type_symbol
 _atom_site_label
 _atom_site_symmetry_multiplicity
 _atom_site_fract_x
 _atom_site_fract_y
 _atom_site_fract_z
 _atom_site_occupancy
  In  In0  1  0.00399302  0.16314746  0.12902979  1
  In  In1  1  -0.01543926  0.16355390  0.62242397  1
  In  In2  1  0.00976567  0.48678796  0.14178234  1
  In  In3  1  0.00634616  0.49968371  0.61460815  1
  In  In4  1  -0.00571114  0.84563446  0.13354562  1
  In  In5  1  0.01225880  0.83028825  0.62222596  1
  In  In6  1  0.33368056  0.16760766  0.12816792  1
  In  In7  1  0.34444722  0.16205196  0.64181006  1
  In  In8  1  0.32201585  0.50051302  0.12494645  1
  In  In9  1  0.32565257  0.49126698  0.62150011  1
  In  In10  1  0.35290779  0.84106497  0.11877797  1
  In  In11  1  0.33842208  0.84037602  0.62078007  1
  In  In12  1  0.65959833  0.16882930  0.12457862  1
  In  In13  1  0.68242444  0.16746716  0.63007998  1
  In  In14  1  0.65734701  0.49284963  0.13043000  1
  In  In15  1  0.65888282  0.51051359  0.62868206  1
  In  In16  1  0.67924849  0.84666641  0.10975182  1
  In  In17  1  0.64553657  0.83745731  0.63066116  1
  In  In18  1  0.16127802  -0.00550345  0.36579678  1
  In  In19  1  0.17749307  0.01320010  0.86967057  1
  In  In20  1  0.17734543  0.34240710  0.36962930  1
  In  In21  1  0.17433032  0.32044692  0.88723001  1
  In  In22  1  0.15180672  0.66981762  0.38718895  1
  In  In23  1  0.15485947  0.66367339  0.87970987  1
  In  In24  1  0.49457352  -0.00617805  0.36920428  1
  In  In25  1  0.49829304  0.01318783  0.88506124  1
  In  In26  1  0.50709994  0.33703051  0.37238601  1
  In  In27  1  0.47752047  0.30852876  0.85386141  1
  In  In28  1  0.49095470  0.66975091  0.38658879  1
  In  In29  1  0.51823940  0.67481882  0.86819241  1
  In  In30  1  0.83908796  0.00764563  0.37009632  1
  In  In31  1  0.82380301  -0.01886070  0.86987115  1
  In  In32  1  0.82052240  0.32871444  0.36443697  1
  In  In33  1  0.82943825  0.33580126  0.87321442  1
  In  In34  1  0.84876848  0.65688311  0.37038769  1
  In  In35  1  0.82696366  0.68311833  0.87339310  1
  In  In36  1  -0.01102522  0.15681449  0.36763745  1
  In  In37  1  0.01156848  0.16838480  0.87842502  1
  In  In38  1  0.01015843  0.50985737  0.36199719  1
  In  In39  1  0.00579851  0.50745677  0.87893547  1
  In  In40  1  0.00638900  0.83747578  0.36936582  1
  In  In41  1  -0.01872770  0.83976343  0.87692197  1
  In  In42  1  0.33307671  0.16521688  0.36659151  1
  In  In43  1  0.33303590  0.16484660  0.87703690  1
  In  In44  1  0.33581642  0.49425419  0.38216741  1
  In  In45  1  0.33520236  0.48475899  0.87820224  1
  In  In46  1  0.32631187  0.83349966  0.37829228  1
  In  In47  1  0.33895506  0.85676467  0.86989310  1
  In  In48  1  0.67506031  0.17001999  0.37020684  1
  In  In49  1  0.63540013  0.15564108  0.87108438  1
  In  In50  1  0.66894485  0.48705972  0.37730474  1
  In  In51  1  0.66079565  0.49195410  0.86700881  1
  In  In52  1  0.65190465  0.83111298  0.37586681  1
  In  In53  1  0.67570467  0.83683538  0.87955233  1
  In  In54  1  0.15631086  0.01309959  0.13147326  1
  In  In55  1  0.17691497  -0.00635008  0.62755203  1
  In  In56  1  0.17058676  0.33245049  0.12880216  1
  In  In57  1  0.17246628  0.34001102  0.62237046  1
  In  In58  1  0.16979180  0.65367618  0.12297022  1
  In  In59  1  0.16030337  0.66915820  0.61188321  1
  In  In60  1  0.50225662  0.00099732  0.12523892  1
  In  In61  1  0.49862975  -0.01386030  0.63208718  1
  In  In62  1  0.50961722  0.31883930  0.13283160  1
  In  In63  1  0.49050224  0.33804742  0.63363607  1
  In  In64  1  0.49650671  0.67674559  0.12316822  1
  In  In65  1  0.50913199  0.67775432  0.61914426  1
  In  In66  1  0.83792918  -0.00584019  0.12636921  1
  In  In67  1  0.83227150  0.01835733  0.62565550  1
  In  In68  1  0.83018276  0.33894297  0.13642314  1
  In  In69  1  0.83323836  0.31857298  0.62092572  1
  In  In70  1  0.83255751  0.68240222  0.12814678  1
  In  In71  1  0.83170178  0.66284813  0.62641892  1
  In  In72  1  0.33060333  0.66754474  0.24780220  1
  In  In73  1  0.66415602  0.00333487  0.75217182  1
  In  In74  1  0.49841695  0.49854571  0.00030891  1
  In  In75  1  0.16550919  0.16875157  0.49483109  1
  In  In76  1  0.67135241  0.66320641  0.25487630  1
  In  In77  1  0.50234752  0.16466650  0.51005157  1
  In  In78  1  0.33597949  0.66939899  0.74888435  1
  In  In79  1  0.83759193  0.50022391  0.49555927  1
  In  In80  1  0.00036993  0.33163923  0.74661888  1
  In  In81  1  0.17044055  0.83412935  -0.00286368  1
  In  In82  1  -0.00465325  0.67243641  0.74401589  1
  In  In83  1  0.83791059  0.50159479  0.00796769  1
  In  In84  1  0.83113446  0.16072190  0.00203038  1
  In  In85  1  0.83237623  0.83679161  0.49523614  1
  Cu  Cu86  1  0.00272587  -0.00154911  0.49278665  1
  Cu  Cu87  1  0.00054195  -0.00099153  0.00461340  1
  Cu  Cu88  1  0.33709142  0.33129201  0.50158332  1
  Cu  Cu89  1  0.65675567  0.32635831  -0.00320136  1
  Cu  Cu90  1  0.33248303  0.32846497  0.00219981  1
  Cu  Cu91  1  0.66062198  0.66982605  0.50287090  1
  Cu  Cu92  1  0.16687542  0.16609424  0.75463226  1
  Cu  Cu93  1  0.49883621  0.49193157  0.25538826  1
  Cu  Cu94  1  0.83737085  0.83870742  0.24981225  1
  Cu  Cu95  1  0.50479854  0.84150660  0.24640744  1
  Cu  Cu96  1  0.17229918  0.49318968  0.74959798  1
  Cu  Cu97  1  0.33137116  -0.01303361  0.49859051  1
  Cu  Cu98  1  0.00420782  0.66353334  0.00274425  1
  Cu  Cu99  1  0.16562208  0.17157436  0.24921490  1
  Cu  Cu100  1  0.00842343  0.33506886  0.01009726  1
  Cu  Cu101  1  0.33114230  0.65873441  0.50373081  1
  Cu  Cu102  1  0.67318571  0.67034604  -0.00456211  1
  Cu  Cu103  1  0.33345055  0.01023580  0.00159172  1
  Cu  Cu104  1  0.49993517  0.16388147  0.24989763  1
  Cu  Cu105  1  0.82886647  0.50082212  0.74729136  1
  Cu  Cu106  1  0.82969478  0.16170357  0.24460652  1
  Cu  Cu107  1  0.16456364  0.83918571  0.74715901  1
  Cu  Cu108  1  0.17106921  0.83180031  0.25158210  1
  Cu  Cu109  1  0.33639657  0.66774233  -0.00162966  1
  Cu  Cu110  1  0.16889191  0.49992208  0.25117789  1
  Cu  Cu111  1  0.66710887  0.33407068  0.49524225  1
  Cu  Cu112  1  0.66218484  0.00389980  0.50713446  1
  Cu  Cu113  1  -0.00078982  0.33504243  0.49507386  1
  Cu  Cu114  1  0.50095340  0.50062437  0.74769217  1
  Se  Se115  1  0.08238380  0.08683394  0.05308592  1
  Se  Se116  1  0.08011712  0.07828481  0.55744879  1
  Se  Se117  1  0.08826318  0.42202624  0.06166482  1
  Se  Se118  1  0.08605821  0.41123720  0.54977746  1
  Se  Se119  1  0.08116274  0.74954268  0.06202944  1
  Se  Se120  1  0.07921543  0.75224685  0.54543072  1
  Se  Se121  1  0.41848471  0.08793664  0.05831893  1
  Se  Se122  1  0.40531987  0.07135803  0.56046569  1
  Se  Se123  1  0.41341775  0.40838194  0.06386381  1
  Se  Se124  1  0.41919773  0.41479663  0.55538428  1
  Se  Se125  1  0.42159845  0.75184662  0.04658238  1
  Se  Se126  1  0.41235968  0.74787749  0.55393348  1
  Se  Se127  1  0.74086428  0.07192349  0.06015106  1
  Se  Se128  1  0.75028757  0.08985947  0.55025022  1
  Se  Se129  1  0.73789216  0.40666131  0.05616930  1
  Se  Se130  1  0.74673423  0.41538513  0.55887326  1
  Se  Se131  1  0.75893657  0.75145646  0.04814790  1
  Se  Se132  1  0.74289416  0.75043744  0.56000220  1
  Se  Se133  1  0.24873900  0.24816388  0.05781427  1
  Se  Se134  1  0.26246572  0.24480865  0.56102824  1
  Se  Se135  1  0.25372130  0.58292802  0.04857452  1
  Se  Se136  1  0.24452933  0.57607709  0.55356863  1
  Se  Se137  1  0.25232402  0.92689100  0.06083857  1
  Se  Se138  1  0.24321995  0.90873633  0.55129857  1
  Se  Se139  1  0.57546397  0.24421977  0.05135239  1
  Se  Se140  1  0.59254286  0.25942746  0.56377114  1
  Se  Se141  1  0.59352700  0.59189548  0.05742241  1
  Se  Se142  1  0.57920174  0.58079699  0.55186716  1
  Se  Se143  1  0.55988390  0.89509798  0.06007384  1
  Se  Se144  1  0.57662755  0.91742849  0.55289598  1
  Se  Se145  1  0.91637993  0.25846930  0.06222724  1
  Se  Se146  1  0.91799122  0.24927213  0.54689471  1
  Se  Se147  1  0.92699714  0.58854311  0.06872740  1
  Se  Se148  1  0.92549918  0.59725024  0.55316118  1
  Se  Se149  1  0.91754651  0.91269121  0.05340085  1
  Se  Se150  1  0.91999217  0.92607374  0.55787518  1
  Se  Se151  1  0.07696829  0.25509922  0.43219762  1
  Se  Se152  1  0.08372124  0.24658634  0.95524112  1
  Se  Se153  1  0.07944789  0.57005010  0.44679415  1
  Se  Se154  1  0.08818529  0.57735686  0.95425017  1
  Se  Se155  1  0.08767107  0.91602716  0.44233053  1
  Se  Se156  1  0.08033166  0.92397864  0.93817087  1
  Se  Se157  1  0.41456148  0.24848687  0.44222598  1
  Se  Se158  1  0.41721942  0.25140495  0.94469236  1
  Se  Se159  1  0.41714499  0.57697577  0.45159406  1
  Se  Se160  1  0.41647054  0.59089528  0.93465904  1
  Se  Se161  1  0.41966130  0.91178429  0.44305207  1
  Se  Se162  1  0.41418810  0.92277603  0.94995818  1
  Se  Se163  1  0.75132116  0.25080682  0.44420183  1
  Se  Se164  1  0.74372477  0.25048777  0.93959425  1
  Se  Se165  1  0.74295026  0.59478059  0.43999234  1
  Se  Se166  1  0.74751128  0.58054778  0.93897214  1
  Se  Se167  1  0.73870860  0.92717747  0.43940462  1
  Se  Se168  1  0.75412129  0.91684585  0.95180687  1
  Se  Se169  1  0.25691360  0.07424940  0.43961295  1
  Se  Se170  1  0.24574972  0.08925328  0.94902823  1
  Se  Se171  1  0.24940482  0.41272893  0.45051647  1
  Se  Se172  1  0.24986879  0.41615761  0.95169237  1
  Se  Se173  1  0.25256033  0.74368768  0.44641413  1
  Se  Se174  1  0.26066664  0.74712698  0.93357501  1
  Se  Se175  1  0.58486316  0.08088367  0.44034996  1
  Se  Se176  1  0.59105148  0.07882043  0.95637767  1
  Se  Se177  1  0.57947955  0.41806921  0.44871113  1
  Se  Se178  1  0.57813846  0.40669235  0.93629950  1
  Se  Se179  1  0.57692022  0.75470876  0.45129176  1
  Se  Se180  1  0.58656392  0.75303373  0.94570344  1
  Se  Se181  1  0.91496923  0.08380238  0.44692844  1
  Se  Se182  1  0.92141073  0.07522293  0.93944231  1
  Se  Se183  1  0.91940554  0.41049945  0.43149687  1
  Se  Se184  1  0.92654022  0.40874672  0.94538638  1
  Se  Se185  1  0.92508507  0.74557864  0.44051064  1
  Se  Se186  1  0.92058727  0.74254497  0.94690601  1
  Se  Se187  1  0.25245051  0.25230142  0.30149506  1
  Se  Se188  1  0.24850099  0.25080115  0.80795048  1
  Se  Se189  1  0.24658158  0.58146505  0.31346766  1
  Se  Se190  1  0.24415215  0.57940447  0.81114283  1
  Se  Se191  1  0.25569714  0.91529394  0.30274205  1
  Se  Se192  1  0.24837884  0.92273128  0.79881025  1
  Se  Se193  1  0.58276685  0.24738680  0.30524956  1
  Se  Se194  1  0.60220492  0.26793111  0.80581396  1
  Se  Se195  1  0.57187888  0.58034109  0.31420065  1
  Se  Se196  1  0.58614284  0.58254384  0.79942796  1
  Se  Se197  1  0.58946426  0.92056735  0.30187619  1
  Se  Se198  1  0.57728493  0.91755378  0.81578468  1
  Se  Se199  1  0.91051275  0.24535469  0.30087473  1
  Se  Se200  1  0.91447852  0.24411570  0.81024873  1
  Se  Se201  1  0.91270461  0.57559140  0.29475366  1
  Se  Se202  1  0.91116496  0.57805698  0.80849256  1
  Se  Se203  1  0.92122545  0.92133467  0.30378150  1
  Se  Se204  1  0.91547435  0.91630028  0.79909022  1
  Se  Se205  1  0.08291551  0.08469938  0.30096973  1
  Se  Se206  1  0.08000691  0.08329613  0.80378165  1
  Se  Se207  1  0.08503934  0.41191320  0.30010586  1
  Se  Se208  1  0.08936770  0.41778022  0.81197933  1
  Se  Se209  1  0.08934086  0.74763302  0.30489966  1
  Se  Se210  1  0.08670618  0.75846035  0.80864549  1
  Se  Se211  1  0.41528659  0.07965086  0.30121406  1
  Se  Se212  1  0.42085299  0.08698328  0.80984982  1
  Se  Se213  1  0.41172024  0.41304544  0.30832102  1
  Se  Se214  1  0.41271279  0.41983961  0.79877516  1
  Se  Se215  1  0.42580768  0.75599984  0.30513797  1
  Se  Se216  1  0.42368284  0.76127950  0.80690712  1
  Se  Se217  1  0.74777598  0.07927951  0.30098722  1
  Se  Se218  1  0.75229813  0.09244433  0.81441330  1
  Se  Se219  1  0.74626491  0.42275398  0.29956322  1
  Se  Se220  1  0.75138961  0.41422590  0.80084222  1
  Se  Se221  1  0.76055945  0.75918739  0.31376425  1
  Se  Se222  1  0.74317355  0.75342456  0.80273359  1
  Se  Se223  1  0.24951815  0.08541379  0.19801633  1
  Se  Se224  1  0.24828448  0.08155988  0.69923299  1
  Se  Se225  1  0.25395721  0.41671287  0.19918342  1
  Se  Se226  1  0.25484667  0.40894729  0.69836847  1
  Se  Se227  1  0.24854349  0.75999692  0.18282196  1
  Se  Se228  1  0.23869480  0.75138037  0.68848950  1
  Se  Se229  1  0.58448415  0.08235266  0.19581746  1
  Se  Se230  1  0.57611941  0.09219723  0.68861090  1
  Se  Se231  1  0.58357420  0.41025997  0.20208735  1
  Se  Se232  1  0.58585148  0.41756275  0.69526937  1
  Se  Se233  1  0.58568393  0.75436299  0.19217542  1
  Se  Se234  1  0.58006128  0.74594968  0.70002315  1
  Se  Se235  1  0.91798260  0.07964872  0.19427394  1
  Se  Se236  1  0.91702738  0.08626477  0.69927784  1
  Se  Se237  1  0.91155399  0.41903297  0.20408510  1
  Se  Se238  1  0.91313071  0.42644691  0.68553982  1
  Se  Se239  1  0.92050597  0.75154588  0.20018827  1
  Se  Se240  1  0.90563815  0.76544975  0.68873144  1
  Se  Se241  1  0.08061311  0.25343767  0.19571139  1
  Se  Se242  1  0.09154131  0.24124965  0.68621353  1
  Se  Se243  1  0.08791618  0.58815131  0.19983719  1
  Se  Se244  1  0.09104310  0.57527143  0.69208434  1
  Se  Se245  1  0.08725922  0.91833722  0.19972912  1
  Se  Se246  1  0.08061028  0.92036155  0.69308055  1
  Se  Se247  1  0.41483876  0.25007061  0.20001651  1
  Se  Se248  1  0.42308554  0.24936692  0.70557543  1
  Se  Se249  1  0.42702982  0.57528250  0.19122714  1
  Se  Se250  1  0.41993557  0.57880249  0.68560289  1
  Se  Se251  1  0.41512554  0.92206757  0.19751481  1
  Se  Se252  1  0.40862117  0.91438593  0.69913677  1
  Se  Se253  1  0.74477516  0.24724029  0.19459130  1
  Se  Se254  1  0.75774808  0.25223831  0.69937512  1
  Se  Se255  1  0.75557246  0.57738337  0.18815040  1
  Se  Se256  1  0.74781509  0.58818403  0.69684286  1
  Se  Se257  1  0.74939832  0.91310422  0.19363533  1
  Se  Se258  1  0.75048184  0.91748801  0.68553060  1
