# generated using pymatgen
data_In86Cu29Se144
_symmetry_space_group_name_H-M   'P 1'
_cell_length_a   17.57439089
_cell_length_b   17.57635681
_cell_length_c   23.43788163
_cell_angle_alpha   89.98484687
_cell_angle_beta   90.00883813
_cell_angle_gamma   89.99859247
_symmetry_Int_Tables_number   1
_chemical_formula_structural   In86Cu29Se144
_chemical_formula_sum   'In86 Cu29 Se144'
_cell_volume   7239.81515884
_cell_formula_units_Z   1
loop_
 _symmetry_equiv_pos_site_id
 _symmetry_equiv_pos_as_xyz
  1  'x, y, z'
loop_
 _atom_site_type_symbol
 _atom_site_label
 _atom_site_symmetry_multiplicity
 _atom_site_fract_x
 _atom_site_fract_y
 _atom_site_fract_z
 _atom_site_occupancy
  In  In0  1  -0.00279634  0.17085666  0.13624042  1
  In  In1  1  0.00102316  0.14414479  0.63131354  1
  In  In2  1  -0.01680416  0.50334501  0.12757748  1
  In  In3  1  0.01004143  0.52267785  0.59993895  1
  In  In4  1  0.01231595  0.83461164  0.11983421  1
  In  In5  1  0.00337998  0.83020718  0.62204136  1
  In  In6  1  0.33515848  0.15589131  0.12187626  1
  In  In7  1  0.32913979  0.15912872  0.61923926  1
  In  In8  1  0.33643761  0.48709070  0.12235396  1
  In  In9  1  0.33000514  0.51195855  0.63331099  1
  In  In10  1  0.33264490  0.83816293  0.11406078  1
  In  In11  1  0.30009558  0.85574526  0.65523362  1
  In  In12  1  0.66460483  0.17067601  0.12567607  1
  In  In13  1  0.67465851  0.18231528  0.62681018  1
  In  In14  1  0.67034020  0.50412099  0.12594135  1
  In  In15  1  0.67044424  0.50195912  0.62443028  1
  In  In16  1  0.66585060  0.83863027  0.12945462  1
  In  In17  1  0.66479208  0.82019352  0.62482207  1
  In  In18  1  0.16051644  0.00773149  0.38389482  1
  In  In19  1  0.15991275  -0.02519868  0.85576589  1
  In  In20  1  0.15250404  0.34486187  0.38981348  1
  In  In21  1  0.16307555  0.32589467  0.87205798  1
  In  In22  1  0.13845758  0.68315409  0.40559749  1
  In  In23  1  0.18840528  0.69712779  0.84567686  1
  In  In24  1  0.51530323  0.00585734  0.37436711  1
  In  In25  1  0.49339809  0.01017560  0.87973922  1
  In  In26  1  0.50086309  0.32463147  0.37406852  1
  In  In27  1  0.52024094  0.32017830  0.88293911  1
  In  In28  1  0.50233184  0.65605396  0.37394069  1
  In  In29  1  0.50362318  0.66356009  0.87954681  1
  In  In30  1  0.83137495  -0.00767639  0.37083485  1
  In  In31  1  0.83442016  -0.00704642  0.87660895  1
  In  In32  1  0.84210500  0.34153421  0.36103842  1
  In  In33  1  0.83249358  0.35201846  0.88010116  1
  In  In34  1  0.83407710  0.67239177  0.38674599  1
  In  In35  1  0.82370997  0.66241189  0.86595980  1
  In  In36  1  0.00311979  0.17024427  0.37429563  1
  In  In37  1  0.00967775  0.15763124  0.87478860  1
  In  In38  1  -0.00427075  0.49913182  0.38688016  1
  In  In39  1  -0.01488069  0.50900102  0.87924259  1
  In  In40  1  -0.01129032  0.83790958  0.38707254  1
  In  In41  1  0.01163907  0.84522574  0.86054644  1
  In  In42  1  0.33486911  0.16388670  0.38679798  1
  In  In43  1  0.35760506  0.15494788  0.86916527  1
  In  In44  1  0.33015993  0.49656370  0.38012207  1
  In  In45  1  0.33319248  0.51512887  0.87295408  1
  In  In46  1  0.32721072  0.82331270  0.37936854  1
  In  In47  1  0.33541002  0.83697025  0.86976111  1
  In  In48  1  0.66515664  0.16468723  0.37087125  1
  In  In49  1  0.64245362  0.16330880  0.86622373  1
  In  In50  1  0.68212551  0.51185467  0.35634816  1
  In  In51  1  0.67147185  0.49661996  0.87547588  1
  In  In52  1  0.67551520  0.84412335  0.36948776  1
  In  In53  1  0.67340084  0.81982537  0.87747126  1
  In  In54  1  0.16468375  -0.00305622  0.12500202  1
  In  In55  1  0.16062146  -0.00282154  0.62380470  1
  In  In56  1  0.16615479  0.32649605  0.13344640  1
  In  In57  1  0.16037471  0.32724596  0.61655257  1
  In  In58  1  0.15548213  0.67950062  0.12029223  1
  In  In59  1  0.16025473  0.67206677  0.62545552  1
  In  In60  1  0.51764893  0.01141886  0.10037502  1
  In  In61  1  0.49101527  -0.00021612  0.62726706  1
  In  In62  1  0.51336248  0.34643841  0.11098264  1
  In  In63  1  0.51725125  0.32834139  0.62877228  1
  In  In64  1  0.51191489  0.68164112  0.11175170  1
  In  In65  1  0.49484725  0.66806750  0.63817591  1
  In  In66  1  0.83458833  -0.00111767  0.13037794  1
  In  In67  1  0.86092797  0.00313080  0.63157837  1
  In  In68  1  0.81712252  0.35013062  0.14444779  1
  In  In69  1  0.81924061  0.34140667  0.62751615  1
  In  In70  1  0.83571235  0.64630599  0.12242067  1
  In  In71  1  0.83224050  0.66627955  0.61891974  1
  In  In72  1  0.83421669  0.16891739  0.50552479  1
  In  In73  1  0.49257214  0.83407433  0.50530692  1
  In  In74  1  0.16410211  0.51001670  -0.00172476  1
  In  In75  1  0.33583617  0.32907139  0.25250091  1
  In  In76  1  0.83514653  0.83133224  -0.00232889  1
  In  In77  1  0.83132640  0.16793384  -0.00057850  1
  In  In78  1  0.66765326  -0.00032053  0.75369340  1
  In  In79  1  0.34152405  0.33534380  0.74843381  1
  In  In80  1  0.17287595  0.16161230  -0.00107638  1
  In  In81  1  0.33331751  0.66074774  0.25563420  1
  In  In82  1  -0.00807015  0.66735942  0.25833033  1
  In  In83  1  0.33686611  -0.00204207  0.24122331  1
  In  In84  1  -0.01334544  0.33496037  0.74615314  1
  In  In85  1  0.49662456  0.49439852  0.50307794  1
  Cu  Cu86  1  0.32795404  -0.00404460  -0.00655002  1
  Cu  Cu87  1  0.15297111  0.50310445  0.74557493  1
  Cu  Cu88  1  0.83246100  0.15570407  0.25143641  1
  Cu  Cu89  1  0.50420903  0.16555605  0.24409647  1
  Cu  Cu90  1  0.34297599  0.33652711  -0.00672783  1
  Cu  Cu91  1  0.83279599  0.50553904  0.74432147  1
  Cu  Cu92  1  0.32358134  0.67374925  0.51293939  1
  Cu  Cu93  1  -0.00902709  0.33700886  0.00898528  1
  Cu  Cu94  1  0.66370776  0.33244493  0.49593306  1
  Cu  Cu95  1  0.32997844  -0.00333329  0.50741203  1
  Cu  Cu96  1  0.50784294  0.50622606  0.24092405  1
  Cu  Cu97  1  0.83764338  0.83094399  0.74730926  1
  Cu  Cu98  1  0.00703049  0.67592174  -0.00810739  1
  Cu  Cu99  1  0.83408301  0.82828683  0.25075878  1
  Cu  Cu100  1  0.67431490  0.00193572  0.49653460  1
  Cu  Cu101  1  0.33016212  0.67181672  -0.00819993  1
  Cu  Cu102  1  0.50115970  0.82591985  0.75560546  1
  Cu  Cu103  1  0.50868367  0.49805924  0.75609463  1
  Cu  Cu104  1  0.33365539  0.33050817  0.50188135  1
  Cu  Cu105  1  0.66571137  0.66974536  0.49705214  1
  Cu  Cu106  1  0.16484786  0.83961242  0.24889497  1
  Cu  Cu107  1  0.67204149  0.33544449  0.00389129  1
  Cu  Cu108  1  0.15682325  0.50609135  0.26496615  1
  Cu  Cu109  1  -0.00656033  0.32705077  0.49872384  1
  Cu  Cu110  1  0.17310851  0.15486055  0.74729512  1
  Cu  Cu111  1  0.00289107  -0.00394548  0.50394508  1
  Cu  Cu112  1  0.51400795  0.83191971  0.24334014  1
  Cu  Cu113  1  0.15484802  0.17242333  0.26280787  1
  Cu  Cu114  1  0.67129760  0.65628615  -0.00327967  1
  Se  Se115  1  0.07511198  0.08488408  0.06038882  1
  Se  Se116  1  0.08501600  0.08612376  0.55207706  1
  Se  Se117  1  0.08327758  0.41374026  0.06294152  1
  Se  Se118  1  0.08086201  0.41160686  0.54814722  1
  Se  Se119  1  0.09049063  0.76042805  0.04265508  1
  Se  Se120  1  0.07785408  0.74435357  0.55047630  1
  Se  Se121  1  0.41061541  0.08369690  0.04505908  1
  Se  Se122  1  0.42046521  0.08099641  0.55143569  1
  Se  Se123  1  0.42106840  0.42415062  0.04586264  1
  Se  Se124  1  0.40878139  0.40839721  0.56879563  1
  Se  Se125  1  0.41424117  0.75313585  0.04779867  1
  Se  Se126  1  0.40678348  0.75171604  0.57117359  1
  Se  Se127  1  0.74466562  0.07482677  0.05846320  1
  Se  Se128  1  0.74929370  0.07436267  0.56592616  1
  Se  Se129  1  0.75477377  0.41711255  0.05808731  1
  Se  Se130  1  0.74327984  0.41699053  0.55096418  1
  Se  Se131  1  0.74891733  0.73873571  0.05969234  1
  Se  Se132  1  0.74895852  0.75352710  0.54928457  1
  Se  Se133  1  0.26066446  0.26178558  0.05718065  1
  Se  Se134  1  0.24832588  0.24537818  0.55204762  1
  Se  Se135  1  0.25797358  0.59505107  0.06235214  1
  Se  Se136  1  0.24551986  0.58001896  0.55963794  1
  Se  Se137  1  0.24256764  0.91993585  0.05071130  1
  Se  Se138  1  0.25003996  0.91108127  0.56003017  1
  Se  Se139  1  0.58559913  0.24609106  0.05009271  1
  Se  Se140  1  0.58552827  0.24706504  0.55124198  1
  Se  Se141  1  0.58498158  0.57890202  0.05321116  1
  Se  Se142  1  0.58045220  0.59517788  0.55833438  1
  Se  Se143  1  0.57613781  0.89458249  0.05302573  1
  Se  Se144  1  0.59141564  0.92451068  0.55897161  1
  Se  Se145  1  0.91146781  0.25693945  0.06770308  1
  Se  Se146  1  0.92375455  0.25395722  0.56995407  1
  Se  Se147  1  0.92879724  0.58947893  0.04720052  1
  Se  Se148  1  0.88786836  0.56476691  0.54920952  1
  Se  Se149  1  0.92344525  0.92389629  0.05655209  1
  Se  Se150  1  0.91442818  0.91473628  0.55369822  1
  Se  Se151  1  0.08188020  0.24238990  0.45065888  1
  Se  Se152  1  0.07268585  0.25872718  0.94873809  1
  Se  Se153  1  0.09133119  0.56384074  0.45569019  1
  Se  Se154  1  0.08754223  0.59729844  0.92935845  1
  Se  Se155  1  0.08598101  0.91389386  0.44919998  1
  Se  Se156  1  0.08392074  0.91824927  0.93937437  1
  Se  Se157  1  0.42092403  0.25129852  0.44899404  1
  Se  Se158  1  0.41974852  0.24591457  0.94330410  1
  Se  Se159  1  0.40440910  0.59551350  0.44959597  1
  Se  Se160  1  0.41597581  0.58230184  0.94891555  1
  Se  Se161  1  0.41012296  0.92641327  0.43755851  1
  Se  Se162  1  0.41599541  0.91534246  0.94293844  1
  Se  Se163  1  0.75016657  0.25424704  0.43872577  1
  Se  Se164  1  0.74251065  0.25524749  0.93683489  1
  Se  Se165  1  0.74247089  0.58084495  0.44371094  1
  Se  Se166  1  0.75913262  0.57870853  0.94381845  1
  Se  Se167  1  0.75534510  0.91408572  0.44727249  1
  Se  Se168  1  0.73807353  0.92367412  0.94522930  1
  Se  Se169  1  0.24922038  0.08269862  0.45238621  1
  Se  Se170  1  0.25252684  0.07721618  0.92935120  1
  Se  Se171  1  0.25184032  0.41805918  0.45201003  1
  Se  Se172  1  0.25104098  0.41159731  0.93858986  1
  Se  Se173  1  0.24569474  0.75928782  0.45678391  1
  Se  Se174  1  0.24714465  0.75341546  0.93773549  1
  Se  Se175  1  0.58840470  0.08713025  0.44832849  1
  Se  Se176  1  0.58449594  0.08442275  0.94675888  1
  Se  Se177  1  0.58763055  0.41798717  0.43584378  1
  Se  Se178  1  0.58846630  0.41830200  0.94796889  1
  Se  Se179  1  0.58222769  0.74985117  0.43877243  1
  Se  Se180  1  0.58870531  0.74518967  0.94880676  1
  Se  Se181  1  0.91991039  0.07652521  0.44325539  1
  Se  Se182  1  0.92617140  0.07428382  0.94554193  1
  Se  Se183  1  0.90687026  0.40789983  0.44668832  1
  Se  Se184  1  0.91536492  0.42454596  0.95433330  1
  Se  Se185  1  0.94217798  0.72603389  0.44952003  1
  Se  Se186  1  0.92140463  0.74905840  0.93010501  1
  Se  Se187  1  0.24403042  0.24920483  0.31918916  1
  Se  Se188  1  0.24920908  0.23979562  0.80669045  1
  Se  Se189  1  0.23724028  0.58826134  0.32217103  1
  Se  Se190  1  0.24656746  0.57709472  0.79694431  1
  Se  Se191  1  0.24890539  0.91462413  0.30981790  1
  Se  Se192  1  0.25414259  0.90483707  0.79042078  1
  Se  Se193  1  0.58191326  0.24881782  0.30141104  1
  Se  Se194  1  0.58056821  0.25716365  0.79560883  1
  Se  Se195  1  0.58523879  0.59212317  0.29692169  1
  Se  Se196  1  0.58932120  0.58407449  0.80929690  1
  Se  Se197  1  0.58581621  0.92030843  0.30142268  1
  Se  Se198  1  0.58061663  0.90771683  0.81460260  1
  Se  Se199  1  0.91619637  0.24148045  0.30233914  1
  Se  Se200  1  0.91432554  0.24959852  0.81983766  1
  Se  Se201  1  0.90488318  0.57343703  0.31374181  1
  Se  Se202  1  0.91671356  0.58553504  0.79982767  1
  Se  Se203  1  0.91905547  0.90856623  0.30537464  1
  Se  Se204  1  0.91238120  0.92199299  0.79992033  1
  Se  Se205  1  0.07805563  0.07560475  0.30741045  1
  Se  Se206  1  0.08265949  0.07873192  0.79980399  1
  Se  Se207  1  0.07496491  0.41697605  0.31264638  1
  Se  Se208  1  0.08132428  0.42163595  0.81042093  1
  Se  Se209  1  0.08960362  0.75719970  0.31283002  1
  Se  Se210  1  0.06895416  0.74331802  0.79388404  1
  Se  Se211  1  0.41997118  0.09087377  0.30634560  1
  Se  Se212  1  0.42617238  0.07463978  0.79437481  1
  Se  Se213  1  0.42618397  0.43057433  0.30561724  1
  Se  Se214  1  0.42474310  0.41980037  0.81614093  1
  Se  Se215  1  0.42856196  0.76060007  0.30740791  1
  Se  Se216  1  0.41878205  0.74239151  0.80902980  1
  Se  Se217  1  0.74632977  0.07631579  0.30543678  1
  Se  Se218  1  0.75671999  0.09184776  0.81302164  1
  Se  Se219  1  0.72998395  0.39500757  0.30253309  1
  Se  Se220  1  0.75477314  0.41996901  0.80082360  1
  Se  Se221  1  0.75582117  0.74761677  0.31021152  1
  Se  Se222  1  0.74789198  0.75136844  0.79731285  1
  Se  Se223  1  0.23581206  0.09768845  0.19677870  1
  Se  Se224  1  0.25419191  0.07517330  0.69114043  1
  Se  Se225  1  0.24001221  0.42915377  0.20110321  1
  Se  Se226  1  0.23554851  0.41570032  0.69228588  1
  Se  Se227  1  0.24749307  0.75667835  0.19261235  1
  Se  Se228  1  0.25896628  0.72852722  0.69733493  1
  Se  Se229  1  0.57947859  0.07805874  0.18800539  1
  Se  Se230  1  0.58396405  0.08821203  0.68817492  1
  Se  Se231  1  0.58535848  0.41411585  0.19202912  1
  Se  Se232  1  0.58826147  0.42082113  0.69550152  1
  Se  Se233  1  0.59195640  0.74068303  0.19394451  1
  Se  Se234  1  0.58750630  0.74710912  0.70132548  1
  Se  Se235  1  0.92065504  0.07634582  0.19950656  1
  Se  Se236  1  0.90179313  0.10356238  0.70550334  1
  Se  Se237  1  0.93206522  0.40642106  0.19865677  1
  Se  Se238  1  0.91698720  0.43371543  0.68184858  1
  Se  Se239  1  0.91347418  0.75403353  0.18516766  1
  Se  Se240  1  0.91443793  0.74810226  0.68925846  1
  Se  Se241  1  0.07861023  0.25692693  0.20431161  1
  Se  Se242  1  0.08946394  0.24335323  0.69534516  1
  Se  Se243  1  0.08841666  0.58390581  0.19362784  1
  Se  Se244  1  0.07226642  0.58356914  0.68934907  1
  Se  Se245  1  0.07996589  0.91969207  0.19593660  1
  Se  Se246  1  0.06866074  0.92542162  0.69137870  1
  Se  Se247  1  0.42304655  0.24666787  0.18399248  1
  Se  Se248  1  0.42253784  0.24036157  0.68841032  1
  Se  Se249  1  0.41970239  0.58274010  0.18430047  1
  Se  Se250  1  0.41883772  0.57789867  0.70576636  1
  Se  Se251  1  0.42869162  0.90904027  0.18409072  1
  Se  Se252  1  0.42471225  0.91025200  0.69894750  1
  Se  Se253  1  0.74942746  0.24101818  0.19909462  1
  Se  Se254  1  0.75606471  0.25289897  0.70063423  1
  Se  Se255  1  0.76155033  0.57230124  0.19747995  1
  Se  Se256  1  0.74683888  0.59009521  0.69269236  1
  Se  Se257  1  0.75261047  0.91505045  0.19842154  1
  Se  Se258  1  0.75440734  0.91285393  0.68727682  1
