# generated using pymatgen
data_In86Cu29Se144
_symmetry_space_group_name_H-M   'P 1'
_cell_length_a   17.57869504
_cell_length_b   17.57745306
_cell_length_c   23.44016903
_cell_angle_alpha   89.98897279
_cell_angle_beta   90.00140779
_cell_angle_gamma   89.98923703
_symmetry_Int_Tables_number   1
_chemical_formula_structural   In86Cu29Se144
_chemical_formula_sum   'In86 Cu29 Se144'
_cell_volume   7242.74678707
_cell_formula_units_Z   1
loop_
 _symmetry_equiv_pos_site_id
 _symmetry_equiv_pos_as_xyz
  1  'x, y, z'
loop_
 _atom_site_type_symbol
 _atom_site_label
 _atom_site_symmetry_multiplicity
 _atom_site_fract_x
 _atom_site_fract_y
 _atom_site_fract_z
 _atom_site_occupancy
  In  In0  1  0.01203088  0.15568124  0.13316941  1
  In  In1  1  -0.00235511  0.15879825  0.60645674  1
  In  In2  1  -0.00458923  0.50581277  0.13379718  1
  In  In3  1  0.01363717  0.49291768  0.62501330  1
  In  In4  1  -0.00338316  0.83386490  0.13138450  1
  In  In5  1  -0.01678857  0.83395995  0.62115139  1
  In  In6  1  0.33466056  0.16657438  0.12909172  1
  In  In7  1  0.32969989  0.17246833  0.62732916  1
  In  In8  1  0.32766063  0.50193948  0.13500511  1
  In  In9  1  0.32806203  0.49407928  0.62607566  1
  In  In10  1  0.33131702  0.83764607  0.13352373  1
  In  In11  1  0.33221029  0.83484496  0.63124795  1
  In  In12  1  0.65359515  0.16182627  0.12491048  1
  In  In13  1  0.67494522  0.15806573  0.62825642  1
  In  In14  1  0.67711986  0.48380098  0.12145993  1
  In  In15  1  0.65151007  0.49927239  0.62306585  1
  In  In16  1  0.68278209  0.83965934  0.12313060  1
  In  In17  1  0.67839552  0.83703773  0.62187299  1
  In  In18  1  0.16936758  0.00782839  0.37262480  1
  In  In19  1  0.18110741  0.00422736  0.87543873  1
  In  In20  1  0.16536814  0.33147174  0.37557143  1
  In  In21  1  0.16605400  0.31926327  0.87707610  1
  In  In22  1  0.15985275  0.66031988  0.37198102  1
  In  In23  1  0.15912487  0.66399782  0.86715222  1
  In  In24  1  0.50986082  0.01380242  0.35900197  1
  In  In25  1  0.51065107  0.01359149  0.86843479  1
  In  In26  1  0.50661976  0.34422795  0.37744005  1
  In  In27  1  0.48987171  0.32524897  0.86755221  1
  In  In28  1  0.48650923  0.66185115  0.37639116  1
  In  In29  1  0.49209762  0.67563005  0.87203954  1
  In  In30  1  0.83343019  0.00389158  0.37761209  1
  In  In31  1  0.81174352  -0.00281388  0.88045505  1
  In  In32  1  0.83517809  0.30719982  0.38014044  1
  In  In33  1  0.83593989  0.34525784  0.87054006  1
  In  In34  1  0.84966758  0.66584113  0.37660674  1
  In  In35  1  0.84980551  0.65990989  0.88925467  1
  In  In36  1  -0.00249798  0.16463675  0.37306805  1
  In  In37  1  0.00730616  0.17650679  0.88156662  1
  In  In38  1  0.01020845  0.51027275  0.36916823  1
  In  In39  1  -0.01558427  0.51069922  0.87591263  1
  In  In40  1  -0.00645811  0.83147778  0.37240158  1
  In  In41  1  -0.00457637  0.82147597  0.87591684  1
  In  In42  1  0.32799990  0.15728851  0.36584127  1
  In  In43  1  0.33789208  0.17042192  0.87485623  1
  In  In44  1  0.33027450  0.49350772  0.37728796  1
  In  In45  1  0.32841165  0.49980049  0.86826403  1
  In  In46  1  0.33575061  0.83587326  0.36785135  1
  In  In47  1  0.33033890  0.83584125  0.86574672  1
  In  In48  1  0.67733223  0.16812493  0.37846774  1
  In  In49  1  0.65270623  0.15493871  0.86721709  1
  In  In50  1  0.66128899  0.47714908  0.38474492  1
  In  In51  1  0.68684563  0.49793576  0.86568704  1
  In  In52  1  0.67474254  0.85154747  0.37901164  1
  In  In53  1  0.67147129  0.85133651  0.87663080  1
  In  In54  1  0.16032267  0.00359478  0.13068060  1
  In  In55  1  0.16575940  0.01643876  0.61860611  1
  In  In56  1  0.17952285  0.32204165  0.13432878  1
  In  In57  1  0.16603652  0.33404210  0.61735202  1
  In  In58  1  0.16390004  0.67078821  0.13425159  1
  In  In59  1  0.17400643  0.65868562  0.63030807  1
  In  In60  1  0.49299861  0.01501336  0.14101645  1
  In  In61  1  0.50257101  -0.00253602  0.62959079  1
  In  In62  1  0.50138260  0.31450309  0.12956030  1
  In  In63  1  0.49173850  0.33558570  0.63050398  1
  In  In64  1  0.49045299  0.66007986  0.12667347  1
  In  In65  1  0.49718298  0.65136671  0.62523593  1
  In  In66  1  0.83738440  -0.00376361  0.13212070  1
  In  In67  1  0.82013372  -0.00790498  0.60767630  1
  In  In68  1  0.83498231  0.34660608  0.12461837  1
  In  In69  1  0.83638556  0.32323877  0.62953045  1
  In  In70  1  0.84983737  0.67190040  0.11337026  1
  In  In71  1  0.82894841  0.67872199  0.62734341  1
  In  In72  1  0.83452812  0.49964633  0.50190506  1
  In  In73  1  0.50284165  0.83167641  0.50217862  1
  In  In74  1  0.00007129  -0.00054677  0.74231657  1
  In  In75  1  0.50407615  0.17049919  0.49496476  1
  In  In76  1  0.00433770  0.33711994  0.74810444  1
  In  In77  1  0.83533374  0.16694709  0.00131429  1
  In  In78  1  0.16252656  0.83718117  0.49074204  1
  In  In79  1  0.66374261  0.67138724  0.74921757  1
  In  In80  1  0.16093539  0.49523187  -0.00631437  1
  In  In81  1  0.66622046  0.66532688  0.24700318  1
  In  In82  1  0.50573098  0.49306885  -0.00083028  1
  In  In83  1  0.50585933  0.84259779  -0.00151773  1
  In  In84  1  0.66491730  0.32687590  0.25347089  1
  In  In85  1  0.15906077  0.83766684  0.00776535  1
  Cu  Cu86  1  0.00442834  0.66782257  0.49753996  1
  Cu  Cu87  1  0.00740367  0.33323283  0.00230127  1
  Cu  Cu88  1  0.16683961  0.83447583  0.25348447  1
  Cu  Cu89  1  0.83838732  0.49955813  0.25124006  1
  Cu  Cu90  1  0.82867165  0.16178335  0.74798077  1
  Cu  Cu91  1  -0.00095955  -0.00228587  0.00805804  1
  Cu  Cu92  1  0.32524442  0.66983141  -0.00079348  1
  Cu  Cu93  1  0.49224566  0.50211789  0.25387075  1
  Cu  Cu94  1  0.83684504  0.16344020  0.25142312  1
  Cu  Cu95  1  0.16539877  0.83247553  0.75030173  1
  Cu  Cu96  1  0.16845606  0.50063664  0.74798674  1
  Cu  Cu97  1  0.17318666  0.16801719  0.74754091  1
  Cu  Cu98  1  0.33688475  0.00200071  0.49202547  1
  Cu  Cu99  1  0.32869780  0.65247228  0.50034691  1
  Cu  Cu100  1  0.83045286  0.83758315  0.74796060  1
  Cu  Cu101  1  0.16422462  0.16724390  0.25212620  1
  Cu  Cu102  1  0.49301699  0.49800058  0.74789019  1
  Cu  Cu103  1  0.67002796  0.32850947  -0.00382613  1
  Cu  Cu104  1  0.00263665  0.33399469  0.49441698  1
  Cu  Cu105  1  0.32844788  0.33210106  0.50175647  1
  Cu  Cu106  1  0.16826503  0.49627056  0.25403459  1
  Cu  Cu107  1  0.34283270  0.32150724  0.00435481  1
  Cu  Cu108  1  0.34004380  0.01277169  -0.00049080  1
  Cu  Cu109  1  0.66731853  0.66742562  0.50346201  1
  Cu  Cu110  1  0.49819409  0.16621316  0.74691629  1
  Cu  Cu111  1  0.67533722  0.66414398  -0.00100275  1
  Cu  Cu112  1  0.50036515  0.83423025  0.25281024  1
  Cu  Cu113  1  0.83609759  0.83424731  0.25087376  1
  Cu  Cu114  1  0.49449995  0.83623625  0.75112335  1
  Se  Se115  1  0.08647586  0.08251061  0.05396310  1
  Se  Se116  1  0.08841964  0.08373576  0.54167442  1
  Se  Se117  1  0.08540547  0.41050456  0.06642123  1
  Se  Se118  1  0.08505431  0.41787448  0.54751765  1
  Se  Se119  1  0.07290253  0.73849582  0.05966224  1
  Se  Se120  1  0.08358687  0.74736617  0.56020436  1
  Se  Se121  1  0.42252126  0.08711662  0.05926158  1
  Se  Se122  1  0.41482240  0.07852217  0.55689613  1
  Se  Se123  1  0.41188947  0.41320470  0.06348208  1
  Se  Se124  1  0.41243379  0.41336009  0.55641092  1
  Se  Se125  1  0.40915201  0.74952869  0.05590475  1
  Se  Se126  1  0.40624988  0.74051342  0.55759245  1
  Se  Se127  1  0.74786610  0.07789733  0.06148078  1
  Se  Se128  1  0.76155619  0.10231219  0.54934372  1
  Se  Se129  1  0.75571525  0.41355233  0.04476381  1
  Se  Se130  1  0.74678224  0.41182517  0.56295204  1
  Se  Se131  1  0.75288277  0.75036427  0.05336714  1
  Se  Se132  1  0.75340797  0.75254210  0.54992114  1
  Se  Se133  1  0.25132419  0.24595309  0.05626273  1
  Se  Se134  1  0.24732399  0.24404058  0.55244013  1
  Se  Se135  1  0.24936263  0.58681885  0.05841895  1
  Se  Se136  1  0.24329241  0.57518895  0.55530982  1
  Se  Se137  1  0.26051618  0.92727233  0.05740607  1
  Se  Se138  1  0.25885306  0.92022697  0.55342528  1
  Se  Se139  1  0.58555969  0.25109274  0.05206438  1
  Se  Se140  1  0.58458239  0.25159957  0.56595741  1
  Se  Se141  1  0.59310214  0.58823855  0.06056658  1
  Se  Se142  1  0.57932091  0.58328288  0.54912682  1
  Se  Se143  1  0.58275093  0.92638737  0.06885385  1
  Se  Se144  1  0.59337929  0.92732969  0.55451335  1
  Se  Se145  1  0.92618393  0.25351138  0.06355568  1
  Se  Se146  1  0.91638663  0.25789536  0.55071622  1
  Se  Se147  1  0.91102700  0.56400272  0.05501357  1
  Se  Se148  1  0.92422145  0.59082250  0.56202232  1
  Se  Se149  1  0.91654557  0.91498038  0.05952593  1
  Se  Se150  1  0.92935057  0.93026093  0.55111938  1
  Se  Se151  1  0.08284630  0.24588135  0.44294502  1
  Se  Se152  1  0.09185800  0.24580723  0.95553656  1
  Se  Se153  1  0.08673029  0.58100016  0.44853918  1
  Se  Se154  1  0.07287369  0.59628145  0.94539211  1
  Se  Se155  1  0.07091007  0.93001252  0.43845241  1
  Se  Se156  1  0.07787630  0.92575665  0.93841795  1
  Se  Se157  1  0.40675614  0.25460741  0.43726750  1
  Se  Se158  1  0.42670624  0.24438542  0.94714248  1
  Se  Se159  1  0.41712989  0.57436016  0.44777417  1
  Se  Se160  1  0.40924873  0.58758453  0.94387072  1
  Se  Se161  1  0.42159877  0.92353185  0.43597889  1
  Se  Se162  1  0.40950845  0.92461780  0.93743428  1
  Se  Se163  1  0.71689001  0.28350132  0.44081877  1
  Se  Se164  1  0.74929807  0.25041037  0.93350337  1
  Se  Se165  1  0.74397140  0.58781068  0.43792580  1
  Se  Se166  1  0.75179994  0.57669618  0.94513604  1
  Se  Se167  1  0.76495458  0.91285336  0.45016550  1
  Se  Se168  1  0.74781114  0.91517370  0.95681481  1
  Se  Se169  1  0.25067141  0.08701807  0.44490109  1
  Se  Se170  1  0.25178143  0.09125310  0.94633715  1
  Se  Se171  1  0.24490950  0.41543213  0.44731306  1
  Se  Se172  1  0.26337934  0.40455772  0.94419866  1
  Se  Se173  1  0.25956314  0.74258356  0.43994258  1
  Se  Se174  1  0.24737930  0.75070466  0.93990299  1
  Se  Se175  1  0.59327306  0.07221417  0.44257610  1
  Se  Se176  1  0.59128706  0.07550394  0.94702086  1
  Se  Se177  1  0.57401431  0.41538708  0.45888504  1
  Se  Se178  1  0.59244858  0.40972941  0.93329027  1
  Se  Se179  1  0.59003467  0.74356339  0.43672652  1
  Se  Se180  1  0.59136403  0.74188772  0.94071336  1
  Se  Se181  1  0.88960306  0.11427747  0.43951357  1
  Se  Se182  1  0.92396743  0.07443367  0.93928449  1
  Se  Se183  1  0.92073662  0.41466636  0.43486370  1
  Se  Se184  1  0.92458781  0.41077654  0.94479206  1
  Se  Se185  1  0.91856563  0.75228038  0.44959565  1
  Se  Se186  1  0.91188480  0.76146109  0.95287574  1
  Se  Se187  1  0.24805090  0.25142736  0.30421763  1
  Se  Se188  1  0.25211244  0.25201074  0.80378311  1
  Se  Se189  1  0.25132507  0.58120722  0.30774076  1
  Se  Se190  1  0.24985713  0.58717550  0.80151602  1
  Se  Se191  1  0.24959674  0.92038762  0.30466991  1
  Se  Se192  1  0.24746530  0.92094192  0.79915498  1
  Se  Se193  1  0.57274408  0.23934466  0.31141128  1
  Se  Se194  1  0.58207047  0.25011259  0.80079954  1
  Se  Se195  1  0.58326557  0.57263791  0.31246928  1
  Se  Se196  1  0.57384028  0.57698786  0.81051087  1
  Se  Se197  1  0.58937676  0.91427508  0.30224966  1
  Se  Se198  1  0.58243630  0.91591850  0.80288937  1
  Se  Se199  1  0.91885856  0.25168575  0.30035689  1
  Se  Se200  1  0.91427323  0.23940791  0.80613390  1
  Se  Se201  1  0.92110059  0.58767597  0.30040957  1
  Se  Se202  1  0.90997131  0.59053986  0.80358079  1
  Se  Se203  1  0.91492350  0.92051143  0.30583354  1
  Se  Se204  1  0.91117651  0.91725717  0.80992152  1
  Se  Se205  1  0.08001509  0.08207935  0.30317690  1
  Se  Se206  1  0.08753157  0.09085336  0.80698205  1
  Se  Se207  1  0.08186769  0.41366144  0.30500583  1
  Se  Se208  1  0.09038932  0.42503577  0.81530030  1
  Se  Se209  1  0.08235628  0.75101631  0.30635247  1
  Se  Se210  1  0.07816328  0.75136151  0.80089396  1
  Se  Se211  1  0.41312337  0.08183819  0.29623856  1
  Se  Se212  1  0.41440042  0.08440762  0.80339604  1
  Se  Se213  1  0.41592264  0.41326272  0.30683202  1
  Se  Se214  1  0.41012688  0.41476738  0.80220951  1
  Se  Se215  1  0.41771952  0.74734490  0.30273113  1
  Se  Se216  1  0.41069732  0.74806363  0.79858844  1
  Se  Se217  1  0.74940597  0.08441297  0.30446589  1
  Se  Se218  1  0.74708106  0.07800738  0.80196509  1
  Se  Se219  1  0.75872004  0.41903694  0.31050561  1
  Se  Se220  1  0.75309849  0.40992732  0.79451798  1
  Se  Se221  1  0.75510708  0.75178708  0.31089870  1
  Se  Se222  1  0.75329446  0.75735859  0.81138589  1
  Se  Se223  1  0.24726072  0.08391366  0.19661237  1
  Se  Se224  1  0.25198160  0.08022057  0.69435606  1
  Se  Se225  1  0.25371214  0.41299391  0.20264584  1
  Se  Se226  1  0.24284479  0.41016047  0.69394097  1
  Se  Se227  1  0.25135866  0.75065390  0.19997304  1
  Se  Se228  1  0.25029516  0.74912308  0.69719519  1
  Se  Se229  1  0.59082282  0.08558760  0.20497865  1
  Se  Se230  1  0.58441443  0.08204524  0.69624862  1
  Se  Se231  1  0.57603665  0.42422728  0.19280770  1
  Se  Se232  1  0.58048281  0.41674844  0.69785628  1
  Se  Se233  1  0.57651853  0.75706362  0.18657273  1
  Se  Se234  1  0.57358946  0.75974118  0.68545158  1
  Se  Se235  1  0.92130567  0.07890357  0.19935528  1
  Se  Se236  1  0.91052926  0.08935319  0.68432886  1
  Se  Se237  1  0.92008876  0.41199296  0.20030100  1
  Se  Se238  1  0.91049620  0.42696218  0.69231861  1
  Se  Se239  1  0.91356962  0.74573593  0.19703022  1
  Se  Se240  1  0.91536783  0.75256597  0.69873108  1
  Se  Se241  1  0.08111760  0.25240031  0.19930578  1
  Se  Se242  1  0.08360098  0.23860249  0.68698437  1
  Se  Se243  1  0.08578783  0.58235207  0.20051686  1
  Se  Se244  1  0.08132884  0.58246886  0.69712615  1
  Se  Se245  1  0.08260878  0.91513450  0.19769619  1
  Se  Se246  1  0.09179249  0.90971088  0.68315920  1
  Se  Se247  1  0.41121506  0.25218078  0.20003560  1
  Se  Se248  1  0.41099672  0.25089400  0.69888771  1
  Se  Se249  1  0.41091556  0.58821324  0.20136049  1
  Se  Se250  1  0.40902915  0.58164366  0.69589475  1
  Se  Se251  1  0.41439688  0.91815619  0.20176694  1
  Se  Se252  1  0.41328797  0.92135385  0.69717312  1
  Se  Se253  1  0.75809291  0.24379204  0.18799072  1
  Se  Se254  1  0.74695806  0.24999795  0.69869994  1
  Se  Se255  1  0.75739182  0.57570726  0.18809761  1
  Se  Se256  1  0.74919513  0.57938419  0.68824175  1
  Se  Se257  1  0.74948487  0.91800154  0.20189101  1
  Se  Se258  1  0.75213406  0.92318177  0.69270984  1
