# generated using pymatgen
data_In86Cu29Se144
_symmetry_space_group_name_H-M   'P 1'
_cell_length_a   17.58145841
_cell_length_b   17.58744870
_cell_length_c   23.44977179
_cell_angle_alpha   90.01032752
_cell_angle_beta   89.99094477
_cell_angle_gamma   90.00589926
_symmetry_Int_Tables_number   1
_chemical_formula_structural   In86Cu29Se144
_chemical_formula_sum   'In86 Cu29 Se144'
_cell_volume   7250.97398760
_cell_formula_units_Z   1
loop_
 _symmetry_equiv_pos_site_id
 _symmetry_equiv_pos_as_xyz
  1  'x, y, z'
loop_
 _atom_site_type_symbol
 _atom_site_label
 _atom_site_symmetry_multiplicity
 _atom_site_fract_x
 _atom_site_fract_y
 _atom_site_fract_z
 _atom_site_occupancy
  In  In0  1  0.00170993  0.15189565  0.13055859  1
  In  In1  1  0.00714604  0.15342040  0.62937548  1
  In  In2  1  0.02055220  0.48806424  0.13045362  1
  In  In3  1  0.00396615  0.50650221  0.61289297  1
  In  In4  1  0.02433494  0.82747360  0.12369033  1
  In  In5  1  0.02792711  0.83905393  0.63499715  1
  In  In6  1  0.33231947  0.16499851  0.12340041  1
  In  In7  1  0.32480996  0.15540421  0.61965034  1
  In  In8  1  0.32515560  0.50754695  0.13843297  1
  In  In9  1  0.33484870  0.50769695  0.61545053  1
  In  In10  1  0.33770443  0.84503830  0.13038124  1
  In  In11  1  0.31632273  0.83694910  0.63816039  1
  In  In12  1  0.66513138  0.17436569  0.12980195  1
  In  In13  1  0.65754059  0.17609363  0.63027076  1
  In  In14  1  0.64922595  0.49586020  0.12651798  1
  In  In15  1  0.65634992  0.50375381  0.61972705  1
  In  In16  1  0.65767640  0.84735874  0.12048777  1
  In  In17  1  0.66321608  0.83020893  0.63360170  1
  In  In18  1  0.17543194  -0.00123156  0.37258511  1
  In  In19  1  0.17421958  -0.00067269  0.87171501  1
  In  In20  1  0.17307315  0.32341724  0.38072526  1
  In  In21  1  0.16959475  0.33047487  0.87861901  1
  In  In22  1  0.20110040  0.65018670  0.40413274  1
  In  In23  1  0.18016862  0.66597292  0.87175572  1
  In  In24  1  0.49842070  0.00702036  0.37638447  1
  In  In25  1  0.49390292  -0.00000460  0.87181219  1
  In  In26  1  0.49718788  0.33030578  0.37365783  1
  In  In27  1  0.49535987  0.32211997  0.87411694  1
  In  In28  1  0.47798537  0.66796635  0.38367187  1
  In  In29  1  0.49441303  0.66755746  0.86980647  1
  In  In30  1  0.84212252  -0.01288383  0.37652231  1
  In  In31  1  0.83111196  0.00872296  0.86690183  1
  In  In32  1  0.83135631  0.34602664  0.37835850  1
  In  In33  1  0.82825652  0.34269840  0.87135472  1
  In  In34  1  0.82483083  0.65845853  0.38149636  1
  In  In35  1  0.82976075  0.67396537  0.86860360  1
  In  In36  1  0.01820348  0.16264949  0.37661391  1
  In  In37  1  0.01754448  0.15581783  0.87415503  1
  In  In38  1  -0.00270992  0.50325004  0.38557467  1
  In  In39  1  0.01563393  0.50985142  0.86836975  1
  In  In40  1  0.01422470  0.84763310  0.36692384  1
  In  In41  1  0.00739710  0.84720825  0.87134391  1
  In  In42  1  0.33325243  0.16676890  0.37476541  1
  In  In43  1  0.33883453  0.16636220  0.88014327  1
  In  In44  1  0.34012067  0.49630644  0.37994689  1
  In  In45  1  0.31901842  0.51226176  0.87333196  1
  In  In46  1  0.32472739  0.81528885  0.35965320  1
  In  In47  1  0.32755373  0.83830049  0.87139198  1
  In  In48  1  0.64710062  0.16794018  0.38012059  1
  In  In49  1  0.65390221  0.16062606  0.86575921  1
  In  In50  1  0.67494059  0.49383045  0.38614367  1
  In  In51  1  0.66144116  0.50096011  0.86137800  1
  In  In52  1  0.65986110  0.83236957  0.37756832  1
  In  In53  1  0.65326003  0.82455887  0.86276515  1
  In  In54  1  0.17006911  -0.00070850  0.12605160  1
  In  In55  1  0.17147874  0.00395370  0.63247842  1
  In  In56  1  0.18155132  0.34493478  0.12094257  1
  In  In57  1  0.16790613  0.33268386  0.61988258  1
  In  In58  1  0.22762608  0.70199681  0.08064313  1
  In  In59  1  0.17158786  0.66774852  0.62169294  1
  In  In60  1  0.47962559  -0.01778477  0.11044028  1
  In  In61  1  0.48460622  0.00559275  0.63061432  1
  In  In62  1  0.50565234  0.32733171  0.13011569  1
  In  In63  1  0.50377844  0.34250575  0.61704709  1
  In  In64  1  0.48249887  0.66927232  0.12943562  1
  In  In65  1  0.49990874  0.66163832  0.62812432  1
  In  In66  1  0.83549198  0.00921967  0.12635495  1
  In  In67  1  0.83808228  -0.00929855  0.63345804  1
  In  In68  1  0.82461126  0.32448427  0.13120128  1
  In  In69  1  0.81612084  0.33671653  0.62546635  1
  In  In70  1  0.83128314  0.66662254  0.11908813  1
  In  In71  1  0.82754896  0.65617481  0.62119296  1
  In  In72  1  0.01424904  0.66765361  0.25164569  1
  In  In73  1  0.49182277  0.50055016  -0.00329870  1
  In  In74  1  0.00500885  0.33037007  0.25708179  1
  In  In75  1  0.33490405  0.33377319  0.75077831  1
  In  In76  1  0.65594597  0.00609463  0.25653660  1
  In  In77  1  0.84003099  0.83834810  -0.01587985  1
  In  In78  1  0.65857050  0.66341787  0.25596304  1
  In  In79  1  0.48752136  0.82926634  0.50004502  1
  In  In80  1  -0.00106042  0.66958911  0.74256651  1
  In  In81  1  0.84442972  0.50278277  -0.00338513  1
  In  In82  1  0.83301543  0.16869314  0.00621670  1
  In  In83  1  0.83694710  0.16685115  0.50918120  1
  In  In84  1  0.00043814  0.32738026  0.75098062  1
  In  In85  1  0.83749659  0.82821439  0.50921424  1
  Cu  Cu86  1  -0.00120814  0.67951623  0.50256149  1
  Cu  Cu87  1  0.01737039  0.00078714  0.50128957  1
  Cu  Cu88  1  0.32905300  0.00330104  0.50237276  1
  Cu  Cu89  1  0.66189325  0.33373529  0.50301935  1
  Cu  Cu90  1  0.17134963  0.16267704  0.25015406  1
  Cu  Cu91  1  0.50278707  0.17050562  0.74741875  1
  Cu  Cu92  1  0.49861690  0.49104237  0.25533393  1
  Cu  Cu93  1  0.33560573  0.33085387  0.00138608  1
  Cu  Cu94  1  0.66188728  0.67530639  -0.00861569  1
  Cu  Cu95  1  0.82456671  0.49558547  0.74168298  1
  Cu  Cu96  1  0.82725317  0.16853573  0.74702849  1
  Cu  Cu97  1  0.49509841  0.83229993  0.74953793  1
  Cu  Cu98  1  0.82574865  0.49604658  0.25541847  1
  Cu  Cu99  1  0.01329229  0.33011772  -0.00061954  1
  Cu  Cu100  1  0.66551265  0.33053285  0.00255237  1
  Cu  Cu101  1  0.02086132  0.65940484  -0.00266402  1
  Cu  Cu102  1  0.00230014  0.33325551  0.49963224  1
  Cu  Cu103  1  0.49293759  0.16571728  0.24995847  1
  Cu  Cu104  1  0.49896628  0.50286701  0.74157264  1
  Cu  Cu105  1  0.82378724  0.82929665  0.74965795  1
  Cu  Cu106  1  0.17368984  0.83261210  0.24477064  1
  Cu  Cu107  1  0.82913687  0.16473668  0.25363408  1
  Cu  Cu108  1  0.00997514  -0.00350482  0.00278544  1
  Cu  Cu109  1  0.84053436  0.83565838  0.24935994  1
  Cu  Cu110  1  0.64946053  -0.00099059  -0.00746230  1
  Cu  Cu111  1  0.33074671  0.00166982  -0.00367919  1
  Cu  Cu112  1  0.17381813  0.50762909  0.25458420  1
  Cu  Cu113  1  0.33459729  0.33063026  0.49883966  1
  Cu  Cu114  1  0.66265749  -0.00010131  0.50706397  1
  Se  Se115  1  0.08664954  0.08515129  0.05650177  1
  Se  Se116  1  0.09398836  0.08680115  0.55621815  1
  Se  Se117  1  0.09237675  0.41922886  0.04999476  1
  Se  Se118  1  0.08779950  0.41733711  0.55076400  1
  Se  Se119  1  0.09493725  0.75489394  0.04524745  1
  Se  Se120  1  0.08658294  0.75649748  0.55587765  1
  Se  Se121  1  0.41464485  0.08619787  0.04984835  1
  Se  Se122  1  0.41907347  0.08458733  0.55084704  1
  Se  Se123  1  0.41289977  0.41210145  0.06411694  1
  Se  Se124  1  0.41533630  0.41837400  0.54960222  1
  Se  Se125  1  0.40119046  0.74521714  0.05936256  1
  Se  Se126  1  0.40303507  0.74922426  0.56867801  1
  Se  Se127  1  0.73408390  0.07264315  0.05589490  1
  Se  Se128  1  0.74604871  0.07560228  0.56611403  1
  Se  Se129  1  0.74755523  0.41527309  0.05763973  1
  Se  Se130  1  0.74628375  0.42032377  0.55239825  1
  Se  Se131  1  0.74784836  0.75241595  0.05041704  1
  Se  Se132  1  0.73464689  0.74234884  0.55679759  1
  Se  Se133  1  0.24957964  0.24909479  0.05371695  1
  Se  Se134  1  0.25107179  0.24838444  0.55327719  1
  Se  Se135  1  0.24484612  0.56061032  0.05585362  1
  Se  Se136  1  0.24018258  0.58028353  0.54958247  1
  Se  Se137  1  0.25263853  0.91942563  0.05561239  1
  Se  Se138  1  0.25023348  0.92096658  0.56030332  1
  Se  Se139  1  0.58388200  0.24743708  0.05545920  1
  Se  Se140  1  0.57996142  0.24571862  0.55240716  1
  Se  Se141  1  0.58579540  0.59425579  0.05609767  1
  Se  Se142  1  0.56263773  0.57411843  0.55257192  1
  Se  Se143  1  0.57335702  0.90726832  0.04322195  1
  Se  Se144  1  0.58128555  0.91647071  0.56253897  1
  Se  Se145  1  0.92821391  0.26078803  0.06292517  1
  Se  Se146  1  0.92585300  0.25927367  0.56781292  1
  Se  Se147  1  0.93550418  0.58827994  0.06031869  1
  Se  Se148  1  0.91556903  0.58899367  0.54844562  1
  Se  Se149  1  0.92222892  0.91813940  0.06033315  1
  Se  Se150  1  0.93242246  0.92241601  0.56012618  1
  Se  Se151  1  0.08502763  0.24724770  0.45060870  1
  Se  Se152  1  0.08963169  0.24172818  0.94558451  1
  Se  Se153  1  0.07867846  0.59188347  0.44891751  1
  Se  Se154  1  0.09972822  0.57693581  0.94171363  1
  Se  Se155  1  0.09301529  0.91585489  0.44424809  1
  Se  Se156  1  0.09043772  0.91790321  0.94487328  1
  Se  Se157  1  0.41739876  0.24721130  0.44459099  1
  Se  Se158  1  0.42191231  0.24817590  0.95119055  1
  Se  Se159  1  0.40494513  0.58582021  0.45487295  1
  Se  Se160  1  0.40258999  0.59620590  0.94449921  1
  Se  Se161  1  0.40522718  0.92241134  0.43901704  1
  Se  Se162  1  0.41348874  0.91792733  0.94249506  1
  Se  Se163  1  0.74654189  0.25153314  0.44478717  1
  Se  Se164  1  0.74534833  0.25332067  0.93960901  1
  Se  Se165  1  0.74987209  0.58322428  0.45444299  1
  Se  Se166  1  0.74365999  0.58783897  0.93943687  1
  Se  Se167  1  0.74319016  0.92131806  0.44831181  1
  Se  Se168  1  0.73775370  0.92498451  0.93335280  1
  Se  Se169  1  0.24859124  0.08601659  0.44446756  1
  Se  Se170  1  0.24774489  0.08646589  0.94439369  1
  Se  Se171  1  0.24990979  0.41374616  0.44611533  1
  Se  Se172  1  0.25866224  0.41247812  0.94171441  1
  Se  Se173  1  0.25827176  0.76892837  0.45058121  1
  Se  Se174  1  0.24452381  0.75805699  0.94259684  1
  Se  Se175  1  0.57887328  0.08014414  0.45245939  1
  Se  Se176  1  0.57375086  0.08970328  0.94152173  1
  Se  Se177  1  0.57967180  0.41192175  0.44504289  1
  Se  Se178  1  0.59161321  0.41359611  0.94037635  1
  Se  Se179  1  0.58669633  0.74045664  0.44481051  1
  Se  Se180  1  0.57498003  0.75299006  0.93993828  1
  Se  Se181  1  0.92502156  0.07559415  0.44655572  1
  Se  Se182  1  0.92061272  0.07561644  0.94656582  1
  Se  Se183  1  0.91485428  0.41668080  0.45147151  1
  Se  Se184  1  0.93375633  0.40888863  0.93730278  1
  Se  Se185  1  0.92346012  0.75291139  0.43398648  1
  Se  Se186  1  0.93349670  0.73549872  0.93734041  1
  Se  Se187  1  0.24925752  0.24920420  0.30428325  1
  Se  Se188  1  0.24465269  0.24092441  0.80741523  1
  Se  Se189  1  0.25528271  0.58608194  0.31366148  1
  Se  Se190  1  0.25086419  0.58677263  0.79488291  1
  Se  Se191  1  0.25464325  0.91793208  0.29954019  1
  Se  Se192  1  0.26771462  0.93585593  0.79988822  1
  Se  Se193  1  0.58049735  0.24666130  0.30206760  1
  Se  Se194  1  0.58365585  0.25818759  0.79954392  1
  Se  Se195  1  0.57566202  0.57322217  0.31842818  1
  Se  Se196  1  0.57883358  0.58787969  0.79924826  1
  Se  Se197  1  0.56986071  0.90493440  0.30738117  1
  Se  Se198  1  0.57858932  0.92005834  0.80040013  1
  Se  Se199  1  0.91059596  0.24207546  0.31726607  1
  Se  Se200  1  0.90947465  0.23887429  0.81395217  1
  Se  Se201  1  0.91138053  0.57941444  0.30702387  1
  Se  Se202  1  0.90718424  0.57366825  0.80330904  1
  Se  Se203  1  0.92339691  0.92225687  0.29872336  1
  Se  Se204  1  0.90549927  0.90946398  0.80661023  1
  Se  Se205  1  0.08638258  0.07917360  0.30244841  1
  Se  Se206  1  0.07091986  0.06059523  0.80204998  1
  Se  Se207  1  0.08925147  0.42828989  0.31372653  1
  Se  Se208  1  0.09653405  0.42035608  0.80241604  1
  Se  Se209  1  0.10445959  0.75206199  0.31330765  1
  Se  Se210  1  0.08693209  0.75466801  0.80625406  1
  Se  Se211  1  0.41442929  0.08159492  0.30455083  1
  Se  Se212  1  0.41891954  0.09279659  0.80434594  1
  Se  Se213  1  0.41060801  0.41005230  0.30514022  1
  Se  Se214  1  0.42434830  0.42769751  0.81153712  1
  Se  Se215  1  0.42553855  0.74457371  0.29981574  1
  Se  Se216  1  0.41064422  0.75104097  0.80349105  1
  Se  Se217  1  0.75424884  0.08673964  0.31974455  1
  Se  Se218  1  0.74282747  0.08344615  0.79858158  1
  Se  Se219  1  0.74236238  0.41312838  0.30602385  1
  Se  Se220  1  0.74477254  0.41221763  0.79778208  1
  Se  Se221  1  0.75877115  0.75789532  0.30872494  1
  Se  Se222  1  0.74110410  0.74081345  0.79726116  1
  Se  Se223  1  0.25369560  0.08099631  0.19502766  1
  Se  Se224  1  0.26245730  0.07977425  0.70068866  1
  Se  Se225  1  0.24996037  0.41310687  0.20445371  1
  Se  Se226  1  0.24841762  0.42154154  0.68826295  1
  Se  Se227  1  0.24843020  0.74766392  0.18561345  1
  Se  Se228  1  0.23317980  0.74819078  0.70123491  1
  Se  Se229  1  0.57098523  0.08443675  0.18647114  1
  Se  Se230  1  0.58123259  0.08194554  0.69420069  1
  Se  Se231  1  0.58550449  0.41144371  0.20152467  1
  Se  Se232  1  0.58297627  0.41591137  0.69317104  1
  Se  Se233  1  0.58163102  0.75677031  0.18954146  1
  Se  Se234  1  0.57877882  0.74667238  0.69860186  1
  Se  Se235  1  0.91371973  0.08184947  0.20267799  1
  Se  Se236  1  0.91326536  0.08529029  0.69733030  1
  Se  Se237  1  0.91177341  0.42083893  0.19439816  1
  Se  Se238  1  0.91558086  0.42119585  0.68686959  1
  Se  Se239  1  0.91520918  0.75199157  0.18882443  1
  Se  Se240  1  0.90776331  0.76027497  0.68295985  1
  Se  Se241  1  0.09056728  0.24643149  0.19041955  1
  Se  Se242  1  0.09600816  0.24056790  0.69514939  1
  Se  Se243  1  0.10257345  0.58426415  0.18805530  1
  Se  Se244  1  0.08723764  0.57246124  0.69097328  1
  Se  Se245  1  0.08473383  0.91695386  0.19719212  1
  Se  Se246  1  0.07346840  0.94163010  0.70488830  1
  Se  Se247  1  0.41314988  0.24993421  0.19386511  1
  Se  Se248  1  0.42201568  0.24844714  0.68549087  1
  Se  Se249  1  0.41965017  0.58043018  0.20409732  1
  Se  Se250  1  0.40834818  0.58297120  0.69465822  1
  Se  Se251  1  0.42284924  0.92305219  0.19967461  1
  Se  Se252  1  0.41102442  0.91719083  0.69972379  1
  Se  Se253  1  0.74526660  0.24978785  0.20474809  1
  Se  Se254  1  0.74422403  0.25501095  0.69901421  1
  Se  Se255  1  0.75253727  0.57702158  0.19061644  1
  Se  Se256  1  0.74235346  0.58261930  0.69212633  1
  Se  Se257  1  0.75276372  0.91541840  0.19457621  1
  Se  Se258  1  0.74380060  0.91837683  0.69886232  1
