# generated using pymatgen
data_In86Cu29Se144
_symmetry_space_group_name_H-M   'P 1'
_cell_length_a   17.58394454
_cell_length_b   17.59048433
_cell_length_c   23.42952246
_cell_angle_alpha   90.02287344
_cell_angle_beta   89.98581946
_cell_angle_gamma   89.99120082
_symmetry_Int_Tables_number   1
_chemical_formula_structural   In86Cu29Se144
_chemical_formula_sum   'In86 Cu29 Se144'
_cell_volume   7246.98707065
_cell_formula_units_Z   1
loop_
 _symmetry_equiv_pos_site_id
 _symmetry_equiv_pos_as_xyz
  1  'x, y, z'
loop_
 _atom_site_type_symbol
 _atom_site_label
 _atom_site_symmetry_multiplicity
 _atom_site_fract_x
 _atom_site_fract_y
 _atom_site_fract_z
 _atom_site_occupancy
  In  In0  1  0.02525691  0.16765913  0.11756895  1
  In  In1  1  -0.01234913  0.17151448  0.63276706  1
  In  In2  1  0.00257354  0.48430636  0.12565913  1
  In  In3  1  -0.02326980  0.52636833  0.66265413  1
  In  In4  1  0.00365534  0.84082993  0.12106095  1
  In  In5  1  0.00385754  0.83144569  0.62550293  1
  In  In6  1  0.31985178  0.17963112  0.13726084  1
  In  In7  1  0.35608234  0.15874059  0.64347768  1
  In  In8  1  0.32810425  0.50532144  0.12546952  1
  In  In9  1  0.35108983  0.48086216  0.65236742  1
  In  In10  1  0.34118039  0.81578717  0.13107222  1
  In  In11  1  0.33505001  0.83200504  0.62183879  1
  In  In12  1  0.66622002  0.16743351  0.12236141  1
  In  In13  1  0.63538507  0.18554637  0.63955507  1
  In  In14  1  0.67468907  0.50255544  0.12216140  1
  In  In15  1  0.66367700  0.49689085  0.63092436  1
  In  In16  1  0.66217792  0.84624993  0.12343799  1
  In  In17  1  0.66570152  0.83054716  0.62581870  1
  In  In18  1  0.17230534  -0.01220556  0.37921066  1
  In  In19  1  0.17999436  0.01353853  0.86843936  1
  In  In20  1  0.16206341  0.33599519  0.37181172  1
  In  In21  1  0.16685766  0.33354441  0.87517463  1
  In  In22  1  0.18014000  0.66974089  0.37705601  1
  In  In23  1  0.16288682  0.65159502  0.85639433  1
  In  In24  1  0.48931294  0.00310584  0.38465079  1
  In  In25  1  0.48514529  -0.00882884  0.85749956  1
  In  In26  1  0.48550383  0.34680738  0.39479344  1
  In  In27  1  0.47516288  0.31743041  0.83533595  1
  In  In28  1  0.49251443  0.66943584  0.38690015  1
  In  In29  1  0.49963519  0.66466398  0.86361866  1
  In  In30  1  0.82763295  0.00293927  0.38454516  1
  In  In31  1  0.83109307  -0.00068416  0.86268339  1
  In  In32  1  0.83961730  0.33386146  0.38157321  1
  In  In33  1  0.83772116  0.34542064  0.85719636  1
  In  In34  1  0.82751290  0.66756612  0.39475863  1
  In  In35  1  0.82644844  0.64633162  0.85230144  1
  In  In36  1  -0.00565668  0.18253670  0.37850327  1
  In  In37  1  0.02205937  0.18186964  0.86428254  1
  In  In38  1  0.00328988  0.48977681  0.38090186  1
  In  In39  1  0.01793866  0.50715945  0.85405331  1
  In  In40  1  0.00494360  0.82627813  0.39029379  1
  In  In41  1  -0.00302184  0.82436845  0.86468483  1
  In  In42  1  0.33568818  0.17051521  0.37312577  1
  In  In43  1  0.33533227  0.16224115  0.86934469  1
  In  In44  1  0.33052809  0.50013344  0.37665893  1
  In  In45  1  0.30279322  0.47101566  0.82277552  1
  In  In46  1  0.33550629  0.83187877  0.38165261  1
  In  In47  1  0.33562064  0.84163260  0.87323936  1
  In  In48  1  0.66505210  0.16057758  0.38334358  1
  In  In49  1  0.64982743  0.16582389  0.84531406  1
  In  In50  1  0.65842432  0.50107967  0.39744724  1
  In  In51  1  0.64651823  0.48825663  0.83809812  1
  In  In52  1  0.66460178  0.83651487  0.39368073  1
  In  In53  1  0.64833410  0.81839230  0.86326342  1
  In  In54  1  0.17019026  0.00843144  0.12493288  1
  In  In55  1  0.17926247  -0.00715968  0.63184433  1
  In  In56  1  0.17068766  0.33098416  0.12198208  1
  In  In57  1  0.16328399  0.34877868  0.64097860  1
  In  In58  1  0.18437517  0.67282928  0.11927737  1
  In  In59  1  0.16254244  0.66264714  0.63497559  1
  In  In60  1  0.49689757  -0.01339929  0.11806982  1
  In  In61  1  0.50422289  -0.00088534  0.62651311  1
  In  In62  1  0.49466049  0.31848479  0.12070807  1
  In  In63  1  0.49800088  0.33404363  0.62498064  1
  In  In64  1  0.48255351  0.66036536  0.11897702  1
  In  In65  1  0.49669008  0.66284321  0.63057008  1
  In  In66  1  0.83506356  -0.00024220  0.12374228  1
  In  In67  1  0.83650768  -0.00741563  0.62737902  1
  In  In68  1  0.83929132  0.35268416  0.12056828  1
  In  In69  1  0.81009931  0.37266916  0.65883787  1
  In  In70  1  0.83829235  0.67126749  0.12245167  1
  In  In71  1  0.82592623  0.66427903  0.62900615  1
  In  In72  1  0.01124615  0.65919808  0.26278799  1
  In  In73  1  0.49081302  0.49652226  -0.01780018  1
  In  In74  1  0.65681987  0.33520799  0.25651638  1
  In  In75  1  0.83247029  0.50276596  -0.02404999  1
  In  In76  1  0.82931380  0.82167514  -0.01571664  1
  In  In77  1  0.17007261  0.50913635  0.50886447  1
  In  In78  1  0.65803568  0.67131215  0.26591660  1
  In  In79  1  0.83304389  0.17205506  -0.01440856  1
  In  In80  1  0.17067990  0.83503074  0.00105719  1
  In  In81  1  0.00943589  0.00641885  0.24628039  1
  In  In82  1  0.49221621  0.16578885  -0.01758923  1
  In  In83  1  0.17296432  0.17177682  0.51392082  1
  In  In84  1  0.82442975  0.16660419  0.51007434  1
  In  In85  1  0.66258475  0.00232255  0.26202927  1
  Cu  Cu86  1  0.84711507  0.83475195  0.25903658  1
  Cu  Cu87  1  0.00421324  -0.00064115  -0.01061001  1
  Cu  Cu88  1  0.33780596  0.66058575  0.50828528  1
  Cu  Cu89  1  0.65762944  -0.00495425  -0.00663931  1
  Cu  Cu90  1  0.33365836  0.33187909  0.51234012  1
  Cu  Cu91  1  0.33842820  0.00357444  -0.00419350  1
  Cu  Cu92  1  0.16449132  0.83722310  0.75075149  1
  Cu  Cu93  1  0.83382209  0.15376893  0.74548458  1
  Cu  Cu94  1  -0.00542874  0.34535030  0.50855049  1
  Cu  Cu95  1  0.49377616  0.82245770  0.25225921  1
  Cu  Cu96  1  0.66635056  0.66091039  0.51343886  1
  Cu  Cu97  1  0.00621037  0.64911489  -0.00965758  1
  Cu  Cu98  1  0.33316778  0.66808404  -0.00547394  1
  Cu  Cu99  1  0.65365891  0.66760496  -0.01156010  1
  Cu  Cu100  1  0.49392549  0.16475750  0.25386980  1
  Cu  Cu101  1  0.66592673  -0.00142391  0.50877882  1
  Cu  Cu102  1  0.16695543  0.16962615  0.24988971  1
  Cu  Cu103  1  0.66305270  0.33453550  -0.02130648  1
  Cu  Cu104  1  0.83081318  0.49842405  0.25317997  1
  Cu  Cu105  1  -0.00251706  0.66543567  0.51441947  1
  Cu  Cu106  1  0.01095451  0.32862770  -0.00140775  1
  Cu  Cu107  1  0.49984714  0.83707251  0.74225837  1
  Cu  Cu108  1  0.83721505  0.83350826  0.74346288  1
  Cu  Cu109  1  0.84273717  0.18542278  0.24952588  1
  Cu  Cu110  1  0.00358219  -0.00286658  0.50781033  1
  Cu  Cu111  1  0.33791613  -0.00154988  0.50696650  1
  Cu  Cu112  1  0.16596153  0.49407482  0.24781946  1
  Cu  Cu113  1  0.17054177  0.16189338  0.74838050  1
  Cu  Cu114  1  0.48889656  0.49185550  0.25362680  1
  Se  Se115  1  0.08958342  0.07571699  0.04657401  1
  Se  Se116  1  0.07910826  0.07985274  0.56741184  1
  Se  Se117  1  0.08850879  0.41755020  0.05232177  1
  Se  Se118  1  0.07830024  0.42205050  0.56685642  1
  Se  Se119  1  0.07174587  0.73917212  0.05336735  1
  Se  Se120  1  0.09024277  0.74509728  0.55946503  1
  Se  Se121  1  0.41412085  0.08591242  0.05939367  1
  Se  Se122  1  0.41875470  0.08576118  0.55888281  1
  Se  Se123  1  0.41537707  0.41309482  0.05797758  1
  Se  Se124  1  0.41159124  0.42446657  0.56103875  1
  Se  Se125  1  0.41555678  0.75155753  0.04768990  1
  Se  Se126  1  0.42203426  0.74816409  0.55648880  1
  Se  Se127  1  0.74305237  0.07479872  0.05026696  1
  Se  Se128  1  0.73556804  0.08172843  0.57269106  1
  Se  Se129  1  0.74171262  0.41174333  0.04357833  1
  Se  Se130  1  0.75382057  0.41772821  0.56434759  1
  Se  Se131  1  0.73874679  0.74004145  0.05337723  1
  Se  Se132  1  0.75246185  0.75072728  0.55618043  1
  Se  Se133  1  0.25319762  0.24580463  0.05507063  1
  Se  Se134  1  0.25666773  0.25927306  0.57762486  1
  Se  Se135  1  0.25177169  0.58276786  0.04856767  1
  Se  Se136  1  0.26628985  0.58135740  0.57384973  1
  Se  Se137  1  0.26333566  0.92240529  0.06023101  1
  Se  Se138  1  0.24865098  0.91561705  0.55313932  1
  Se  Se139  1  0.59263523  0.25324747  0.04612783  1
  Se  Se140  1  0.57299038  0.24860300  0.55315607  1
  Se  Se141  1  0.58526169  0.58240767  0.05411917  1
  Se  Se142  1  0.57840896  0.57815395  0.56166585  1
  Se  Se143  1  0.57882636  0.90909224  0.04597863  1
  Se  Se144  1  0.58064635  0.91189178  0.55604732  1
  Se  Se145  1  0.91969881  0.25504850  0.05712656  1
  Se  Se146  1  0.91415131  0.26088607  0.56296649  1
  Se  Se147  1  0.91766482  0.58032658  0.05367917  1
  Se  Se148  1  0.92033671  0.57816004  0.56796688  1
  Se  Se149  1  0.91855674  0.92098439  0.04640664  1
  Se  Se150  1  0.91715873  0.91274433  0.55561758  1
  Se  Se151  1  0.07826240  0.26208677  0.45298461  1
  Se  Se152  1  0.09439405  0.24383025  0.94864111  1
  Se  Se153  1  0.07595272  0.59427962  0.44366750  1
  Se  Se154  1  0.09312088  0.57260603  0.93585597  1
  Se  Se155  1  0.08733248  0.91693577  0.45236022  1
  Se  Se156  1  0.08297828  0.91560728  0.93243875  1
  Se  Se157  1  0.40698677  0.24642059  0.45215349  1
  Se  Se158  1  0.41008990  0.26934644  0.93191940  1
  Se  Se159  1  0.41364389  0.57491311  0.44945944  1
  Se  Se160  1  0.40234974  0.58871892  0.92809305  1
  Se  Se161  1  0.41942590  0.91121521  0.45363243  1
  Se  Se162  1  0.42148026  0.92114981  0.94297606  1
  Se  Se163  1  0.74084952  0.25903289  0.44581149  1
  Se  Se164  1  0.74129405  0.25202765  0.92053087  1
  Se  Se165  1  0.75211347  0.57766421  0.46064423  1
  Se  Se166  1  0.72700891  0.58429615  0.92614877  1
  Se  Se167  1  0.75482304  0.91935606  0.45611983  1
  Se  Se168  1  0.73919324  0.91781469  0.93232306  1
  Se  Se169  1  0.25453918  0.08038395  0.44829434  1
  Se  Se170  1  0.25534151  0.08793372  0.94573021  1
  Se  Se171  1  0.24947290  0.40605575  0.44918240  1
  Se  Se172  1  0.25687133  0.43266288  0.92297770  1
  Se  Se173  1  0.25593340  0.74445448  0.45255427  1
  Se  Se174  1  0.24784158  0.74449270  0.93395348  1
  Se  Se175  1  0.58380711  0.07813982  0.45030151  1
  Se  Se176  1  0.58877368  0.07819530  0.92842068  1
  Se  Se177  1  0.58667005  0.40509177  0.45926656  1
  Se  Se178  1  0.57924574  0.40769192  0.91981445  1
  Se  Se179  1  0.58610390  0.74217800  0.45372538  1
  Se  Se180  1  0.56816423  0.75117766  0.94142996  1
  Se  Se181  1  0.92690283  0.08225421  0.44815203  1
  Se  Se182  1  0.92542739  0.08051262  0.93076554  1
  Se  Se183  1  0.91144920  0.42412346  0.45188511  1
  Se  Se184  1  0.93131820  0.40609183  0.93506720  1
  Se  Se185  1  0.91658006  0.75066208  0.45771740  1
  Se  Se186  1  0.91984840  0.72457006  0.93183567  1
  Se  Se187  1  0.24748501  0.25187248  0.30752241  1
  Se  Se188  1  0.24751636  0.24602544  0.80604839  1
  Se  Se189  1  0.24428862  0.57625921  0.30638067  1
  Se  Se190  1  0.28116130  0.61461542  0.79539802  1
  Se  Se191  1  0.26162534  0.91991820  0.31065265  1
  Se  Se192  1  0.25217756  0.91996855  0.80205539  1
  Se  Se193  1  0.57343163  0.24184662  0.31613318  1
  Se  Se194  1  0.60385597  0.28189086  0.78679486  1
  Se  Se195  1  0.57206194  0.56792526  0.31513728  1
  Se  Se196  1  0.60214082  0.61309463  0.79226526  1
  Se  Se197  1  0.57469182  0.90259641  0.31400031  1
  Se  Se198  1  0.58566903  0.91890703  0.79678953  1
  Se  Se199  1  0.92377548  0.26583944  0.30446134  1
  Se  Se200  1  0.90973459  0.23671169  0.80470156  1
  Se  Se201  1  0.90461582  0.58051774  0.31704594  1
  Se  Se202  1  0.92155304  0.57473066  0.78768144  1
  Se  Se203  1  0.92123551  0.92237564  0.31575810  1
  Se  Se204  1  0.91947419  0.91526089  0.79982639  1
  Se  Se205  1  0.08867679  0.09515562  0.31744297  1
  Se  Se206  1  0.08293583  0.07799898  0.79961573  1
  Se  Se207  1  0.07872837  0.41753633  0.30296846  1
  Se  Se208  1  0.06018104  0.38235438  0.80586903  1
  Se  Se209  1  0.09456603  0.76369420  0.31179766  1
  Se  Se210  1  0.08040371  0.74523117  0.79579395  1
  Se  Se211  1  0.41466275  0.07854746  0.30742761  1
  Se  Se212  1  0.44092000  0.11009137  0.80155494  1
  Se  Se213  1  0.41125596  0.40885627  0.31080193  1
  Se  Se214  1  0.44769911  0.45366432  0.80225115  1
  Se  Se215  1  0.41409758  0.74248289  0.31079467  1
  Se  Se216  1  0.41886978  0.76158021  0.80340808  1
  Se  Se217  1  0.76499140  0.09926902  0.30713916  1
  Se  Se218  1  0.74262242  0.07402329  0.79349206  1
  Se  Se219  1  0.74746988  0.42558032  0.31611030  1
  Se  Se220  1  0.76330185  0.42881690  0.78598071  1
  Se  Se221  1  0.75967642  0.76154666  0.31710222  1
  Se  Se222  1  0.75438666  0.75507705  0.80130062  1
  Se  Se223  1  0.24990603  0.08046754  0.20129499  1
  Se  Se224  1  0.25858714  0.07766941  0.70121033  1
  Se  Se225  1  0.25077359  0.41544908  0.19247634  1
  Se  Se226  1  0.24685055  0.41885214  0.71512665  1
  Se  Se227  1  0.24753374  0.74778618  0.19858303  1
  Se  Se228  1  0.24656282  0.75834698  0.69307626  1
  Se  Se229  1  0.57690866  0.08748555  0.19205706  1
  Se  Se230  1  0.57127320  0.08474925  0.70328556  1
  Se  Se231  1  0.57562668  0.42447545  0.18719802  1
  Se  Se232  1  0.58860714  0.40277444  0.69855582  1
  Se  Se233  1  0.57970991  0.75129105  0.18869560  1
  Se  Se234  1  0.58419935  0.74798447  0.69590285  1
  Se  Se235  1  0.91371127  0.09782498  0.18710034  1
  Se  Se236  1  0.92289785  0.07045863  0.69733071  1
  Se  Se237  1  0.91562303  0.41727296  0.20074036  1
  Se  Se238  1  0.94773568  0.38851581  0.69607231  1
  Se  Se239  1  0.92120605  0.75511899  0.19549954  1
  Se  Se240  1  0.91907710  0.74715661  0.69255309  1
  Se  Se241  1  0.08487096  0.25214413  0.19505804  1
  Se  Se242  1  0.08801606  0.24296163  0.69432281  1
  Se  Se243  1  0.08921823  0.57918799  0.18723879  1
  Se  Se244  1  0.10096630  0.57193902  0.70899282  1
  Se  Se245  1  0.09672850  0.90711860  0.19255533  1
  Se  Se246  1  0.08207238  0.91891459  0.69526631  1
  Se  Se247  1  0.41702606  0.25446632  0.20072951  1
  Se  Se248  1  0.39870096  0.27850936  0.69821276  1
  Se  Se249  1  0.41554979  0.58136918  0.19698115  1
  Se  Se250  1  0.39375427  0.60683485  0.70103461  1
  Se  Se251  1  0.42098799  0.91091495  0.19357567  1
  Se  Se252  1  0.41247330  0.91956116  0.69220495  1
  Se  Se253  1  0.75350545  0.25428987  0.18867619  1
  Se  Se254  1  0.76033709  0.23686966  0.68540209  1
  Se  Se255  1  0.75472736  0.58707883  0.19732261  1
  Se  Se256  1  0.74787572  0.58096943  0.69888081  1
  Se  Se257  1  0.75966389  0.91193797  0.19958028  1
  Se  Se258  1  0.74769416  0.91468714  0.69508759  1
