# generated using pymatgen
data_In86Cu29Se144
_symmetry_space_group_name_H-M   'P 1'
_cell_length_a   17.59412601
_cell_length_b   17.59584559
_cell_length_c   23.45517503
_cell_angle_alpha   90.00495935
_cell_angle_beta   89.99686857
_cell_angle_gamma   90.00566949
_symmetry_Int_Tables_number   1
_chemical_formula_structural   In86Cu29Se144
_chemical_formula_sum   'In86 Cu29 Se144'
_cell_volume   7261.33568519
_cell_formula_units_Z   1
loop_
 _symmetry_equiv_pos_site_id
 _symmetry_equiv_pos_as_xyz
  1  'x, y, z'
loop_
 _atom_site_type_symbol
 _atom_site_label
 _atom_site_symmetry_multiplicity
 _atom_site_fract_x
 _atom_site_fract_y
 _atom_site_fract_z
 _atom_site_occupancy
  In  In0  1  -0.00507472  0.16525153  0.12287668  1
  In  In1  1  -0.01351853  0.17926339  0.64374692  1
  In  In2  1  -0.00191375  0.49742792  0.12034097  1
  In  In3  1  0.01266256  0.49070401  0.63437086  1
  In  In4  1  -0.00335142  0.83186189  0.11892184  1
  In  In5  1  -0.00307612  0.83608882  0.63587280  1
  In  In6  1  0.33918175  0.17507195  0.11281379  1
  In  In7  1  0.34126283  0.17250613  0.63018377  1
  In  In8  1  0.33149640  0.49983373  0.11535873  1
  In  In9  1  0.32782343  0.50419593  0.63080506  1
  In  In10  1  0.33357750  0.84294118  0.12133669  1
  In  In11  1  0.32055202  0.82036842  0.62634286  1
  In  In12  1  0.67181086  0.16954034  0.11761268  1
  In  In13  1  0.68054945  0.16087096  0.64532538  1
  In  In14  1  0.67110395  0.50169237  0.11434559  1
  In  In15  1  0.66436493  0.49867942  0.63998930  1
  In  In16  1  0.67049173  0.81702237  0.12505047  1
  In  In17  1  0.67210741  0.82833124  0.63476214  1
  In  In18  1  0.15734611  0.01185521  0.37152012  1
  In  In19  1  0.15237423  0.01401981  0.88301203  1
  In  In20  1  0.16224754  0.34490812  0.37804730  1
  In  In21  1  0.16395899  0.33547801  0.87365935  1
  In  In22  1  0.15927200  0.66438343  0.37551596  1
  In  In23  1  0.16552371  0.66519819  0.88003252  1
  In  In24  1  0.49988538  0.00647995  0.37094775  1
  In  In25  1  0.51760913  0.00447255  0.87433572  1
  In  In26  1  0.49987020  0.33719644  0.37189236  1
  In  In27  1  0.50080680  0.33375953  0.87899030  1
  In  In28  1  0.50424106  0.65899300  0.36446481  1
  In  In29  1  0.48979304  0.65805022  0.87100054  1
  In  In30  1  0.84225553  0.00146703  0.37258994  1
  In  In31  1  0.83276044  0.00367041  0.87538164  1
  In  In32  1  0.83373988  0.32268659  0.37665715  1
  In  In33  1  0.83772802  0.33130557  0.87175979  1
  In  In34  1  0.83474005  0.66801937  0.36249394  1
  In  In35  1  0.83308389  0.66728323  0.87763643  1
  In  In36  1  -0.01497644  0.15855344  0.35877944  1
  In  In37  1  -0.00659171  0.17447573  0.86981089  1
  In  In38  1  0.00339352  0.50449883  0.36663089  1
  In  In39  1  -0.00074024  0.50085212  0.87658838  1
  In  In40  1  0.00107306  0.83044452  0.36540913  1
  In  In41  1  -0.00144632  0.83236520  0.88074501  1
  In  In42  1  0.33621993  0.17033926  0.37250561  1
  In  In43  1  0.32208253  0.17903303  0.88069084  1
  In  In44  1  0.32914349  0.49312250  0.37929808  1
  In  In45  1  0.33149864  0.49885320  0.87704046  1
  In  In46  1  0.31986760  0.82722858  0.37516206  1
  In  In47  1  0.33192187  0.82019399  0.87391059  1
  In  In48  1  0.67328080  0.18018383  0.37560059  1
  In  In49  1  0.67367610  0.16411246  0.87529040  1
  In  In50  1  0.65755674  0.50720074  0.37103583  1
  In  In51  1  0.66576976  0.49896665  0.87802169  1
  In  In52  1  0.67839946  0.83436060  0.36940643  1
  In  In53  1  0.67764934  0.84602442  0.87040660  1
  In  In54  1  0.15483483  -0.01013434  0.11286346  1
  In  In55  1  0.16051861  -0.01235786  0.62881284  1
  In  In56  1  0.15687072  0.32257194  0.11301455  1
  In  In57  1  0.16570759  0.34360723  0.63036491  1
  In  In58  1  0.15275197  0.65359585  0.11431872  1
  In  In59  1  0.18209495  0.64822532  0.63967895  1
  In  In60  1  0.49492830  0.00367901  0.12226566  1
  In  In61  1  0.50228740  0.01281124  0.63245865  1
  In  In62  1  0.50298836  0.33514728  0.11611799  1
  In  In63  1  0.50066186  0.33767390  0.63747655  1
  In  In64  1  0.51547946  0.66208066  0.12970763  1
  In  In65  1  0.49949939  0.66105802  0.63261328  1
  In  In66  1  0.85566362  0.01930008  0.11118426  1
  In  In67  1  0.82745688  0.01222466  0.64032455  1
  In  In68  1  0.83561219  0.33417783  0.11835604  1
  In  In69  1  0.84414951  0.32363048  0.64219678  1
  In  In70  1  0.83375619  0.66428973  0.11725533  1
  In  In71  1  0.83422626  0.66676152  0.63806569  1
  In  In72  1  0.50240494  0.17953791  0.49531311  1
  In  In73  1  0.33383443  0.67113744  0.24505507  1
  In  In74  1  0.84015911  0.83294928  0.49444314  1
  In  In75  1  0.32834287  0.00426400  0.23753820  1
  In  In76  1  0.67062517  -0.00279143  0.23955994  1
  In  In77  1  0.33332830  0.33487606  0.25191696  1
  In  In78  1  0.16126368  0.82556381  0.49703619  1
  In  In79  1  0.49753275  0.49756421  0.49841729  1
  In  In80  1  0.83652922  0.49496784  0.50499791  1
  In  In81  1  0.67208766  0.33744600  0.24249342  1
  In  In82  1  0.50317096  0.82997407  0.51038784  1
  In  In83  1  0.16099359  0.17404929  0.51047851  1
  In  In84  1  0.33329066  -0.00342765  0.74766422  1
  In  In85  1  0.49997064  0.83145508  0.00035331  1
  Cu  Cu86  1  0.66885269  0.33156293  -0.00612548  1
  Cu  Cu87  1  0.16490066  0.17315645  0.75570535  1
  Cu  Cu88  1  0.16046635  0.83300433  0.24374369  1
  Cu  Cu89  1  0.66692078  0.66716821  0.49831083  1
  Cu  Cu90  1  -0.00908881  0.00724282  0.50038898  1
  Cu  Cu91  1  0.00028166  0.32723402  0.50738061  1
  Cu  Cu92  1  0.49981775  0.49662765  0.75742753  1
  Cu  Cu93  1  0.33701983  -0.00134721  0.49530402  1
  Cu  Cu94  1  0.50197047  0.82594595  0.75300094  1
  Cu  Cu95  1  0.16553125  0.50123329  0.75782606  1
  Cu  Cu96  1  0.15620758  0.16536952  0.24193780  1
  Cu  Cu97  1  0.67526669  0.01290427  0.51232435  1
  Cu  Cu98  1  0.83345831  0.50329151  0.24022207  1
  Cu  Cu99  1  0.00855947  0.65699631  0.50312899  1
  Cu  Cu100  1  0.83206442  0.50497614  0.75865114  1
  Cu  Cu101  1  0.83450858  0.82874781  0.24230988  1
  Cu  Cu102  1  0.32961395  0.66346886  -0.00355806  1
  Cu  Cu103  1  0.67433314  0.32642931  0.50904107  1
  Cu  Cu104  1  0.83702957  0.83237609  0.75826214  1
  Cu  Cu105  1  0.16260058  0.83065613  0.75721930  1
  Cu  Cu106  1  0.33404154  0.00328685  -0.00172916  1
  Cu  Cu107  1  0.66508189  0.66576477  -0.00337083  1
  Cu  Cu108  1  0.16276869  0.49679642  0.24439460  1
  Cu  Cu109  1  0.33244022  0.33304111  -0.00595361  1
  Cu  Cu110  1  0.67312281  0.00196142  -0.00332193  1
  Cu  Cu111  1  0.50205504  0.16972467  0.75777607  1
  Cu  Cu112  1  -0.00130470  0.00239735  -0.00451166  1
  Cu  Cu113  1  -0.00046926  0.33228473  -0.00461427  1
  Cu  Cu114  1  -0.00187165  0.66530325  -0.00267127  1
  Se  Se115  1  0.08057314  0.08675101  0.05073661  1
  Se  Se116  1  0.07495599  0.07603602  0.56392274  1
  Se  Se117  1  0.08239739  0.41740102  0.04913770  1
  Se  Se118  1  0.08326634  0.41565390  0.55482448  1
  Se  Se119  1  0.08242969  0.75080923  0.04955533  1
  Se  Se120  1  0.07562094  0.74542371  0.56511490  1
  Se  Se121  1  0.42142848  0.08472570  0.04922454  1
  Se  Se122  1  0.41319178  0.07969016  0.55494224  1
  Se  Se123  1  0.41578455  0.41534022  0.05008305  1
  Se  Se124  1  0.41371355  0.41040719  0.56309070  1
  Se  Se125  1  0.41082339  0.73941989  0.06066001  1
  Se  Se126  1  0.40794111  0.73541801  0.55856482  1
  Se  Se127  1  0.75494478  0.08880325  0.04862470  1
  Se  Se128  1  0.75765427  0.09444753  0.56411667  1
  Se  Se129  1  0.75171906  0.41450880  0.04927807  1
  Se  Se130  1  0.74647830  0.41138028  0.56871581  1
  Se  Se131  1  0.74978740  0.74888743  0.04810757  1
  Se  Se132  1  0.75029684  0.74369487  0.55751525  1
  Se  Se133  1  0.24788895  0.24775205  0.04568960  1
  Se  Se134  1  0.26082800  0.25974559  0.56187488  1
  Se  Se135  1  0.24548192  0.57883603  0.04823556  1
  Se  Se136  1  0.24794652  0.58109026  0.55736001  1
  Se  Se137  1  0.25193553  0.91594695  0.04855000  1
  Se  Se138  1  0.25678623  0.92064299  0.55418883  1
  Se  Se139  1  0.58549565  0.24983290  0.05050356  1
  Se  Se140  1  0.58906028  0.25178776  0.56820144  1
  Se  Se141  1  0.57975734  0.58389802  0.04954444  1
  Se  Se142  1  0.59233917  0.58465554  0.55872039  1
  Se  Se143  1  0.59333543  0.92252713  0.05892375  1
  Se  Se144  1  0.59409000  0.92825409  0.56514258  1
  Se  Se145  1  0.91699259  0.24895935  0.05067801  1
  Se  Se146  1  0.91523745  0.24902925  0.56199005  1
  Se  Se147  1  0.91590666  0.57931155  0.04987781  1
  Se  Se148  1  0.92256548  0.58777091  0.56445778  1
  Se  Se149  1  0.91612796  0.91529156  0.04739384  1
  Se  Se150  1  0.91755852  0.92296677  0.56159863  1
  Se  Se151  1  0.07359607  0.24942405  0.43956124  1
  Se  Se152  1  0.08186939  0.24902909  0.94093041  1
  Se  Se153  1  0.08467485  0.57548091  0.44422651  1
  Se  Se154  1  0.08334558  0.58033055  0.94778931  1
  Se  Se155  1  0.07198243  0.92563447  0.44159605  1
  Se  Se156  1  0.08521596  0.91541616  0.94867493  1
  Se  Se157  1  0.40247202  0.26838929  0.44293212  1
  Se  Se158  1  0.41944945  0.24652027  0.94749003  1
  Se  Se159  1  0.41362283  0.59389467  0.43932904  1
  Se  Se160  1  0.41671088  0.58052797  0.94747750  1
  Se  Se161  1  0.41528860  0.91611268  0.43860895  1
  Se  Se162  1  0.41354918  0.92304653  0.93591820  1
  Se  Se163  1  0.75568863  0.24625651  0.45239250  1
  Se  Se164  1  0.75494626  0.24921393  0.94351966  1
  Se  Se165  1  0.75055721  0.58865913  0.44059132  1
  Se  Se166  1  0.75023057  0.58240141  0.94607443  1
  Se  Se167  1  0.74242229  0.92853273  0.44568329  1
  Se  Se168  1  0.75623217  0.91496361  0.94815919  1
  Se  Se169  1  0.25357242  0.08215294  0.44243038  1
  Se  Se170  1  0.24834510  0.08670157  0.94755364  1
  Se  Se171  1  0.24993479  0.41368751  0.44823568  1
  Se  Se172  1  0.24598856  0.41682835  0.94500962  1
  Se  Se173  1  0.25842822  0.73235730  0.44752145  1
  Se  Se174  1  0.24819736  0.75266232  0.94879313  1
  Se  Se175  1  0.59209976  0.07866766  0.44355985  1
  Se  Se176  1  0.58637479  0.08654049  0.94895506  1
  Se  Se177  1  0.59782897  0.40567288  0.44494431  1
  Se  Se178  1  0.58181648  0.41817317  0.94874626  1
  Se  Se179  1  0.58950553  0.74851090  0.43915922  1
  Se  Se180  1  0.58657060  0.74784982  0.93438425  1
  Se  Se181  1  0.91395867  0.08979605  0.44299383  1
  Se  Se182  1  0.91730284  0.08771441  0.94203626  1
  Se  Se183  1  0.92628368  0.40924874  0.44290387  1
  Se  Se184  1  0.91497754  0.41611710  0.94404989  1
  Se  Se185  1  0.92965547  0.73515990  0.43992397  1
  Se  Se186  1  0.91287810  0.75067674  0.94874370  1
  Se  Se187  1  0.23671261  0.24045437  0.30605437  1
  Se  Se188  1  0.25224496  0.25627903  0.80294785  1
  Se  Se189  1  0.24502896  0.57500107  0.30418566  1
  Se  Se190  1  0.24996336  0.58533371  0.80904385  1
  Se  Se191  1  0.23956558  0.91410966  0.30433312  1
  Se  Se192  1  0.24368157  0.91649847  0.81404426  1
  Se  Se193  1  0.57699621  0.24622389  0.30438586  1
  Se  Se194  1  0.58518837  0.25043501  0.81107753  1
  Se  Se195  1  0.59164639  0.58822043  0.29582907  1
  Se  Se196  1  0.58416383  0.58251198  0.80699897  1
  Se  Se197  1  0.57924870  0.91346028  0.30701448  1
  Se  Se198  1  0.58242159  0.91507342  0.80144154  1
  Se  Se199  1  0.91758510  0.26178630  0.30023171  1
  Se  Se200  1  0.90461289  0.24315288  0.79748223  1
  Se  Se201  1  0.91754007  0.58288812  0.29787013  1
  Se  Se202  1  0.91867692  0.58799631  0.80782025  1
  Se  Se203  1  0.91177686  0.91151183  0.30250333  1
  Se  Se204  1  0.91987682  0.91668987  0.81009391  1
  Se  Se205  1  0.07686036  0.07698862  0.29490921  1
  Se  Se206  1  0.08134930  0.08702222  0.80391924  1
  Se  Se207  1  0.08216838  0.41316236  0.30083864  1
  Se  Se208  1  0.07841212  0.41646317  0.80511536  1
  Se  Se209  1  0.08578911  0.74530839  0.30120335  1
  Se  Se210  1  0.08100451  0.74800096  0.81122670  1
  Se  Se211  1  0.42107444  0.09405501  0.29997289  1
  Se  Se212  1  0.41615485  0.08601665  0.81295851  1
  Se  Se213  1  0.42686033  0.43262879  0.30454861  1
  Se  Se214  1  0.41538674  0.41408522  0.80968083  1
  Se  Se215  1  0.42004937  0.76264350  0.30843076  1
  Se  Se216  1  0.41261558  0.74554016  0.80093464  1
  Se  Se217  1  0.75166620  0.08794024  0.30783758  1
  Se  Se218  1  0.73528977  0.06585705  0.80655416  1
  Se  Se219  1  0.75834432  0.42707340  0.30930941  1
  Se  Se220  1  0.74921099  0.41849786  0.80804172  1
  Se  Se221  1  0.74828551  0.74931527  0.29677521  1
  Se  Se222  1  0.74951766  0.74840085  0.80625187  1
  Se  Se223  1  0.24004942  0.09433159  0.17874085  1
  Se  Se224  1  0.23976223  0.09111166  0.69060004  1
  Se  Se225  1  0.24390463  0.41668476  0.18589597  1
  Se  Se226  1  0.25025694  0.41960845  0.70160343  1
  Se  Se227  1  0.24046325  0.75499334  0.18331118  1
  Se  Se228  1  0.24934433  0.74926892  0.70508831  1
  Se  Se229  1  0.57755608  0.09399390  0.18934975  1
  Se  Se230  1  0.58337915  0.08211444  0.70640747  1
  Se  Se231  1  0.57801917  0.42594369  0.18778209  1
  Se  Se232  1  0.58601660  0.41254634  0.70738485  1
  Se  Se233  1  0.57600452  0.75973839  0.19664149  1
  Se  Se234  1  0.58566950  0.74402519  0.69767752  1
  Se  Se235  1  0.92102300  0.08027660  0.19619684  1
  Se  Se236  1  0.93475279  0.06725059  0.70191516  1
  Se  Se237  1  0.91448400  0.41565910  0.19031480  1
  Se  Se238  1  0.91562924  0.42508158  0.70143630  1
  Se  Se239  1  0.91641606  0.74609522  0.18829431  1
  Se  Se240  1  0.91974234  0.74861615  0.70348200  1
  Se  Se241  1  0.07758535  0.25403880  0.19085170  1
  Se  Se242  1  0.08592723  0.25805176  0.69935594  1
  Se  Se243  1  0.07889364  0.58124716  0.19284381  1
  Se  Se244  1  0.08074420  0.58489133  0.70361074  1
  Se  Se245  1  0.07867975  0.91646318  0.19010952  1
  Se  Se246  1  0.08234472  0.91689875  0.70453878  1
  Se  Se247  1  0.42312025  0.24731747  0.19020372  1
  Se  Se248  1  0.41726051  0.25015687  0.70302378  1
  Se  Se249  1  0.41941325  0.57389744  0.19003652  1
  Se  Se250  1  0.41765958  0.57896497  0.70018637  1
  Se  Se251  1  0.42778377  0.90719570  0.19500948  1
  Se  Se252  1  0.42416329  0.90300568  0.68719160  1
  Se  Se253  1  0.76166278  0.24053100  0.19203425  1
  Se  Se254  1  0.74541003  0.26012511  0.70826039  1
  Se  Se255  1  0.74774764  0.58360155  0.18752247  1
  Se  Se256  1  0.74704437  0.58648608  0.70335561  1
  Se  Se257  1  0.76303607  0.91276124  0.17954564  1
  Se  Se258  1  0.75323343  0.91241678  0.70072785  1
