# generated using pymatgen
data_In86Cu29Se144
_symmetry_space_group_name_H-M   'P 1'
_cell_length_a   17.58054710
_cell_length_b   17.58068633
_cell_length_c   23.44404819
_cell_angle_alpha   89.97306961
_cell_angle_beta   89.98865133
_cell_angle_gamma   89.99069764
_symmetry_Int_Tables_number   1
_chemical_formula_structural   In86Cu29Se144
_chemical_formula_sum   'In86 Cu29 Se144'
_cell_volume   7246.04045831
_cell_formula_units_Z   1
loop_
 _symmetry_equiv_pos_site_id
 _symmetry_equiv_pos_as_xyz
  1  'x, y, z'
loop_
 _atom_site_type_symbol
 _atom_site_label
 _atom_site_symmetry_multiplicity
 _atom_site_fract_x
 _atom_site_fract_y
 _atom_site_fract_z
 _atom_site_occupancy
  In  In0  1  0.01570548  0.16834923  0.12669204  1
  In  In1  1  -0.00701428  0.15827372  0.62532397  1
  In  In2  1  0.00257054  0.49978523  0.12909869  1
  In  In3  1  -0.00243311  0.48902891  0.61143083  1
  In  In4  1  0.00047769  0.81809998  0.12881955  1
  In  In5  1  0.01553428  0.83236383  0.62131799  1
  In  In6  1  0.34053789  0.17154385  0.11706498  1
  In  In7  1  0.33604626  0.16756877  0.62638298  1
  In  In8  1  0.34067052  0.50753928  0.12160251  1
  In  In9  1  0.32750942  0.48820459  0.62104445  1
  In  In10  1  0.32005328  0.83259643  0.12312270  1
  In  In11  1  0.33451534  0.84808752  0.62550429  1
  In  In12  1  0.65049249  0.16972082  0.12576496  1
  In  In13  1  0.66486842  0.17318741  0.62897607  1
  In  In14  1  0.67751277  0.51498242  0.10532028  1
  In  In15  1  0.66311084  0.49319445  0.61780277  1
  In  In16  1  0.66126275  0.83322826  0.13849451  1
  In  In17  1  0.67409287  0.83868366  0.62526606  1
  In  In18  1  0.16448680  0.00020577  0.38824903  1
  In  In19  1  0.17258881  0.00124089  0.87075882  1
  In  In20  1  0.14781491  0.35021503  0.39281078  1
  In  In21  1  0.17237787  0.32304708  0.88034871  1
  In  In22  1  0.16693990  0.66805590  0.37085257  1
  In  In23  1  0.16489454  0.66487426  0.88556840  1
  In  In24  1  0.50932312  0.01078994  0.37646512  1
  In  In25  1  0.50796330  0.01470093  0.86850488  1
  In  In26  1  0.50154016  0.32948221  0.38180587  1
  In  In27  1  0.49888556  0.33601373  0.87161783  1
  In  In28  1  0.48820011  0.66323555  0.35882283  1
  In  In29  1  0.50485874  0.65409873  0.88393518  1
  In  In30  1  0.81509322  0.00819074  0.37699164  1
  In  In31  1  0.83147903  0.00213406  0.86690716  1
  In  In32  1  0.85354347  0.33618785  0.37573422  1
  In  In33  1  0.82719403  0.35166085  0.87354696  1
  In  In34  1  0.82020736  0.65578342  0.36736105  1
  In  In35  1  0.82318794  0.64430017  0.87984606  1
  In  In36  1  -0.00057855  0.17882641  0.37600044  1
  In  In37  1  0.01683129  0.16866330  0.87299382  1
  In  In38  1  -0.00377165  0.50112482  0.37401976  1
  In  In39  1  -0.00247329  0.50101552  0.88268321  1
  In  In40  1  0.01319472  0.83265432  0.37478438  1
  In  In41  1  -0.00033306  0.84226224  0.87683963  1
  In  In42  1  0.32895138  0.16768192  0.38263378  1
  In  In43  1  0.33468067  0.16977497  0.87099632  1
  In  In44  1  0.32607513  0.50556261  0.37788693  1
  In  In45  1  0.34136854  0.48351102  0.88026148  1
  In  In46  1  0.33615214  0.81994775  0.37205949  1
  In  In47  1  0.32215074  0.83168853  0.87623256  1
  In  In48  1  0.65856397  0.15782134  0.37261605  1
  In  In49  1  0.65568523  0.16470863  0.87168900  1
  In  In50  1  0.65730708  0.50433138  0.38048726  1
  In  In51  1  0.67933667  0.48142341  0.89906087  1
  In  In52  1  0.65914626  0.83601137  0.36534955  1
  In  In53  1  0.65826760  0.83634895  0.87559288  1
  In  In54  1  0.18096397  0.00738861  0.11552015  1
  In  In55  1  0.16812176  0.00282148  0.62460052  1
  In  In56  1  0.16390337  0.32752331  0.12185880  1
  In  In57  1  0.17614303  0.34327910  0.61944159  1
  In  In58  1  0.16435997  0.66306756  0.12752977  1
  In  In59  1  0.16748920  0.66002370  0.61531868  1
  In  In60  1  0.50370796  0.01338946  0.12542270  1
  In  In61  1  0.49557976  0.00934617  0.63051566  1
  In  In62  1  0.50344608  0.33163051  0.11302576  1
  In  In63  1  0.50067839  0.33126976  0.62446426  1
  In  In64  1  0.51374480  0.65302512  0.14361161  1
  In  In65  1  0.50939226  0.66019763  0.62074664  1
  In  In66  1  0.83055054  -0.01182517  0.12602431  1
  In  In67  1  0.82866925  0.00953443  0.63482793  1
  In  In68  1  0.82891900  0.35977809  0.11999365  1
  In  In69  1  0.82910264  0.32953125  0.62397725  1
  In  In70  1  0.83810756  0.66022684  0.13411734  1
  In  In71  1  0.84243231  0.66270199  0.62058264  1
  In  In72  1  0.33432731  0.66730315  0.75808967  1
  In  In73  1  0.84135928  0.82367822  0.00792878  1
  In  In74  1  0.49524794  0.83216413  0.49638665  1
  In  In75  1  0.33174938  0.33071075  0.24374181  1
  In  In76  1  0.83628978  0.17082889  -0.00599032  1
  In  In77  1  0.49675559  0.82529013  -0.00019364  1
  In  In78  1  0.66902146  0.33565472  0.24507552  1
  In  In79  1  -0.00325093  -0.00397431  0.24996493  1
  In  In80  1  0.83212340  0.83301100  0.49106617  1
  In  In81  1  0.34092388  -0.00411006  0.25408187  1
  In  In82  1  0.83303234  0.17326842  0.50459050  1
  In  In83  1  -0.00113999  0.33007713  0.74518794  1
  In  In84  1  -0.00021204  0.66749504  0.75411626  1
  In  In85  1  0.66843199  0.66802510  0.75026511  1
  Cu  Cu86  1  0.33551189  0.00524196  -0.00443076  1
  Cu  Cu87  1  -0.00029388  0.33774031  0.00185565  1
  Cu  Cu88  1  0.49874801  0.84569961  0.75313920  1
  Cu  Cu89  1  0.16390252  0.50386238  0.25608181  1
  Cu  Cu90  1  0.32807440  0.32990949  -0.00304693  1
  Cu  Cu91  1  0.66453709  0.65606722  0.49353513  1
  Cu  Cu92  1  0.34006772  0.32956044  0.50283632  1
  Cu  Cu93  1  0.16925243  0.17274725  0.25285819  1
  Cu  Cu94  1  0.82982397  0.83066555  0.25129613  1
  Cu  Cu95  1  0.49906486  0.17237853  0.74863775  1
  Cu  Cu96  1  0.00161507  0.66071178  0.00779785  1
  Cu  Cu97  1  0.66879596  0.00035656  -0.00234760  1
  Cu  Cu98  1  0.33164593  0.66242502  0.49272117  1
  Cu  Cu99  1  0.83448268  0.84185581  0.75202524  1
  Cu  Cu100  1  0.50149519  0.49576083  0.24850779  1
  Cu  Cu101  1  0.83007615  0.17018824  0.25344570  1
  Cu  Cu102  1  -0.00086926  -0.00142480  0.50440925  1
  Cu  Cu103  1  0.32905599  0.00284210  0.50630183  1
  Cu  Cu104  1  0.83460083  0.49952459  0.24872323  1
  Cu  Cu105  1  0.16489239  0.49721459  0.74735984  1
  Cu  Cu106  1  0.17219635  0.84272616  0.74650475  1
  Cu  Cu107  1  0.00485498  0.65855370  0.49542232  1
  Cu  Cu108  1  0.32593327  0.66602600  0.00468232  1
  Cu  Cu109  1  0.01771019  0.00124592  -0.00295727  1
  Cu  Cu110  1  0.82842950  0.16909708  0.75110517  1
  Cu  Cu111  1  0.16474789  0.82967462  0.24767613  1
  Cu  Cu112  1  0.66747667  0.33159213  0.50124143  1
  Cu  Cu113  1  0.17313934  0.16231691  0.74951948  1
  Cu  Cu114  1  0.49907545  0.49307231  0.74862254  1
  Se  Se115  1  0.09144590  0.09008274  0.05210087  1
  Se  Se116  1  0.08090740  0.08387763  0.55617210  1
  Se  Se117  1  0.08363236  0.41813021  0.05735994  1
  Se  Se118  1  0.09440588  0.42087308  0.54888895  1
  Se  Se119  1  0.08496667  0.74941835  0.05528657  1
  Se  Se120  1  0.08433233  0.74540800  0.54919037  1
  Se  Se121  1  0.42099098  0.08397862  0.05054659  1
  Se  Se122  1  0.41782257  0.08427487  0.55500729  1
  Se  Se123  1  0.40875351  0.41235465  0.05356571  1
  Se  Se124  1  0.42178453  0.41754582  0.55393164  1
  Se  Se125  1  0.41230590  0.73927643  0.06508081  1
  Se  Se126  1  0.40662582  0.74101795  0.56022830  1
  Se  Se127  1  0.75114505  0.07819002  0.05762006  1
  Se  Se128  1  0.74332197  0.07735482  0.55787251  1
  Se  Se129  1  0.72992552  0.40179541  0.04723440  1
  Se  Se130  1  0.75381285  0.41383794  0.55213290  1
  Se  Se131  1  0.74397465  0.74581895  0.06760951  1
  Se  Se132  1  0.74138554  0.74025823  0.55386478  1
  Se  Se133  1  0.24703511  0.24583195  0.05259419  1
  Se  Se134  1  0.25347672  0.24915053  0.55612513  1
  Se  Se135  1  0.24415157  0.57969337  0.05671112  1
  Se  Se136  1  0.25395232  0.57805560  0.55112239  1
  Se  Se137  1  0.25405755  0.91758566  0.04678193  1
  Se  Se138  1  0.24525086  0.91404043  0.55341624  1
  Se  Se139  1  0.58585051  0.24628604  0.04727795  1
  Se  Se140  1  0.58482760  0.24826117  0.55467732  1
  Se  Se141  1  0.56470235  0.58235520  0.05599721  1
  Se  Se142  1  0.57950421  0.57616166  0.54815860  1
  Se  Se143  1  0.58967499  0.91805679  0.05728348  1
  Se  Se144  1  0.58238202  0.91943269  0.56022076  1
  Se  Se145  1  0.92129328  0.25534035  0.06253370  1
  Se  Se146  1  0.93139079  0.26209345  0.55620898  1
  Se  Se147  1  0.91471661  0.58049286  0.05996990  1
  Se  Se148  1  0.91638857  0.58124431  0.54865444  1
  Se  Se149  1  0.93484751  0.92433283  0.05823705  1
  Se  Se150  1  0.91387631  0.91998726  0.56192209  1
  Se  Se151  1  0.09469075  0.23352243  0.44667784  1
  Se  Se152  1  0.08156126  0.25037319  0.95038537  1
  Se  Se153  1  0.08964510  0.58028436  0.43973459  1
  Se  Se154  1  0.08396666  0.57840980  0.95129566  1
  Se  Se155  1  0.08097728  0.91229705  0.45257403  1
  Se  Se156  1  0.09366248  0.91410152  0.94221694  1
  Se  Se157  1  0.42019838  0.24445174  0.44884563  1
  Se  Se158  1  0.41544680  0.25187192  0.94133515  1
  Se  Se159  1  0.42138689  0.58613195  0.43949693  1
  Se  Se160  1  0.40505046  0.58586472  0.94574295  1
  Se  Se161  1  0.40446260  0.92554686  0.43881850  1
  Se  Se162  1  0.41673044  0.92231603  0.93677271  1
  Se  Se163  1  0.74625049  0.25655707  0.43503154  1
  Se  Se164  1  0.74280960  0.25636208  0.93679491  1
  Se  Se165  1  0.75553848  0.57481725  0.44641273  1
  Se  Se166  1  0.74760747  0.58375451  0.96015094  1
  Se  Se167  1  0.73031099  0.92302403  0.44531071  1
  Se  Se168  1  0.75305289  0.91723199  0.94447274  1
  Se  Se169  1  0.24598243  0.08722669  0.45252752  1
  Se  Se170  1  0.25110982  0.08652203  0.94075668  1
  Se  Se171  1  0.25795878  0.41455769  0.44852506  1
  Se  Se172  1  0.24357517  0.41726626  0.94770544  1
  Se  Se173  1  0.24878289  0.74985784  0.44355178  1
  Se  Se174  1  0.24738872  0.75245371  0.95038819  1
  Se  Se175  1  0.58091981  0.09143931  0.45060754  1
  Se  Se176  1  0.58326398  0.08408666  0.94827594  1
  Se  Se177  1  0.58211663  0.41509105  0.44858242  1
  Se  Se178  1  0.55243318  0.43901299  0.94098842  1
  Se  Se179  1  0.58476717  0.74062385  0.43693864  1
  Se  Se180  1  0.59940904  0.73804429  0.94765058  1
  Se  Se181  1  0.91919204  0.07611110  0.44158927  1
  Se  Se182  1  0.92776856  0.07404414  0.93933468  1
  Se  Se183  1  0.92546432  0.41576615  0.44848974  1
  Se  Se184  1  0.91305688  0.41784582  0.94943569  1
  Se  Se185  1  0.92234946  0.73924820  0.43583937  1
  Se  Se186  1  0.92461059  0.73535816  0.93877644  1
  Se  Se187  1  0.24321536  0.25488867  0.31451091  1
  Se  Se188  1  0.24908637  0.25291038  0.80216754  1
  Se  Se189  1  0.25361906  0.58636902  0.30255594  1
  Se  Se190  1  0.24140491  0.57465358  0.81234361  1
  Se  Se191  1  0.23794896  0.91365742  0.31007798  1
  Se  Se192  1  0.25866123  0.91951350  0.80129058  1
  Se  Se193  1  0.57664307  0.24814799  0.30409317  1
  Se  Se194  1  0.58367724  0.25484213  0.80205399  1
  Se  Se195  1  0.58584920  0.57943140  0.30192416  1
  Se  Se196  1  0.57848658  0.57630628  0.80654669  1
  Se  Se197  1  0.56887118  0.91817552  0.30535385  1
  Se  Se198  1  0.58936135  0.92302068  0.80400662  1
  Se  Se199  1  0.92042797  0.25106282  0.29974564  1
  Se  Se200  1  0.90995760  0.24628842  0.81348494  1
  Se  Se201  1  0.91651705  0.58408225  0.30238580  1
  Se  Se202  1  0.90830222  0.57064104  0.80452941  1
  Se  Se203  1  0.90532495  0.91204474  0.31534354  1
  Se  Se204  1  0.92273205  0.92100880  0.80359635  1
  Se  Se205  1  0.09052426  0.08415735  0.30838919  1
  Se  Se206  1  0.08547122  0.08122717  0.80085061  1
  Se  Se207  1  0.08287309  0.41574537  0.30673018  1
  Se  Se208  1  0.08478205  0.41901486  0.81020763  1
  Se  Se209  1  0.08008406  0.74787239  0.30024545  1
  Se  Se210  1  0.09611350  0.75828219  0.80791744  1
  Se  Se211  1  0.42075935  0.09822307  0.30800159  1
  Se  Se212  1  0.41609917  0.08608475  0.80060744  1
  Se  Se213  1  0.42062379  0.41725338  0.30893461  1
  Se  Se214  1  0.41067789  0.41239620  0.79902409  1
  Se  Se215  1  0.41968463  0.76122521  0.29487651  1
  Se  Se216  1  0.43060789  0.75707520  0.81503574  1
  Se  Se217  1  0.74419007  0.08465754  0.29951264  1
  Se  Se218  1  0.74438288  0.08474199  0.80372790  1
  Se  Se219  1  0.75573133  0.42035728  0.31174625  1
  Se  Se220  1  0.74039190  0.42912265  0.80754037  1
  Se  Se221  1  0.74394599  0.74793987  0.30249216  1
  Se  Se222  1  0.76182666  0.75580267  0.81373732  1
  Se  Se223  1  0.25086176  0.09299014  0.19399580  1
  Se  Se224  1  0.25492468  0.07950540  0.69427263  1
  Se  Se225  1  0.24104412  0.42635490  0.19026122  1
  Se  Se226  1  0.25222458  0.41420016  0.69886613  1
  Se  Se227  1  0.24932137  0.74716972  0.19604128  1
  Se  Se228  1  0.24584138  0.75089010  0.68992583  1
  Se  Se229  1  0.59256479  0.07662201  0.19826838  1
  Se  Se230  1  0.58484330  0.08702306  0.69757514  1
  Se  Se231  1  0.58052628  0.42331787  0.18371815  1
  Se  Se232  1  0.58535888  0.41630614  0.69242284  1
  Se  Se233  1  0.58038374  0.75230250  0.20620699  1
  Se  Se234  1  0.57363221  0.76099536  0.69201527  1
  Se  Se235  1  0.90991615  0.09018092  0.18943208  1
  Se  Se236  1  0.91725581  0.08559971  0.70313843  1
  Se  Se237  1  0.91770096  0.41442838  0.19732301  1
  Se  Se238  1  0.90988625  0.42565298  0.69109498  1
  Se  Se239  1  0.91741685  0.74815103  0.20240661  1
  Se  Se240  1  0.91150674  0.76064923  0.69115864  1
  Se  Se241  1  0.08454368  0.25462546  0.19998182  1
  Se  Se242  1  0.09277757  0.24243586  0.68754290  1
  Se  Se243  1  0.08012510  0.58565167  0.19937231  1
  Se  Se244  1  0.08413447  0.57682421  0.68910422  1
  Se  Se245  1  0.09361014  0.91742907  0.18630037  1
  Se  Se246  1  0.08233387  0.91959422  0.69419754  1
  Se  Se247  1  0.43020877  0.24350762  0.19049996  1
  Se  Se248  1  0.41489592  0.25441285  0.69524353  1
  Se  Se249  1  0.41056513  0.58004194  0.20248238  1
  Se  Se250  1  0.42056178  0.58063172  0.69161680  1
  Se  Se251  1  0.42102971  0.91212720  0.18413680  1
  Se  Se252  1  0.41330495  0.92331738  0.69871101  1
  Se  Se253  1  0.76014160  0.24690448  0.18338660  1
  Se  Se254  1  0.74894541  0.25528354  0.69805950  1
  Se  Se255  1  0.74474426  0.57512192  0.19365009  1
  Se  Se256  1  0.75467518  0.57994769  0.68710744  1
  Se  Se257  1  0.74938943  0.91940082  0.20115498  1
  Se  Se258  1  0.74620154  0.92016354  0.69936310  1
