# generated using pymatgen
data_In86Cu29Se144
_symmetry_space_group_name_H-M   'P 1'
_cell_length_a   17.59096039
_cell_length_b   17.59027526
_cell_length_c   23.44466313
_cell_angle_alpha   90.01069488
_cell_angle_beta   89.98402751
_cell_angle_gamma   90.01074462
_symmetry_Int_Tables_number   1
_chemical_formula_structural   In86Cu29Se144
_chemical_formula_sum   'In86 Cu29 Se144'
_cell_volume   7254.47771597
_cell_formula_units_Z   1
loop_
 _symmetry_equiv_pos_site_id
 _symmetry_equiv_pos_as_xyz
  1  'x, y, z'
loop_
 _atom_site_type_symbol
 _atom_site_label
 _atom_site_symmetry_multiplicity
 _atom_site_fract_x
 _atom_site_fract_y
 _atom_site_fract_z
 _atom_site_occupancy
  In  In0  1  0.00088408  0.15117574  0.11846213  1
  In  In1  1  0.00218686  0.15835557  0.62675199  1
  In  In2  1  0.02228349  0.49503274  0.11978891  1
  In  In3  1  0.02165666  0.50050978  0.62336402  1
  In  In4  1  0.00133725  0.85418895  0.12046795  1
  In  In5  1  0.00607277  0.83149612  0.62286049  1
  In  In6  1  0.34152259  0.17243492  0.12123584  1
  In  In7  1  0.31961961  0.14962609  0.61981213  1
  In  In8  1  0.32804457  0.49540742  0.12233554  1
  In  In9  1  0.32573166  0.51461396  0.63175690  1
  In  In10  1  0.33520886  0.81875799  0.12286105  1
  In  In11  1  0.32982517  0.83560948  0.62407477  1
  In  In12  1  0.65145918  0.16246686  0.12520947  1
  In  In13  1  0.65438456  0.17047420  0.63209495  1
  In  In14  1  0.66634564  0.51689759  0.12190459  1
  In  In15  1  0.66135693  0.49084839  0.62982350  1
  In  In16  1  0.66772146  0.83890005  0.11901949  1
  In  In17  1  0.67454150  0.84560645  0.62159680  1
  In  In18  1  0.15984084  0.00954202  0.37948552  1
  In  In19  1  0.16815248  0.00606210  0.86307109  1
  In  In20  1  0.17607309  0.32222432  0.38597249  1
  In  In21  1  0.17062242  0.32471340  0.88443346  1
  In  In22  1  0.17666300  0.65976201  0.38332532  1
  In  In23  1  0.16572969  0.66943733  0.87003254  1
  In  In24  1  0.51032503  -0.00956922  0.37917022  1
  In  In25  1  0.49682097  0.00137891  0.87323603  1
  In  In26  1  0.48707229  0.33940251  0.37691653  1
  In  In27  1  0.50398809  0.32644643  0.88056509  1
  In  In28  1  0.49740415  0.67879245  0.37363256  1
  In  In29  1  0.48515643  0.67835693  0.88503405  1
  In  In30  1  0.82906323  -0.01178391  0.37154764  1
  In  In31  1  0.82747580  -0.00618710  0.86777820  1
  In  In32  1  0.83389684  0.32525926  0.37822166  1
  In  In33  1  0.82715312  0.34349529  0.86928331  1
  In  In34  1  0.84731652  0.67498463  0.38494663  1
  In  In35  1  0.85350029  0.67104111  0.87133069  1
  In  In36  1  0.01832427  0.16310336  0.37964911  1
  In  In37  1  0.01557742  0.15533510  0.87540532  1
  In  In38  1  0.02509422  0.50104894  0.39002831  1
  In  In39  1  -0.00042602  0.50995771  0.87484697  1
  In  In40  1  -0.00771100  0.83804058  0.38701912  1
  In  In41  1  0.00044430  0.83385508  0.87084788  1
  In  In42  1  0.32540594  0.17342286  0.38250182  1
  In  In43  1  0.33366311  0.16302629  0.87719402  1
  In  In44  1  0.32933537  0.49018181  0.36656007  1
  In  In45  1  0.32451780  0.51290339  0.88581587  1
  In  In46  1  0.34544738  0.82699120  0.37750071  1
  In  In47  1  0.33240345  0.83663445  0.87091926  1
  In  In48  1  0.67558644  0.14848851  0.37975811  1
  In  In49  1  0.65765602  0.15694154  0.86759688  1
  In  In50  1  0.65164136  0.49836758  0.37530354  1
  In  In51  1  0.66531957  0.48842442  0.87350045  1
  In  In52  1  0.66012893  0.84144454  0.38300434  1
  In  In53  1  0.65487994  0.84470622  0.87624928  1
  In  In54  1  0.15047176  0.00428509  0.12364219  1
  In  In55  1  0.16998531  -0.00033455  0.62702613  1
  In  In56  1  0.17391990  0.34418011  0.11355549  1
  In  In57  1  0.15879262  0.33120929  0.61109572  1
  In  In58  1  0.18583824  0.66455466  0.12443359  1
  In  In59  1  0.16695508  0.67003466  0.62474966  1
  In  In60  1  0.50627567  0.01022914  0.11914784  1
  In  In61  1  0.49554287  0.00001858  0.62568793  1
  In  In62  1  0.48808474  0.32028895  0.11844533  1
  In  In63  1  0.51192562  0.32521130  0.62601592  1
  In  In64  1  0.47539928  0.64859820  0.09960154  1
  In  In65  1  0.48096805  0.66829992  0.62876658  1
  In  In66  1  0.83905906  -0.01375458  0.12890473  1
  In  In67  1  0.84530554  -0.00977518  0.63606018  1
  In  In68  1  0.83932513  0.32688547  0.12629141  1
  In  In69  1  0.82791629  0.32377481  0.62692204  1
  In  In70  1  0.82550591  0.67403784  0.12101741  1
  In  In71  1  0.83709794  0.68616911  0.62079439  1
  In  In72  1  0.33308863  -0.00051350  0.25248512  1
  In  In73  1  0.66408401  0.66988101  0.75029611  1
  In  In74  1  0.00429725  0.32698303  0.25060807  1
  In  In75  1  -0.00127085  0.67102338  0.25991997  1
  In  In76  1  0.83489432  0.16487643  -0.00023113  1
  In  In77  1  0.49682512  0.49921636  0.50271357  1
  In  In78  1  0.65448016  0.32894025  0.24806788  1
  In  In79  1  0.83660406  0.50175232  0.50135512  1
  In  In80  1  0.66195899  0.68286896  0.24615343  1
  In  In81  1  0.17253228  0.83588747  -0.00254417  1
  In  In82  1  0.33453346  0.32961686  0.75672863  1
  In  In83  1  0.83445877  0.50645519  -0.00405871  1
  In  In84  1  -0.00212732  0.33079950  0.74783955  1
  In  In85  1  0.83603341  0.16192419  0.50808840  1
  Cu  Cu86  1  0.66353984  0.00059010  0.50477437  1
  Cu  Cu87  1  0.00682620  0.67239115  -0.00359317  1
  Cu  Cu88  1  0.83796617  0.49645343  0.25646396  1
  Cu  Cu89  1  0.00259322  -0.00245482  0.50643319  1
  Cu  Cu90  1  0.66506616  0.33331080  0.00054074  1
  Cu  Cu91  1  0.33609028  0.33437922  0.50177614  1
  Cu  Cu92  1  0.17014804  0.17195354  0.25383274  1
  Cu  Cu93  1  0.49753111  0.16411045  0.24878594  1
  Cu  Cu94  1  0.66433861  0.00118430  -0.00650062  1
  Cu  Cu95  1  0.82732503  0.16539651  0.74854177  1
  Cu  Cu96  1  0.66323486  0.67121564  0.50078123  1
  Cu  Cu97  1  0.83259448  0.15102739  0.24940633  1
  Cu  Cu98  1  0.49492706  0.83825924  0.75134022  1
  Cu  Cu99  1  0.49711906  0.50082719  0.75058311  1
  Cu  Cu100  1  0.33315024  -0.00084607  -0.00529443  1
  Cu  Cu101  1  0.17563832  0.49895863  0.25026148  1
  Cu  Cu102  1  0.83576082  0.83911348  0.25148949  1
  Cu  Cu103  1  0.83807290  0.83507559  0.74755748  1
  Cu  Cu104  1  0.49673508  0.16319315  0.75176035  1
  Cu  Cu105  1  0.16632219  0.83308264  0.74548023  1
  Cu  Cu106  1  0.32970493  0.66903412  0.50294910  1
  Cu  Cu107  1  0.17016725  0.50097632  0.75190773  1
  Cu  Cu108  1  0.49053086  0.50173055  0.24078007  1
  Cu  Cu109  1  0.16717355  0.83381360  0.24701355  1
  Cu  Cu110  1  0.50041624  0.82878180  0.24730404  1
  Cu  Cu111  1  0.33533196  -0.00067832  0.50050791  1
  Cu  Cu112  1  0.83430912  0.50432052  0.75134845  1
  Cu  Cu113  1  0.33617088  0.33326565  -0.00160345  1
  Cu  Cu114  1  0.66589384  0.67527292  -0.00333978  1
  Se  Se115  1  0.08809348  0.08525363  0.04593352  1
  Se  Se116  1  0.08625839  0.08327382  0.55580762  1
  Se  Se117  1  0.08005292  0.41062590  0.04400979  1
  Se  Se118  1  0.08615069  0.42259554  0.54511323  1
  Se  Se119  1  0.08277092  0.74751346  0.06371414  1
  Se  Se120  1  0.09168674  0.75456936  0.55362143  1
  Se  Se121  1  0.41520665  0.08348135  0.05124314  1
  Se  Se122  1  0.41829211  0.08448323  0.55296860  1
  Se  Se123  1  0.41787850  0.41648041  0.05390392  1
  Se  Se124  1  0.40872718  0.41360529  0.56783979  1
  Se  Se125  1  0.41889695  0.76140889  0.04445230  1
  Se  Se126  1  0.41526684  0.75227724  0.55365657  1
  Se  Se127  1  0.74267839  0.07714332  0.06025461  1
  Se  Se128  1  0.74618219  0.07412383  0.56863409  1
  Se  Se129  1  0.74714521  0.41182590  0.06047259  1
  Se  Se130  1  0.74250147  0.40959308  0.55645154  1
  Se  Se131  1  0.75178992  0.75603346  0.04938850  1
  Se  Se132  1  0.74746703  0.75581204  0.55115058  1
  Se  Se133  1  0.25340218  0.24859750  0.05257838  1
  Se  Se134  1  0.25264178  0.24828902  0.55265652  1
  Se  Se135  1  0.24203404  0.57257651  0.05230857  1
  Se  Se136  1  0.24788529  0.58226878  0.55413608  1
  Se  Se137  1  0.25730716  0.92608506  0.06394864  1
  Se  Se138  1  0.24931221  0.91817461  0.55368563  1
  Se  Se139  1  0.58226488  0.24695670  0.05189677  1
  Se  Se140  1  0.58549242  0.24592416  0.55307669  1
  Se  Se141  1  0.58711797  0.58285873  0.04490688  1
  Se  Se142  1  0.58725140  0.59156962  0.56337361  1
  Se  Se143  1  0.58216473  0.92033206  0.05155670  1
  Se  Se144  1  0.57857823  0.91569899  0.55576942  1
  Se  Se145  1  0.92832438  0.25815250  0.05504081  1
  Se  Se146  1  0.92820998  0.25930852  0.55925675  1
  Se  Se147  1  0.92741627  0.59180793  0.06068532  1
  Se  Se148  1  0.92324679  0.58836891  0.56318304  1
  Se  Se149  1  0.91306208  0.91857800  0.04896652  1
  Se  Se150  1  0.91560898  0.91562663  0.55709565  1
  Se  Se151  1  0.07898416  0.25432930  0.45051585  1
  Se  Se152  1  0.07752041  0.24753176  0.94595354  1
  Se  Se153  1  0.07328837  0.60833509  0.45268537  1
  Se  Se154  1  0.08616768  0.58751483  0.94306910  1
  Se  Se155  1  0.08606027  0.91929875  0.44821527  1
  Se  Se156  1  0.08322588  0.92351256  0.93855359  1
  Se  Se157  1  0.41812556  0.25092469  0.44829028  1
  Se  Se158  1  0.41649038  0.24563436  0.94596330  1
  Se  Se159  1  0.41029604  0.58818977  0.43998047  1
  Se  Se160  1  0.42789636  0.57401205  0.94897925  1
  Se  Se161  1  0.41954732  0.91582517  0.44687029  1
  Se  Se162  1  0.41516839  0.91581847  0.94190729  1
  Se  Se163  1  0.74330236  0.25152101  0.44712116  1
  Se  Se164  1  0.74411903  0.25507741  0.93864327  1
  Se  Se165  1  0.73884480  0.58906231  0.43935403  1
  Se  Se166  1  0.74531104  0.59552463  0.93382590  1
  Se  Se167  1  0.74942794  0.91952737  0.44979324  1
  Se  Se168  1  0.74908182  0.91716395  0.94318680  1
  Se  Se169  1  0.24918742  0.08349695  0.44887895  1
  Se  Se170  1  0.24654490  0.07839709  0.94181490  1
  Se  Se171  1  0.25536050  0.41970165  0.44640370  1
  Se  Se172  1  0.24955225  0.41566166  0.94784744  1
  Se  Se173  1  0.25359530  0.75517499  0.44629893  1
  Se  Se174  1  0.25998493  0.74076139  0.94291624  1
  Se  Se175  1  0.58226517  0.08235562  0.44906811  1
  Se  Se176  1  0.57884319  0.08574233  0.94423117  1
  Se  Se177  1  0.58971073  0.40457891  0.44769342  1
  Se  Se178  1  0.58287091  0.41757631  0.94788308  1
  Se  Se179  1  0.57788392  0.75185006  0.44731752  1
  Se  Se180  1  0.57995060  0.75774055  0.94592967  1
  Se  Se181  1  0.92164340  0.07516067  0.44160935  1
  Se  Se182  1  0.91805765  0.07398697  0.93802453  1
  Se  Se183  1  0.92469760  0.40810402  0.44152176  1
  Se  Se184  1  0.92214345  0.41044274  0.94056901  1
  Se  Se185  1  0.91679209  0.75431744  0.45858479  1
  Se  Se186  1  0.92082342  0.75485857  0.94654711  1
  Se  Se187  1  0.25361514  0.25440541  0.30608175  1
  Se  Se188  1  0.23779991  0.23870502  0.80672288  1
  Se  Se189  1  0.25259947  0.58685008  0.30482662  1
  Se  Se190  1  0.25320204  0.58434985  0.80492107  1
  Se  Se191  1  0.24435929  0.91099168  0.31329231  1
  Se  Se192  1  0.25015188  0.91515765  0.80029671  1
  Se  Se193  1  0.57676447  0.23960994  0.31564501  1
  Se  Se194  1  0.57956388  0.25048495  0.80336755  1
  Se  Se195  1  0.57377365  0.57993772  0.30057493  1
  Se  Se196  1  0.57640546  0.58183282  0.81250108  1
  Se  Se197  1  0.58323758  0.90966183  0.30286182  1
  Se  Se198  1  0.58096497  0.92224979  0.80078052  1
  Se  Se199  1  0.91022699  0.23488725  0.30858067  1
  Se  Se200  1  0.90852880  0.24307925  0.81106953  1
  Se  Se201  1  0.91611315  0.57072280  0.31922208  1
  Se  Se202  1  0.92383279  0.58578735  0.79807123  1
  Se  Se203  1  0.92459546  0.91548075  0.30600146  1
  Se  Se204  1  0.92038023  0.91881790  0.80143670  1
  Se  Se205  1  0.08512922  0.08454118  0.30087325  1
  Se  Se206  1  0.07664377  0.07898387  0.79474639  1
  Se  Se207  1  0.09373554  0.41928163  0.30992127  1
  Se  Se208  1  0.08937772  0.41862854  0.81055484  1
  Se  Se209  1  0.09184668  0.75912985  0.31571403  1
  Se  Se210  1  0.08304469  0.75126545  0.80193322  1
  Se  Se211  1  0.42113396  0.08716940  0.31504642  1
  Se  Se212  1  0.41144250  0.08221635  0.80424907  1
  Se  Se213  1  0.41728568  0.41358601  0.29738741  1
  Se  Se214  1  0.41969955  0.42365375  0.81565432  1
  Se  Se215  1  0.41420694  0.74701678  0.29829257  1
  Se  Se216  1  0.41554276  0.74987856  0.80329389  1
  Se  Se217  1  0.74631680  0.07215016  0.30253325  1
  Se  Se218  1  0.74529791  0.07949771  0.80058894  1
  Se  Se219  1  0.75072673  0.41755057  0.30937938  1
  Se  Se220  1  0.74626388  0.41883290  0.79616935  1
  Se  Se221  1  0.75899669  0.75598765  0.31257689  1
  Se  Se222  1  0.75609434  0.75732154  0.81054239  1
  Se  Se223  1  0.24590032  0.08927962  0.19044655  1
  Se  Se224  1  0.25186643  0.07812710  0.69933560  1
  Se  Se225  1  0.25010180  0.41081309  0.19440560  1
  Se  Se226  1  0.24231860  0.41415182  0.69146249  1
  Se  Se227  1  0.25335437  0.74944203  0.19959957  1
  Se  Se228  1  0.25225913  0.74890791  0.69468490  1
  Se  Se229  1  0.58260034  0.07888565  0.20029801  1
  Se  Se230  1  0.57993081  0.07885285  0.69813988  1
  Se  Se231  1  0.57725184  0.42479226  0.18338363  1
  Se  Se232  1  0.57862672  0.41416494  0.70058883  1
  Se  Se233  1  0.56817888  0.74952501  0.17666506  1
  Se  Se234  1  0.57558754  0.75885452  0.68891268  1
  Se  Se235  1  0.91985745  0.07790714  0.19296728  1
  Se  Se236  1  0.91873749  0.08643810  0.69999948  1
  Se  Se237  1  0.91707116  0.42568801  0.19122572  1
  Se  Se238  1  0.91181139  0.42538613  0.68666055  1
  Se  Se239  1  0.91323282  0.75586941  0.19118944  1
  Se  Se240  1  0.92132259  0.75128313  0.69610024  1
  Se  Se241  1  0.09080945  0.24340500  0.18539321  1
  Se  Se242  1  0.09392017  0.24582098  0.69118767  1
  Se  Se243  1  0.08949242  0.58164113  0.19707146  1
  Se  Se244  1  0.08803792  0.58485686  0.69808393  1
  Se  Se245  1  0.08235984  0.91916139  0.19909297  1
  Se  Se246  1  0.08209605  0.91746373  0.69386662  1
  Se  Se247  1  0.41485243  0.24993162  0.19895129  1
  Se  Se248  1  0.41735303  0.24223875  0.68964753  1
  Se  Se249  1  0.41100060  0.58703033  0.18748645  1
  Se  Se250  1  0.41115595  0.58653029  0.70436447  1
  Se  Se251  1  0.42148881  0.91358491  0.18834620  1
  Se  Se252  1  0.41139100  0.91860109  0.69484540  1
  Se  Se253  1  0.75522937  0.23932284  0.19307877  1
  Se  Se254  1  0.74424919  0.25166377  0.69883268  1
  Se  Se255  1  0.75993674  0.58084206  0.19850934  1
  Se  Se256  1  0.75593122  0.58283472  0.68746385  1
  Se  Se257  1  0.74601681  0.91331948  0.19634872  1
  Se  Se258  1  0.74747195  0.91769565  0.70089469  1
