# generated using pymatgen
data_In86Cu29Se144
_symmetry_space_group_name_H-M   'P 1'
_cell_length_a   17.58087366
_cell_length_b   17.57910213
_cell_length_c   23.44029963
_cell_angle_alpha   89.99245621
_cell_angle_beta   90.00744118
_cell_angle_gamma   89.98775903
_symmetry_Int_Tables_number   1
_chemical_formula_structural   In86Cu29Se144
_chemical_formula_sum   'In86 Cu29 Se144'
_cell_volume   7244.36433600
_cell_formula_units_Z   1
loop_
 _symmetry_equiv_pos_site_id
 _symmetry_equiv_pos_as_xyz
  1  'x, y, z'
loop_
 _atom_site_type_symbol
 _atom_site_label
 _atom_site_symmetry_multiplicity
 _atom_site_fract_x
 _atom_site_fract_y
 _atom_site_fract_z
 _atom_site_occupancy
  In  In0  1  0.01282455  0.16044092  0.13032206  1
  In  In1  1  0.00079297  0.15213491  0.62026074  1
  In  In2  1  0.00129271  0.50104842  0.12300942  1
  In  In3  1  0.01556103  0.50893825  0.63070750  1
  In  In4  1  -0.00543952  0.83941888  0.13336362  1
  In  In5  1  -0.00542802  0.82670705  0.61912649  1
  In  In6  1  0.33796527  0.17169485  0.11593792  1
  In  In7  1  0.33370484  0.16221460  0.62625857  1
  In  In8  1  0.33199633  0.51628826  0.11853609  1
  In  In9  1  0.32726529  0.50386709  0.65141158  1
  In  In10  1  0.33273221  0.81779595  0.12336995  1
  In  In11  1  0.31562313  0.84167463  0.64297490  1
  In  In12  1  0.65954344  0.16610168  0.13386445  1
  In  In13  1  0.65209261  0.17408266  0.62991273  1
  In  In14  1  0.67449809  0.49449888  0.12507930  1
  In  In15  1  0.65065124  0.49726560  0.63140025  1
  In  In16  1  0.65843969  0.84208235  0.13068679  1
  In  In17  1  0.68184580  0.83984909  0.61935310  1
  In  In18  1  0.15988431  0.00718988  0.38108531  1
  In  In19  1  0.18189607  -0.00882291  0.87315170  1
  In  In20  1  0.15929217  0.33330758  0.37260864  1
  In  In21  1  0.17571272  0.32614314  0.88052947  1
  In  In22  1  0.16918940  0.67290722  0.37078158  1
  In  In23  1  0.15535127  0.66005734  0.85458079  1
  In  In24  1  0.51629594  0.00929748  0.37662418  1
  In  In25  1  0.49701121  -0.00215861  0.87532570  1
  In  In26  1  0.50575970  0.32021280  0.37460866  1
  In  In27  1  0.48436916  0.32837843  0.86636702  1
  In  In28  1  0.49430366  0.66130655  0.36566759  1
  In  In29  1  0.50139095  0.67888169  0.88342894  1
  In  In30  1  0.82367165  -0.01324253  0.37078288  1
  In  In31  1  0.82927437  0.01279289  0.87477120  1
  In  In32  1  0.82828638  0.32513676  0.36502089  1
  In  In33  1  0.83569620  0.34759929  0.87924893  1
  In  In34  1  0.84411669  0.68034662  0.36770331  1
  In  In35  1  0.82660136  0.65366947  0.88050792  1
  In  In36  1  0.00716151  0.16976192  0.36696296  1
  In  In37  1  -0.00035767  0.17812983  0.88215633  1
  In  In38  1  -0.00203233  0.49779659  0.36437172  1
  In  In39  1  -0.00863206  0.51008755  0.88326513  1
  In  In40  1  0.00109890  0.83403551  0.37522261  1
  In  In41  1  0.01880753  0.82469433  0.87308606  1
  In  In42  1  0.34123264  0.16007354  0.38467097  1
  In  In43  1  0.33501518  0.16544937  0.87445475  1
  In  In44  1  0.32359300  0.50502571  0.37197546  1
  In  In45  1  0.31606229  0.48794268  0.85403471  1
  In  In46  1  0.33009509  0.81920295  0.37904640  1
  In  In47  1  0.33404105  0.84046179  0.86339886  1
  In  In48  1  0.65251871  0.15478039  0.35810119  1
  In  In49  1  0.65125774  0.15683234  0.87179887  1
  In  In50  1  0.66269060  0.49758099  0.36238039  1
  In  In51  1  0.68123661  0.50371146  0.88011113  1
  In  In52  1  0.67861710  0.84773007  0.36934594  1
  In  In53  1  0.64764553  0.82711273  0.87952844  1
  In  In54  1  0.15622500  0.00696986  0.12313365  1
  In  In55  1  0.17361630  0.00717812  0.61848830  1
  In  In56  1  0.16015478  0.32680426  0.11689970  1
  In  In57  1  0.18628675  0.33261310  0.63074294  1
  In  In58  1  0.17162087  0.66187577  0.12600524  1
  In  In59  1  0.15228433  0.67638269  0.64912899  1
  In  In60  1  0.51008143  0.00871073  0.11909126  1
  In  In61  1  0.49109890  0.00442068  0.62907968  1
  In  In62  1  0.51377106  0.32705447  0.12258737  1
  In  In63  1  0.50324323  0.33213566  0.63877568  1
  In  In64  1  0.49441931  0.67303252  0.12561455  1
  In  In65  1  0.48826271  0.67003855  0.62848115  1
  In  In66  1  0.83526122  -0.00158328  0.13346845  1
  In  In67  1  0.83767127  -0.01211584  0.62423176  1
  In  In68  1  0.82675782  0.34317366  0.12755995  1
  In  In69  1  0.82247106  0.32352210  0.62439756  1
  In  In70  1  0.83947421  0.66065876  0.12895847  1
  In  In71  1  0.82982319  0.68245515  0.62144543  1
  In  In72  1  0.49809460  0.49553430  -0.00379502  1
  In  In73  1  0.33885690  0.33748056  0.24272425  1
  In  In74  1  0.17215161  0.83650824  -0.00306804  1
  In  In75  1  0.83467745  0.16878145  0.00865504  1
  In  In76  1  0.83592259  0.50320320  0.48836865  1
  In  In77  1  0.66283798  0.66566996  0.75275102  1
  In  In78  1  0.50081220  0.83910567  0.49845757  1
  In  In79  1  0.00030618  -0.00215480  0.75255347  1
  In  In80  1  0.49333269  0.49834700  0.51376833  1
  In  In81  1  0.83432430  0.83496272  0.01189478  1
  In  In82  1  0.33875848  -0.00355917  0.25742317  1
  In  In83  1  0.16957897  0.49593640  0.50523284  1
  In  In84  1  0.82526928  0.15610856  0.49013482  1
  In  In85  1  -0.00165028  0.33591145  0.75156514  1
  Cu  Cu86  1  0.00274113  0.66766016  0.00039170  1
  Cu  Cu87  1  0.17242912  0.16726896  0.25005640  1
  Cu  Cu88  1  0.00588418  0.66842993  0.50072157  1
  Cu  Cu89  1  0.32413488  0.66637625  0.50558460  1
  Cu  Cu90  1  0.33930709  0.00000719  -0.00557371  1
  Cu  Cu91  1  0.49979311  0.50163465  0.24005438  1
  Cu  Cu92  1  0.33120806  0.33512030  -0.00822454  1
  Cu  Cu93  1  0.83546019  0.50171629  0.24670224  1
  Cu  Cu94  1  0.84202386  0.17054309  0.24707076  1
  Cu  Cu95  1  0.83537394  0.83206588  0.74745587  1
  Cu  Cu96  1  0.49333738  0.16241756  0.75134252  1
  Cu  Cu97  1  0.33086804  -0.00336543  0.50627060  1
  Cu  Cu98  1  0.00618555  0.34152488  0.00067514  1
  Cu  Cu99  1  0.65940380  0.33457692  0.50494280  1
  Cu  Cu100  1  0.66921292  0.67702674  0.49447641  1
  Cu  Cu101  1  0.00651064  0.32126452  0.49617654  1
  Cu  Cu102  1  0.66648494  0.32741333  0.00201711  1
  Cu  Cu103  1  0.33049753  0.66555393  -0.00532704  1
  Cu  Cu104  1  0.83159263  0.82851339  0.24980810  1
  Cu  Cu105  1  0.83618311  0.50171219  0.75410384  1
  Cu  Cu106  1  0.50358249  0.84181312  0.75160268  1
  Cu  Cu107  1  0.81419774  0.16889726  0.74990701  1
  Cu  Cu108  1  0.17149148  0.16642626  0.75100563  1
  Cu  Cu109  1  0.65980039  -0.00764687  -0.00097550  1
  Cu  Cu110  1  0.00555384  -0.00730783  0.49799368  1
  Cu  Cu111  1  0.15982113  0.82999593  0.24885875  1
  Cu  Cu112  1  0.16334459  0.50610255  0.24764158  1
  Cu  Cu113  1  0.49708213  0.83104687  0.25142232  1
  Cu  Cu114  1  0.33684789  0.32192295  0.50693187  1
  Se  Se115  1  0.09353958  0.09698436  0.05135245  1
  Se  Se116  1  0.08535790  0.08242096  0.54767333  1
  Se  Se117  1  0.09066807  0.42573383  0.05246551  1
  Se  Se118  1  0.07612638  0.40319057  0.56224809  1
  Se  Se119  1  0.07785906  0.75255019  0.06039172  1
  Se  Se120  1  0.09017372  0.74164590  0.56102894  1
  Se  Se121  1  0.41947305  0.08361493  0.05121039  1
  Se  Se122  1  0.41624493  0.08299333  0.55372775  1
  Se  Se123  1  0.40893756  0.40678024  0.06142398  1
  Se  Se124  1  0.40033025  0.41027432  0.57089638  1
  Se  Se125  1  0.41467556  0.74682502  0.04825769  1
  Se  Se126  1  0.40641784  0.75338181  0.55873536  1
  Se  Se127  1  0.74226771  0.07138424  0.05971669  1
  Se  Se128  1  0.74658663  0.08305237  0.56703332  1
  Se  Se129  1  0.75002637  0.41515969  0.04922642  1
  Se  Se130  1  0.74386495  0.42006163  0.55655790  1
  Se  Se131  1  0.74260771  0.74517033  0.06641028  1
  Se  Se132  1  0.75588219  0.75804818  0.54479507  1
  Se  Se133  1  0.25112354  0.25145255  0.04966879  1
  Se  Se134  1  0.24571702  0.24282305  0.55614065  1
  Se  Se135  1  0.24339475  0.58543067  0.04686012  1
  Se  Se136  1  0.25394667  0.58342969  0.56937336  1
  Se  Se137  1  0.26038147  0.92548483  0.06131507  1
  Se  Se138  1  0.25036080  0.90855784  0.55661339  1
  Se  Se139  1  0.58708650  0.23929401  0.05239112  1
  Se  Se140  1  0.57348798  0.25621035  0.55824800  1
  Se  Se141  1  0.58243333  0.58212701  0.06120960  1
  Se  Se142  1  0.59188616  0.59906120  0.55792018  1
  Se  Se143  1  0.57641334  0.90915193  0.05232926  1
  Se  Se144  1  0.58847546  0.92753702  0.55944550  1
  Se  Se145  1  0.92752820  0.26056192  0.06346821  1
  Se  Se146  1  0.91790370  0.24897319  0.55462338  1
  Se  Se147  1  0.91821599  0.58529022  0.05338771  1
  Se  Se148  1  0.92352684  0.58580787  0.55817762  1
  Se  Se149  1  0.92955287  0.93271282  0.05785647  1
  Se  Se150  1  0.91689060  0.91364301  0.54983492  1
  Se  Se151  1  0.09087594  0.24177648  0.44289725  1
  Se  Se152  1  0.08631447  0.25252954  0.95082232  1
  Se  Se153  1  0.07843862  0.58090727  0.44078225  1
  Se  Se154  1  0.08812524  0.59408642  0.94057743  1
  Se  Se155  1  0.09007507  0.90893803  0.44591039  1
  Se  Se156  1  0.07667320  0.92765670  0.94225191  1
  Se  Se157  1  0.42334033  0.24896187  0.44908384  1
  Se  Se158  1  0.41745433  0.24901511  0.94508863  1
  Se  Se159  1  0.40757819  0.58793353  0.44650271  1
  Se  Se160  1  0.40647595  0.58031497  0.93456889  1
  Se  Se161  1  0.40895848  0.92700190  0.43620196  1
  Se  Se162  1  0.41436326  0.90940260  0.94165334  1
  Se  Se163  1  0.73957420  0.25988992  0.44154298  1
  Se  Se164  1  0.74760077  0.24916270  0.93865140  1
  Se  Se165  1  0.74097235  0.59197255  0.43292968  1
  Se  Se166  1  0.74870649  0.58411705  0.95610707  1
  Se  Se167  1  0.74407806  0.92265062  0.44936171  1
  Se  Se168  1  0.74768387  0.91879378  0.94139676  1
  Se  Se169  1  0.25114775  0.08163261  0.44891488  1
  Se  Se170  1  0.25145039  0.08106795  0.94361499  1
  Se  Se171  1  0.26126085  0.40448502  0.44381699  1
  Se  Se172  1  0.25156314  0.42518929  0.94230948  1
  Se  Se173  1  0.24199476  0.74736448  0.45018465  1
  Se  Se174  1  0.25171505  0.74538382  0.93247908  1
  Se  Se175  1  0.59093038  0.09358030  0.44621618  1
  Se  Se176  1  0.57798642  0.07973706  0.94799083  1
  Se  Se177  1  0.58395962  0.41965115  0.44401115  1
  Se  Se178  1  0.58806691  0.40421870  0.93673448  1
  Se  Se179  1  0.58221888  0.74705734  0.43374775  1
  Se  Se180  1  0.59296625  0.73991388  0.95608490  1
  Se  Se181  1  0.92617234  0.07301565  0.43517741  1
  Se  Se182  1  0.92410056  0.07833078  0.94656013  1
  Se  Se183  1  0.92626974  0.40277389  0.43834346  1
  Se  Se184  1  0.91512762  0.42216356  0.95297015  1
  Se  Se185  1  0.92030805  0.74943692  0.44691005  1
  Se  Se186  1  0.92186493  0.75010541  0.94204698  1
  Se  Se187  1  0.25529794  0.24599295  0.30958939  1
  Se  Se188  1  0.25307793  0.25095972  0.80455965  1
  Se  Se189  1  0.24913679  0.58745589  0.30082796  1
  Se  Se190  1  0.27279342  0.60912252  0.79941424  1
  Se  Se191  1  0.24128415  0.90760010  0.31154416  1
  Se  Se192  1  0.23931847  0.90824710  0.79509275  1
  Se  Se193  1  0.59516799  0.26492873  0.29942347  1
  Se  Se194  1  0.57753172  0.24682397  0.80391859  1
  Se  Se195  1  0.58120152  0.58475420  0.29712817  1
  Se  Se196  1  0.57922642  0.57877754  0.81726351  1
  Se  Se197  1  0.57887682  0.91625489  0.30446007  1
  Se  Se198  1  0.58832652  0.92010007  0.80667384  1
  Se  Se199  1  0.92488072  0.25485368  0.29997676  1
  Se  Se200  1  0.90274377  0.24327636  0.80855420  1
  Se  Se201  1  0.91690841  0.58633819  0.30100213  1
  Se  Se202  1  0.91527061  0.58813117  0.80659045  1
  Se  Se203  1  0.91599336  0.91268924  0.30407191  1
  Se  Se204  1  0.91024779  0.90848380  0.81484174  1
  Se  Se205  1  0.08891850  0.08108436  0.30100141  1
  Se  Se206  1  0.08619383  0.09309147  0.81238832  1
  Se  Se207  1  0.08621212  0.41577567  0.29962747  1
  Se  Se208  1  0.08048295  0.41756523  0.81991843  1
  Se  Se209  1  0.07771441  0.74667221  0.30378674  1
  Se  Se210  1  0.08934351  0.76150073  0.79119428  1
  Se  Se211  1  0.42909108  0.09552133  0.30632589  1
  Se  Se212  1  0.41208546  0.07745229  0.80535663  1
  Se  Se213  1  0.42449850  0.42638282  0.30977975  1
  Se  Se214  1  0.41444400  0.41502996  0.79490230  1
  Se  Se215  1  0.40950222  0.74884913  0.30232712  1
  Se  Se216  1  0.42732037  0.75278441  0.80521909  1
  Se  Se217  1  0.76065720  0.08726754  0.30324526  1
  Se  Se218  1  0.73993215  0.07872729  0.80302003  1
  Se  Se219  1  0.75207600  0.41641134  0.29930294  1
  Se  Se220  1  0.75160840  0.41854376  0.80497516  1
  Se  Se221  1  0.74450236  0.74840896  0.30318649  1
  Se  Se222  1  0.75463436  0.75598829  0.81227722  1
  Se  Se223  1  0.25439782  0.08785713  0.19125030  1
  Se  Se224  1  0.24985494  0.07972351  0.69637841  1
  Se  Se225  1  0.24444023  0.42622437  0.18638490  1
  Se  Se226  1  0.22607830  0.42736348  0.70700425  1
  Se  Se227  1  0.24727467  0.74904511  0.19702865  1
  Se  Se228  1  0.27935254  0.71769382  0.69622775  1
  Se  Se229  1  0.58917937  0.07030144  0.19880368  1
  Se  Se230  1  0.57987097  0.08147004  0.69788059  1
  Se  Se231  1  0.58483178  0.41545719  0.19265006  1
  Se  Se232  1  0.58578186  0.41545844  0.70633158  1
  Se  Se233  1  0.58046670  0.74939762  0.19634880  1
  Se  Se234  1  0.58167822  0.76195549  0.68794529  1
  Se  Se235  1  0.92315596  0.08266573  0.19674227  1
  Se  Se236  1  0.90494341  0.09150974  0.69546123  1
  Se  Se237  1  0.91953316  0.41810763  0.19362783  1
  Se  Se238  1  0.90788313  0.42273383  0.68605708  1
  Se  Se239  1  0.91833371  0.74764260  0.19773254  1
  Se  Se240  1  0.91740315  0.74780313  0.69524436  1
  Se  Se241  1  0.09002879  0.25270082  0.19725631  1
  Se  Se242  1  0.08392377  0.23970557  0.69057644  1
  Se  Se243  1  0.07957558  0.58817251  0.19349468  1
  Se  Se244  1  0.08092929  0.57891357  0.71186103  1
  Se  Se245  1  0.08566026  0.92119965  0.19624993  1
  Se  Se246  1  0.08360644  0.91701269  0.68376954  1
  Se  Se247  1  0.42871072  0.23954350  0.19232827  1
  Se  Se248  1  0.41049781  0.24716004  0.69772037  1
  Se  Se249  1  0.41201987  0.58704968  0.19428745  1
  Se  Se250  1  0.45126400  0.55950075  0.69272137  1
  Se  Se251  1  0.41964658  0.91027944  0.18796392  1
  Se  Se252  1  0.41389534  0.92022225  0.70011883  1
  Se  Se253  1  0.75383755  0.24850629  0.19318585  1
  Se  Se254  1  0.73697045  0.25803786  0.69850101  1
  Se  Se255  1  0.74820090  0.58318341  0.19556126  1
  Se  Se256  1  0.75684716  0.57986982  0.68867122  1
  Se  Se257  1  0.74934015  0.91644584  0.19897757  1
  Se  Se258  1  0.75139342  0.91780885  0.69827755  1
