# generated using pymatgen
data_In86Cu29Se144
_symmetry_space_group_name_H-M   'P 1'
_cell_length_a   17.58359865
_cell_length_b   17.58160467
_cell_length_c   23.44429853
_cell_angle_alpha   90.02509537
_cell_angle_beta   89.99423378
_cell_angle_gamma   89.99517795
_symmetry_Int_Tables_number   1
_chemical_formula_structural   In86Cu29Se144
_chemical_formula_sum   'In86 Cu29 Se144'
_cell_volume   7247.75443813
_cell_formula_units_Z   1
loop_
 _symmetry_equiv_pos_site_id
 _symmetry_equiv_pos_as_xyz
  1  'x, y, z'
loop_
 _atom_site_type_symbol
 _atom_site_label
 _atom_site_symmetry_multiplicity
 _atom_site_fract_x
 _atom_site_fract_y
 _atom_site_fract_z
 _atom_site_occupancy
  In  In0  1  -0.00893747  0.16382175  0.12017500  1
  In  In1  1  -0.02080731  0.17999539  0.63503836  1
  In  In2  1  0.01010305  0.50098229  0.11825658  1
  In  In3  1  -0.01723623  0.50115344  0.62461658  1
  In  In4  1  -0.02241624  0.81787675  0.12335105  1
  In  In5  1  0.00735083  0.84340886  0.62337225  1
  In  In6  1  0.32962097  0.16787536  0.13446806  1
  In  In7  1  0.32606381  0.16648212  0.62265256  1
  In  In8  1  0.33815032  0.50676022  0.12528340  1
  In  In9  1  0.35231256  0.50495313  0.62085737  1
  In  In10  1  0.34124212  0.81997258  0.13540468  1
  In  In11  1  0.32135233  0.81663219  0.61792656  1
  In  In12  1  0.67643319  0.15996245  0.12030258  1
  In  In13  1  0.68355343  0.15560988  0.63470805  1
  In  In14  1  0.66017525  0.50590067  0.10946714  1
  In  In15  1  0.66586013  0.50247092  0.63190914  1
  In  In16  1  0.67208191  0.82728407  0.11000049  1
  In  In17  1  0.66717336  0.82881209  0.62418426  1
  In  In18  1  0.16462043  -0.01351080  0.37608323  1
  In  In19  1  0.15728065  0.00387081  0.87048891  1
  In  In20  1  0.17027009  0.32648292  0.37501853  1
  In  In21  1  0.16234376  0.34813388  0.87571307  1
  In  In22  1  0.17554768  0.67485482  0.37064899  1
  In  In23  1  0.16023588  0.65410515  0.87262841  1
  In  In24  1  0.48647592  -0.00363864  0.37277800  1
  In  In25  1  0.50715989  -0.01933106  0.87627641  1
  In  In26  1  0.50474459  0.34937181  0.37347557  1
  In  In27  1  0.51725220  0.33764607  0.87173490  1
  In  In28  1  0.50043305  0.66956937  0.37920488  1
  In  In29  1  0.50509953  0.66999965  0.87772693  1
  In  In30  1  0.83388971  -0.00204897  0.38125232  1
  In  In31  1  0.83481404  0.00011920  0.87239585  1
  In  In32  1  0.83953629  0.33481768  0.38798577  1
  In  In33  1  0.83234027  0.33485767  0.87538165  1
  In  In34  1  0.83678743  0.66736604  0.37638087  1
  In  In35  1  0.81446907  0.68174249  0.89084224  1
  In  In36  1  -0.00762032  0.16541412  0.38040064  1
  In  In37  1  -0.02402813  0.14962555  0.86259829  1
  In  In38  1  -0.01696334  0.50436332  0.37738949  1
  In  In39  1  0.00032283  0.49671565  0.87643422  1
  In  In40  1  0.00482855  0.83317255  0.38129966  1
  In  In41  1  -0.01189829  0.83199178  0.87221467  1
  In  In42  1  0.32974150  0.16788562  0.36528035  1
  In  In43  1  0.32902542  0.16503867  0.87631528  1
  In  In44  1  0.35077972  0.51660022  0.35945853  1
  In  In45  1  0.32657959  0.51473194  0.88121293  1
  In  In46  1  0.33461596  0.83013854  0.37569797  1
  In  In47  1  0.35310773  0.83219394  0.87760053  1
  In  In48  1  0.67787535  0.16960530  0.37938920  1
  In  In49  1  0.68340249  0.17949527  0.86489806  1
  In  In50  1  0.66851884  0.50133873  0.38326997  1
  In  In51  1  0.66855581  0.50312136  0.87929872  1
  In  In52  1  0.67161629  0.82409346  0.38621260  1
  In  In53  1  0.66410042  0.83009646  0.86962757  1
  In  In54  1  0.16566597  0.00507918  0.12693203  1
  In  In55  1  0.15797579  -0.02119975  0.62611641  1
  In  In56  1  0.16654224  0.34662359  0.12518688  1
  In  In57  1  0.15716445  0.32623742  0.62585222  1
  In  In58  1  0.17665190  0.65638198  0.13224139  1
  In  In59  1  0.16792252  0.68825016  0.63134362  1
  In  In60  1  0.50141722  -0.01564323  0.12457378  1
  In  In61  1  0.51794411  -0.00535493  0.62837086  1
  In  In62  1  0.48745752  0.34228701  0.12929419  1
  In  In63  1  0.50333941  0.35063356  0.62450067  1
  In  In64  1  0.49750672  0.66083246  0.11376598  1
  In  In65  1  0.50073860  0.66643881  0.62690427  1
  In  In66  1  0.83680911  -0.00799864  0.11306123  1
  In  In67  1  0.83340252  -0.00315248  0.62550929  1
  In  In68  1  0.82972569  0.33281359  0.11927597  1
  In  In69  1  0.83488160  0.33521681  0.62812362  1
  In  In70  1  0.84125029  0.67244711  0.11697026  1
  In  In71  1  0.82273450  0.65598732  0.62187924  1
  In  In72  1  0.66591268  0.66559326  0.24973219  1
  In  In73  1  0.16365634  0.83058567  -0.00438255  1
  In  In74  1  0.33622551  -0.00700301  0.75318682  1
  In  In75  1  0.15639109  0.17240227  0.00569486  1
  In  In76  1  0.15903697  0.16233285  0.49658102  1
  In  In77  1  -0.00636036  0.66657379  0.75056002  1
  In  In78  1  0.16462363  0.50221090  0.50163563  1
  In  In79  1  0.66829266  -0.00458675  0.24450322  1
  In  In80  1  0.50706614  0.16991100  -0.00236519  1
  In  In81  1  0.33456089  0.33696753  0.74438792  1
  In  In82  1  0.00065143  -0.00483222  0.24735996  1
  In  In83  1  0.66403471  0.33698248  0.24174488  1
  In  In84  1  0.50800620  0.16449961  0.50130096  1
  In  In85  1  0.00170471  0.33588829  0.25626928  1
  Cu  Cu86  1  0.50334738  0.82657250  0.74926528  1
  Cu  Cu87  1  0.33779372  -0.01089181  0.50110918  1
  Cu  Cu88  1  0.67541115  -0.00009295  -0.00666926  1
  Cu  Cu89  1  0.83247042  0.16712869  0.74932419  1
  Cu  Cu90  1  -0.00417051  0.00267362  0.50411921  1
  Cu  Cu91  1  0.50218939  0.50631283  0.75252992  1
  Cu  Cu92  1  0.66992497  0.33692308  -0.00448999  1
  Cu  Cu93  1  0.33770495  0.34152041  0.49262451  1
  Cu  Cu94  1  0.33353890  -0.00284735  0.00427304  1
  Cu  Cu95  1  0.33618207  0.66688979  0.49477131  1
  Cu  Cu96  1  0.16511460  0.50077791  0.75204901  1
  Cu  Cu97  1  0.82818046  0.83346162  0.74941168  1
  Cu  Cu98  1  0.16710800  0.83212144  0.25398746  1
  Cu  Cu99  1  0.49783763  0.83004399  0.25141958  1
  Cu  Cu100  1  -0.00453515  0.33098695  -0.00382896  1
  Cu  Cu101  1  0.16913669  0.16671718  0.24846620  1
  Cu  Cu102  1  0.82826307  0.50107221  0.75386374  1
  Cu  Cu103  1  0.66465664  0.66238525  0.50493193  1
  Cu  Cu104  1  0.50772484  0.16534933  0.75034493  1
  Cu  Cu105  1  0.67259549  0.33641776  0.50685303  1
  Cu  Cu106  1  -0.00291121  0.67226482  0.50387867  1
  Cu  Cu107  1  0.83116270  0.50253725  0.25146193  1
  Cu  Cu108  1  0.49605096  0.16883995  0.25170543  1
  Cu  Cu109  1  0.67151631  -0.00658867  0.50550944  1
  Cu  Cu110  1  0.33808516  0.34661970  -0.00001028  1
  Cu  Cu111  1  0.33742919  0.66590643  0.00554235  1
  Cu  Cu112  1  0.00268988  0.65828492  -0.00104747  1
  Cu  Cu113  1  0.15776673  0.16558029  0.74794853  1
  Cu  Cu114  1  0.16888527  0.50392992  0.24456238  1
  Se  Se115  1  0.06972710  0.06828161  0.05420568  1
  Se  Se116  1  0.07558521  0.08160687  0.56680053  1
  Se  Se117  1  0.08379739  0.41076848  0.04844385  1
  Se  Se118  1  0.07304518  0.41137586  0.55836254  1
  Se  Se119  1  0.08288844  0.73868174  0.06081463  1
  Se  Se120  1  0.08459907  0.75333037  0.55454751  1
  Se  Se121  1  0.41269300  0.08397606  0.06004994  1
  Se  Se122  1  0.41276202  0.07452975  0.56087238  1
  Se  Se123  1  0.42288812  0.42625914  0.05321386  1
  Se  Se124  1  0.42267042  0.41945105  0.54752619  1
  Se  Se125  1  0.41692407  0.75786685  0.05307263  1
  Se  Se126  1  0.41870000  0.74669396  0.55374227  1
  Se  Se127  1  0.75600073  0.08352519  0.04858090  1
  Se  Se128  1  0.75293238  0.08247780  0.55436183  1
  Se  Se129  1  0.75197091  0.41884006  0.05142901  1
  Se  Se130  1  0.75079862  0.42254695  0.56190875  1
  Se  Se131  1  0.75069569  0.73939529  0.04576078  1
  Se  Se132  1  0.75053500  0.74847977  0.55358822  1
  Se  Se133  1  0.26036370  0.25887462  0.05712313  1
  Se  Se134  1  0.25601397  0.26095494  0.55096167  1
  Se  Se135  1  0.24959900  0.58193196  0.05389489  1
  Se  Se136  1  0.25511311  0.59261295  0.56114223  1
  Se  Se137  1  0.25340560  0.91567410  0.06235396  1
  Se  Se138  1  0.24777206  0.91363410  0.55374219  1
  Se  Se139  1  0.59072684  0.26133512  0.06263645  1
  Se  Se140  1  0.59226885  0.25273534  0.56604904  1
  Se  Se141  1  0.59749400  0.60474500  0.04424403  1
  Se  Se142  1  0.58167849  0.57934282  0.55904758  1
  Se  Se143  1  0.58993242  0.92268758  0.05042007  1
  Se  Se144  1  0.58271219  0.91076849  0.55249254  1
  Se  Se145  1  0.91401542  0.24920572  0.05214717  1
  Se  Se146  1  0.91073447  0.25068994  0.55581751  1
  Se  Se147  1  0.91786573  0.57694147  0.05297324  1
  Se  Se148  1  0.91315377  0.58441243  0.55049000  1
  Se  Se149  1  0.91834214  0.90594112  0.04887357  1
  Se  Se150  1  0.91498330  0.91411559  0.55486879  1
  Se  Se151  1  0.07089339  0.26320962  0.44515724  1
  Se  Se152  1  0.07453710  0.25134090  0.93361622  1
  Se  Se153  1  0.07777186  0.59390579  0.44039317  1
  Se  Se154  1  0.08694186  0.57513409  0.94716924  1
  Se  Se155  1  0.08232963  0.92023611  0.45190475  1
  Se  Se156  1  0.07259895  0.92399267  0.94141524  1
  Se  Se157  1  0.41471461  0.25042524  0.43895357  1
  Se  Se158  1  0.41090841  0.26037872  0.93893310  1
  Se  Se159  1  0.41861299  0.57976281  0.44542020  1
  Se  Se160  1  0.42052716  0.58566100  0.94723165  1
  Se  Se161  1  0.42164205  0.90931269  0.44665838  1
  Se  Se162  1  0.42050814  0.91762225  0.95257166  1
  Se  Se163  1  0.75148995  0.25044510  0.45199640  1
  Se  Se164  1  0.75256101  0.24904708  0.94690072  1
  Se  Se165  1  0.75174318  0.58767536  0.44636162  1
  Se  Se166  1  0.75039196  0.57962067  0.95234939  1
  Se  Se167  1  0.75489113  0.91228672  0.44964755  1
  Se  Se168  1  0.75133069  0.91261747  0.93786751  1
  Se  Se169  1  0.26030621  0.07563094  0.44232423  1
  Se  Se170  1  0.25118042  0.07639394  0.94672195  1
  Se  Se171  1  0.25600984  0.42110589  0.43514027  1
  Se  Se172  1  0.24878818  0.42123812  0.94581223  1
  Se  Se173  1  0.24926666  0.75206558  0.44726117  1
  Se  Se174  1  0.25751463  0.74042104  0.93909124  1
  Se  Se175  1  0.59260119  0.07003326  0.43928753  1
  Se  Se176  1  0.59323773  0.08204552  0.93420298  1
  Se  Se177  1  0.58736213  0.41482027  0.45056313  1
  Se  Se178  1  0.58122586  0.41977375  0.94851851  1
  Se  Se179  1  0.58165603  0.74740112  0.45163697  1
  Se  Se180  1  0.56729779  0.77318070  0.94164296  1
  Se  Se181  1  0.91282029  0.08479820  0.45003390  1
  Se  Se182  1  0.91001391  0.08469053  0.94548273  1
  Se  Se183  1  0.91519211  0.42468618  0.45255043  1
  Se  Se184  1  0.91382530  0.41823144  0.94528399  1
  Se  Se185  1  0.91481757  0.75325318  0.44659238  1
  Se  Se186  1  0.92320745  0.74767648  0.94834904  1
  Se  Se187  1  0.24957559  0.25561789  0.29871734  1
  Se  Se188  1  0.24289572  0.24544098  0.80582227  1
  Se  Se189  1  0.25013288  0.58845429  0.29983692  1
  Se  Se190  1  0.25058707  0.58423356  0.80129284  1
  Se  Se191  1  0.25191559  0.91555870  0.30568720  1
  Se  Se192  1  0.24697935  0.90734495  0.81562068  1
  Se  Se193  1  0.58160351  0.24322224  0.30984467  1
  Se  Se194  1  0.58886377  0.25410509  0.79920088  1
  Se  Se195  1  0.57866621  0.57405983  0.30986408  1
  Se  Se196  1  0.58658613  0.58541518  0.80852742  1
  Se  Se197  1  0.58195645  0.90805479  0.31079079  1
  Se  Se198  1  0.58574119  0.91653021  0.79706022  1
  Se  Se199  1  0.90613384  0.24440335  0.30861826  1
  Se  Se200  1  0.91420127  0.25554438  0.80163668  1
  Se  Se201  1  0.91533168  0.58713875  0.30176000  1
  Se  Se202  1  0.90509867  0.58403596  0.81550145  1
  Se  Se203  1  0.91110584  0.90998382  0.30915597  1
  Se  Se204  1  0.91457577  0.91581295  0.80003992  1
  Se  Se205  1  0.08832931  0.09017539  0.31033739  1
  Se  Se206  1  0.07603975  0.07948100  0.79881070  1
  Se  Se207  1  0.09191826  0.42999204  0.31267123  1
  Se  Se208  1  0.07912705  0.41800106  0.80080437  1
  Se  Se209  1  0.08074126  0.75217558  0.30728753  1
  Se  Se210  1  0.08817638  0.75490947  0.80838467  1
  Se  Se211  1  0.41350475  0.08090996  0.30093981  1
  Se  Se212  1  0.42663274  0.08897979  0.81191810  1
  Se  Se213  1  0.41261250  0.40783656  0.30185733  1
  Se  Se214  1  0.41863371  0.42351564  0.81089145  1
  Se  Se215  1  0.41767019  0.74628445  0.30675206  1
  Se  Se216  1  0.41874728  0.74606924  0.80334481  1
  Se  Se217  1  0.75667132  0.08557533  0.30620017  1
  Se  Se218  1  0.75007754  0.07972895  0.80078778  1
  Se  Se219  1  0.75532175  0.41793398  0.31035702  1
  Se  Se220  1  0.74579402  0.41659579  0.80817638  1
  Se  Se221  1  0.75512223  0.75904900  0.30650344  1
  Se  Se222  1  0.75066533  0.74567074  0.80316646  1
  Se  Se223  1  0.25014080  0.07733445  0.19918540  1
  Se  Se224  1  0.24304026  0.08465572  0.69263598  1
  Se  Se225  1  0.25347941  0.42008295  0.19372386  1
  Se  Se226  1  0.24372729  0.42686775  0.68415247  1
  Se  Se227  1  0.25007865  0.74613120  0.20153747  1
  Se  Se228  1  0.25585666  0.75329122  0.70354552  1
  Se  Se229  1  0.57459915  0.09161685  0.18866430  1
  Se  Se230  1  0.59011801  0.07924165  0.69995091  1
  Se  Se231  1  0.57645705  0.43486339  0.19035148  1
  Se  Se232  1  0.58306302  0.41756177  0.70186248  1
  Se  Se233  1  0.58077845  0.75831496  0.18769226  1
  Se  Se234  1  0.58823726  0.74467064  0.69554115  1
  Se  Se235  1  0.90598239  0.08430429  0.19116291  1
  Se  Se236  1  0.91451927  0.07815218  0.69824333  1
  Se  Se237  1  0.91201331  0.42041076  0.19145927  1
  Se  Se238  1  0.91445175  0.41993578  0.70085196  1
  Se  Se239  1  0.91182893  0.73862231  0.20020330  1
  Se  Se240  1  0.90828953  0.75453645  0.68635214  1
  Se  Se241  1  0.08592043  0.24364193  0.18876905  1
  Se  Se242  1  0.07639586  0.25453964  0.69961503  1
  Se  Se243  1  0.07775907  0.58283539  0.19543618  1
  Se  Se244  1  0.08667967  0.57955496  0.68743141  1
  Se  Se245  1  0.08706622  0.90237353  0.18672409  1
  Se  Se246  1  0.08225253  0.91084447  0.70399073  1
  Se  Se247  1  0.41455168  0.25345947  0.19841690  1
  Se  Se248  1  0.42582308  0.24060584  0.68796935  1
  Se  Se249  1  0.41864234  0.59409794  0.19124494  1
  Se  Se250  1  0.41594220  0.58599295  0.69890566  1
  Se  Se251  1  0.41620990  0.91761696  0.19935652  1
  Se  Se252  1  0.42222114  0.90732321  0.68779512  1
  Se  Se253  1  0.75910756  0.24046194  0.19418828  1
  Se  Se254  1  0.75007712  0.25536829  0.69891531  1
  Se  Se255  1  0.75177419  0.57512207  0.18679587  1
  Se  Se256  1  0.74698151  0.58742020  0.70166729  1
  Se  Se257  1  0.75698859  0.90505865  0.18616429  1
  Se  Se258  1  0.74641811  0.91614945  0.69311941  1
