# generated using pymatgen
data_In86Cu29Se144
_symmetry_space_group_name_H-M   'P 1'
_cell_length_a   17.58592320
_cell_length_b   17.58521123
_cell_length_c   23.44028896
_cell_angle_alpha   89.96988154
_cell_angle_beta   90.00095437
_cell_angle_gamma   90.00679560
_symmetry_Int_Tables_number   1
_chemical_formula_structural   In86Cu29Se144
_chemical_formula_sum   'In86 Cu29 Se144'
_cell_volume   7248.95927068
_cell_formula_units_Z   1
loop_
 _symmetry_equiv_pos_site_id
 _symmetry_equiv_pos_as_xyz
  1  'x, y, z'
loop_
 _atom_site_type_symbol
 _atom_site_label
 _atom_site_symmetry_multiplicity
 _atom_site_fract_x
 _atom_site_fract_y
 _atom_site_fract_z
 _atom_site_occupancy
  In  In0  1  0.01515191  0.15865586  0.12567030  1
  In  In1  1  -0.01486880  0.16407567  0.62589762  1
  In  In2  1  0.02489690  0.48281125  0.15254419  1
  In  In3  1  0.01109873  0.49190392  0.62010315  1
  In  In4  1  -0.00646210  0.82621090  0.12264735  1
  In  In5  1  0.00486406  0.83826279  0.62060493  1
  In  In6  1  0.33248340  0.16677906  0.12252536  1
  In  In7  1  0.34417259  0.17688896  0.62842041  1
  In  In8  1  0.32674895  0.48641797  0.11682434  1
  In  In9  1  0.33291002  0.49811028  0.62020367  1
  In  In10  1  0.34524757  0.84860435  0.12487175  1
  In  In11  1  0.33164156  0.82491376  0.61531547  1
  In  In12  1  0.66080286  0.18193845  0.12365106  1
  In  In13  1  0.67880705  0.16269500  0.62436067  1
  In  In14  1  0.65952603  0.51725569  0.12975909  1
  In  In15  1  0.64863776  0.51257229  0.63127771  1
  In  In16  1  0.65535975  0.81251448  0.12163733  1
  In  In17  1  0.65710555  0.82475885  0.60319794  1
  In  In18  1  0.16827458  -0.01348287  0.37176625  1
  In  In19  1  0.16073595  0.00345135  0.87768033  1
  In  In20  1  0.18088618  0.34964889  0.35592073  1
  In  In21  1  0.18276945  0.32137710  0.89608628  1
  In  In22  1  0.16451889  0.67194306  0.37390615  1
  In  In23  1  0.17925931  0.65512687  0.89033994  1
  In  In24  1  0.48722167  -0.00504707  0.37100115  1
  In  In25  1  0.49895001  0.00180777  0.88413646  1
  In  In26  1  0.49422579  0.34777871  0.36812573  1
  In  In27  1  0.49994156  0.33451435  0.87498905  1
  In  In28  1  0.50710795  0.66078698  0.37321593  1
  In  In29  1  0.50441921  0.66272453  0.88013978  1
  In  In30  1  0.82668950  0.00061179  0.38755203  1
  In  In31  1  0.83191443  -0.01772526  0.87269401  1
  In  In32  1  0.83589282  0.32542050  0.37370452  1
  In  In33  1  0.83118194  0.34751301  0.87225659  1
  In  In34  1  0.83546772  0.67348723  0.37627383  1
  In  In35  1  0.82926418  0.68073711  0.87318956  1
  In  In36  1  -0.01238885  0.17391545  0.37076844  1
  In  In37  1  0.01580830  0.16694186  0.87608052  1
  In  In38  1  0.01340760  0.51204713  0.36209512  1
  In  In39  1  0.00478312  0.50476821  0.87868376  1
  In  In40  1  0.00475800  0.83046668  0.37899590  1
  In  In41  1  -0.00825953  0.83212305  0.87977466  1
  In  In42  1  0.33910497  0.17055485  0.36111949  1
  In  In43  1  0.32775586  0.17925971  0.88413532  1
  In  In44  1  0.33897734  0.49573662  0.36948328  1
  In  In45  1  0.35912939  0.47206717  0.90877229  1
  In  In46  1  0.32922197  0.83164943  0.37461490  1
  In  In47  1  0.33648877  0.82715156  0.88794721  1
  In  In48  1  0.67663866  0.17171664  0.37983476  1
  In  In49  1  0.65148736  0.17085400  0.87975727  1
  In  In50  1  0.64457759  0.51626116  0.38043375  1
  In  In51  1  0.65611401  0.49341719  0.86388703  1
  In  In52  1  0.66821428  0.82703507  0.38802389  1
  In  In53  1  0.67237191  0.83257318  0.87824728  1
  In  In54  1  0.17596782  0.01172072  0.11753218  1
  In  In55  1  0.16737941  -0.01820577  0.62856381  1
  In  In56  1  0.17857287  0.33010014  0.12351237  1
  In  In57  1  0.16918885  0.34721626  0.62313583  1
  In  In58  1  0.15646872  0.65874533  0.12557944  1
  In  In59  1  0.16684266  0.66399061  0.61603767  1
  In  In60  1  0.49079471  -0.01346611  0.12324994  1
  In  In61  1  0.51243110  -0.00615933  0.62131137  1
  In  In62  1  0.48200787  0.32926079  0.10865264  1
  In  In63  1  0.48920336  0.34474232  0.63141840  1
  In  In64  1  0.50621304  0.67441349  0.12373814  1
  In  In65  1  0.51419962  0.67057126  0.60881393  1
  In  In66  1  0.84640368  -0.00868240  0.12709146  1
  In  In67  1  0.83273935  0.00793614  0.61637255  1
  In  In68  1  0.82954542  0.34732973  0.13189639  1
  In  In69  1  0.83305713  0.31691449  0.62068554  1
  In  In70  1  0.83234901  0.67075420  0.13327176  1
  In  In71  1  0.81315515  0.66621964  0.61945479  1
  In  In72  1  0.67008677  0.00004045  0.74433752  1
  In  In73  1  -0.00166993  0.33238917  0.74856170  1
  In  In74  1  0.83475086  0.16255017  0.00339471  1
  In  In75  1  0.83374626  0.49883946  0.49959585  1
  In  In76  1  0.33508181  0.66035741  0.75442614  1
  In  In77  1  0.83577963  0.51271893  0.00684821  1
  In  In78  1  0.00495623  0.00177130  0.25085776  1
  In  In79  1  -0.00245873  0.66618425  0.75254720  1
  In  In80  1  0.66825349  -0.00342611  0.25967669  1
  In  In81  1  0.32909753  0.00430121  0.75307245  1
  In  In82  1  0.50788646  0.16206627  0.50209755  1
  In  In83  1  0.66533554  0.34066811  0.25250633  1
  In  In84  1  0.16283562  0.16480283  0.49433358  1
  In  In85  1  0.33284838  0.65925376  0.24348792  1
  Cu  Cu86  1  0.00140785  -0.00870211  0.00026415  1
  Cu  Cu87  1  0.33202225  0.66229612  0.49238575  1
  Cu  Cu88  1  0.83045220  0.50761993  0.25609389  1
  Cu  Cu89  1  0.66732675  -0.00531103  0.00228148  1
  Cu  Cu90  1  0.49819937  0.18210406  0.75482484  1
  Cu  Cu91  1  0.00644747  0.33394716  0.01066776  1
  Cu  Cu92  1  0.00712154  0.33674389  0.49742156  1
  Cu  Cu93  1  0.32996430  -0.00713901  0.49719724  1
  Cu  Cu94  1  0.16041775  0.83020011  0.75223241  1
  Cu  Cu95  1  0.82146941  0.50049620  0.74436638  1
  Cu  Cu96  1  0.33576985  0.00081416  0.00135348  1
  Cu  Cu97  1  0.66649290  0.66886136  0.00059396  1
  Cu  Cu98  1  0.17070212  0.83468543  0.25005455  1
  Cu  Cu99  1  0.49639153  0.50287733  0.75559922  1
  Cu  Cu100  1  0.83034908  0.83298556  0.74792646  1
  Cu  Cu101  1  0.00191348  -0.00015859  0.49606970  1
  Cu  Cu102  1  0.00193689  0.66794870  0.49453653  1
  Cu  Cu103  1  0.66711772  0.33654491  0.49758339  1
  Cu  Cu104  1  0.17439014  0.49216824  0.75344972  1
  Cu  Cu105  1  0.33117957  0.67406600  0.01238652  1
  Cu  Cu106  1  0.50359826  0.83356410  0.74250804  1
  Cu  Cu107  1  0.50020379  0.16533128  0.24332492  1
  Cu  Cu108  1  0.33489370  0.33919840  0.49467783  1
  Cu  Cu109  1  0.82846565  0.83244083  0.25399854  1
  Cu  Cu110  1  0.17224039  0.17030723  0.24301622  1
  Cu  Cu111  1  0.83059676  0.16215663  0.74766158  1
  Cu  Cu112  1  -0.00092528  0.66524714  0.00803322  1
  Cu  Cu113  1  0.16581938  0.16880185  0.75791088  1
  Cu  Cu114  1  0.65680345  0.33959910  -0.00345211  1
  Se  Se115  1  0.08315436  0.08158210  0.04739791  1
  Se  Se116  1  0.08043765  0.07650553  0.56182508  1
  Se  Se117  1  0.08519732  0.42004993  0.06371689  1
  Se  Se118  1  0.09303061  0.42089768  0.54579738  1
  Se  Se119  1  0.08499523  0.75187651  0.05565029  1
  Se  Se120  1  0.08336144  0.75045400  0.55275632  1
  Se  Se121  1  0.41978321  0.08091839  0.05674092  1
  Se  Se122  1  0.40679296  0.07460942  0.55923719  1
  Se  Se123  1  0.40765648  0.41695548  0.03897451  1
  Se  Se124  1  0.41899477  0.41776975  0.55104384  1
  Se  Se125  1  0.42133747  0.75766152  0.05710674  1
  Se  Se126  1  0.41504251  0.74552789  0.54788979  1
  Se  Se127  1  0.74425543  0.07522769  0.06516218  1
  Se  Se128  1  0.74294552  0.08203969  0.54840399  1
  Se  Se129  1  0.73888244  0.41668499  0.05794012  1
  Se  Se130  1  0.74446248  0.41309958  0.56361375  1
  Se  Se131  1  0.75509744  0.74512969  0.05542530  1
  Se  Se132  1  0.76220759  0.75826966  0.54445754  1
  Se  Se133  1  0.24661410  0.24117823  0.05159554  1
  Se  Se134  1  0.25688274  0.25516436  0.55454338  1
  Se  Se135  1  0.24692185  0.58508823  0.05749925  1
  Se  Se136  1  0.25079717  0.58042718  0.55100037  1
  Se  Se137  1  0.25227049  0.91708977  0.05422174  1
  Se  Se138  1  0.24582369  0.91192944  0.55179809  1
  Se  Se139  1  0.57949801  0.24931545  0.04789248  1
  Se  Se140  1  0.58776456  0.25962384  0.56327642  1
  Se  Se141  1  0.58119847  0.58532182  0.05138451  1
  Se  Se142  1  0.58265176  0.57188725  0.54525545  1
  Se  Se143  1  0.58555335  0.91182895  0.05772901  1
  Se  Se144  1  0.57716887  0.91902414  0.54310561  1
  Se  Se145  1  0.91766935  0.25712902  0.06585487  1
  Se  Se146  1  0.92422458  0.25111406  0.54880590  1
  Se  Se147  1  0.93048357  0.58212577  0.07413814  1
  Se  Se148  1  0.92578949  0.59021079  0.56132754  1
  Se  Se149  1  0.91427982  0.91059265  0.05084316  1
  Se  Se150  1  0.91951868  0.92022631  0.55396453  1
  Se  Se151  1  0.08452833  0.25981587  0.43224347  1
  Se  Se152  1  0.08153398  0.24605893  0.95455395  1
  Se  Se153  1  0.08479172  0.58362917  0.44314334  1
  Se  Se154  1  0.07989357  0.58177710  0.95276909  1
  Se  Se155  1  0.08757852  0.91602053  0.44686605  1
  Se  Se156  1  0.08418463  0.91120543  0.94347984  1
  Se  Se157  1  0.41530767  0.25058635  0.44092584  1
  Se  Se158  1  0.42674586  0.24693960  0.94546044  1
  Se  Se159  1  0.41580942  0.58011141  0.43958101  1
  Se  Se160  1  0.41285067  0.59660127  0.95161007  1
  Se  Se161  1  0.41512188  0.91164577  0.44503428  1
  Se  Se162  1  0.42067371  0.91445202  0.95092196  1
  Se  Se163  1  0.75547345  0.25319425  0.45075806  1
  Se  Se164  1  0.74842259  0.26041095  0.94357139  1
  Se  Se165  1  0.74361853  0.59169880  0.44513501  1
  Se  Se166  1  0.74350692  0.58642679  0.93732536  1
  Se  Se167  1  0.75391853  0.91078132  0.45305961  1
  Se  Se168  1  0.75303522  0.91356489  0.94977579  1
  Se  Se169  1  0.26039738  0.08047916  0.43641482  1
  Se  Se170  1  0.25189591  0.07947932  0.94353394  1
  Se  Se171  1  0.24977796  0.41751150  0.43964656  1
  Se  Se172  1  0.22617300  0.44115821  0.94807520  1
  Se  Se173  1  0.24715588  0.75064076  0.44514740  1
  Se  Se174  1  0.24603736  0.75378011  0.95557575  1
  Se  Se175  1  0.58876334  0.07430069  0.43550675  1
  Se  Se176  1  0.58518144  0.08184804  0.95174350  1
  Se  Se177  1  0.57962506  0.41326453  0.44432329  1
  Se  Se178  1  0.57909115  0.42650937  0.94301661  1
  Se  Se179  1  0.57711899  0.74345100  0.44821425  1
  Se  Se180  1  0.58465270  0.75300641  0.94505942  1
  Se  Se181  1  0.92118794  0.08671341  0.44494995  1
  Se  Se182  1  0.92170476  0.07466614  0.93882705  1
  Se  Se183  1  0.92614947  0.41683174  0.43687359  1
  Se  Se184  1  0.92397429  0.41085251  0.94901611  1
  Se  Se185  1  0.91677271  0.75362362  0.44757264  1
  Se  Se186  1  0.91553968  0.74345459  0.94920551  1
  Se  Se187  1  0.25767869  0.25404385  0.29410130  1
  Se  Se188  1  0.24655042  0.25457151  0.80934045  1
  Se  Se189  1  0.24009861  0.57688911  0.30595212  1
  Se  Se190  1  0.25191937  0.56951205  0.81605626  1
  Se  Se191  1  0.25632691  0.91803510  0.30009602  1
  Se  Se192  1  0.24769764  0.90465624  0.81140886  1
  Se  Se193  1  0.57736657  0.24081759  0.31004629  1
  Se  Se194  1  0.58993925  0.25837063  0.80447639  1
  Se  Se195  1  0.57268094  0.57515763  0.29680510  1
  Se  Se196  1  0.58139210  0.59194989  0.80177443  1
  Se  Se197  1  0.57768119  0.90313081  0.31220097  1
  Se  Se198  1  0.57612597  0.91637319  0.80663300  1
  Se  Se199  1  0.91591645  0.25592513  0.29795923  1
  Se  Se200  1  0.90946086  0.24142303  0.81185209  1
  Se  Se201  1  0.91598919  0.59297421  0.30492227  1
  Se  Se202  1  0.90369328  0.57285129  0.80892411  1
  Se  Se203  1  0.91013544  0.91629983  0.31138761  1
  Se  Se204  1  0.91850762  0.91022505  0.80142911  1
  Se  Se205  1  0.09553789  0.09427585  0.31040632  1
  Se  Se206  1  0.08122092  0.07934126  0.80164198  1
  Se  Se207  1  0.06885520  0.40540638  0.29919849  1
  Se  Se208  1  0.08819349  0.41563282  0.81249707  1
  Se  Se209  1  0.08415831  0.75603750  0.30352956  1
  Se  Se210  1  0.09249709  0.74475260  0.81611608  1
  Se  Se211  1  0.41814732  0.08011131  0.29662381  1
  Se  Se212  1  0.42258894  0.09178992  0.81079676  1
  Se  Se213  1  0.40553493  0.40824881  0.29494987  1
  Se  Se214  1  0.41264054  0.42302380  0.81189210  1
  Se  Se215  1  0.41739626  0.74871825  0.30703571  1
  Se  Se216  1  0.42366790  0.76029369  0.80745513  1
  Se  Se217  1  0.76364986  0.09221176  0.30873596  1
  Se  Se218  1  0.75178917  0.08856058  0.81422343  1
  Se  Se219  1  0.74952515  0.42977161  0.31867816  1
  Se  Se220  1  0.74486798  0.41197008  0.79797255  1
  Se  Se221  1  0.74591299  0.75263074  0.30990534  1
  Se  Se222  1  0.74383595  0.75273460  0.80066695  1
  Se  Se223  1  0.25454469  0.08088163  0.19515553  1
  Se  Se224  1  0.24123700  0.09321477  0.68869903  1
  Se  Se225  1  0.24825241  0.41930469  0.19525416  1
  Se  Se226  1  0.25721161  0.41501120  0.69538903  1
  Se  Se227  1  0.24736624  0.75728342  0.18541701  1
  Se  Se228  1  0.24280811  0.75170448  0.69307222  1
  Se  Se229  1  0.58557721  0.08488370  0.18963174  1
  Se  Se230  1  0.57198295  0.09623646  0.69322333  1
  Se  Se231  1  0.57607014  0.41211673  0.18153275  1
  Se  Se232  1  0.57941026  0.41899734  0.70004447  1
  Se  Se233  1  0.59352110  0.73471058  0.20128643  1
  Se  Se234  1  0.58384925  0.75450766  0.68461795  1
  Se  Se235  1  0.91141386  0.09245119  0.19386074  1
  Se  Se236  1  0.91258139  0.07691796  0.69649649  1
  Se  Se237  1  0.91059110  0.41915699  0.20560289  1
  Se  Se238  1  0.90808539  0.42392135  0.68699353  1
  Se  Se239  1  0.91736546  0.75459265  0.20098420  1
  Se  Se240  1  0.90987716  0.75053389  0.68734780  1
  Se  Se241  1  0.08533323  0.25121382  0.19206658  1
  Se  Se242  1  0.09028407  0.24337865  0.68748004  1
  Se  Se243  1  0.07491746  0.60012852  0.20603955  1
  Se  Se244  1  0.09317444  0.57443807  0.69524333  1
  Se  Se245  1  0.09089460  0.91445951  0.18677598  1
  Se  Se246  1  0.07800164  0.91408505  0.70039642  1
  Se  Se247  1  0.41907130  0.25024629  0.19014518  1
  Se  Se248  1  0.40971594  0.26094652  0.70325729  1
  Se  Se249  1  0.42063198  0.57345956  0.18078097  1
  Se  Se250  1  0.42568193  0.58285076  0.68696071  1
  Se  Se251  1  0.42564714  0.91212829  0.20394660  1
  Se  Se252  1  0.41648250  0.91316690  0.68848938  1
  Se  Se253  1  0.75594882  0.24491281  0.19618091  1
  Se  Se254  1  0.74957559  0.24927472  0.69735875  1
  Se  Se255  1  0.74733006  0.58751024  0.20054925  1
  Se  Se256  1  0.74086382  0.59021982  0.69678695  1
  Se  Se257  1  0.75182773  0.90989174  0.19029093  1
  Se  Se258  1  0.75189874  0.90798648  0.68248291  1
