# generated using pymatgen
data_In86Cu29Se144
_symmetry_space_group_name_H-M   'P 1'
_cell_length_a   17.58110706
_cell_length_b   17.58218896
_cell_length_c   23.44437645
_cell_angle_alpha   89.96696431
_cell_angle_beta   90.00556829
_cell_angle_gamma   89.98869609
_symmetry_Int_Tables_number   1
_chemical_formula_structural   In86Cu29Se144
_chemical_formula_sum   'In86 Cu29 Se144'
_cell_volume   7246.99172436
_cell_formula_units_Z   1
loop_
 _symmetry_equiv_pos_site_id
 _symmetry_equiv_pos_as_xyz
  1  'x, y, z'
loop_
 _atom_site_type_symbol
 _atom_site_label
 _atom_site_symmetry_multiplicity
 _atom_site_fract_x
 _atom_site_fract_y
 _atom_site_fract_z
 _atom_site_occupancy
  In  In0  1  0.00846202  0.15175456  0.13186531  1
  In  In1  1  -0.01271435  0.14979578  0.60987355  1
  In  In2  1  0.01101239  0.50683475  0.11544133  1
  In  In3  1  0.01380483  0.50872257  0.62746288  1
  In  In4  1  0.02031642  0.82912943  0.14664674  1
  In  In5  1  0.00545844  0.83934919  0.62435811  1
  In  In6  1  0.33028095  0.15848766  0.12920652  1
  In  In7  1  0.31078590  0.14634439  0.59873411  1
  In  In8  1  0.33105471  0.49815135  0.13145486  1
  In  In9  1  0.33080326  0.49967568  0.62653352  1
  In  In10  1  0.30602552  0.85402855  0.14479346  1
  In  In11  1  0.33745249  0.84848777  0.61908276  1
  In  In12  1  0.66148980  0.17605706  0.12810347  1
  In  In13  1  0.65592967  0.15436240  0.61590494  1
  In  In14  1  0.64547579  0.47214182  0.10227275  1
  In  In15  1  0.66016449  0.49928560  0.62559114  1
  In  In16  1  0.66493385  0.84612819  0.13076958  1
  In  In17  1  0.68439830  0.83689761  0.62182744  1
  In  In18  1  0.16536104  -0.00028713  0.36407127  1
  In  In19  1  0.16916654  -0.00069774  0.87463272  1
  In  In20  1  0.17761484  0.32076794  0.37303572  1
  In  In21  1  0.17555657  0.32368855  0.89055803  1
  In  In22  1  0.18029939  0.68988580  0.35374783  1
  In  In23  1  0.15876013  0.67803827  0.88525725  1
  In  In24  1  0.51061199  0.01063364  0.36988182  1
  In  In25  1  0.50278354  0.01214317  0.87202317  1
  In  In26  1  0.47806788  0.30647200  0.35827993  1
  In  In27  1  0.50933587  0.32561733  0.89686702  1
  In  In28  1  0.47897680  0.67094093  0.37235522  1
  In  In29  1  0.48953085  0.66357530  0.88339953  1
  In  In30  1  0.83460444  0.00167630  0.38019710  1
  In  In31  1  0.83366786  -0.00106356  0.86965702  1
  In  In32  1  0.82112324  0.33125023  0.36770378  1
  In  In33  1  0.84638228  0.33652921  0.88115758  1
  In  In34  1  0.84940142  0.67333876  0.37033337  1
  In  In35  1  0.84220772  0.66339315  0.87901195  1
  In  In36  1  0.02087418  0.14174681  0.38052189  1
  In  In37  1  0.00891609  0.16338163  0.87705339  1
  In  In38  1  -0.00515580  0.51619722  0.36732454  1
  In  In39  1  -0.00522011  0.51468233  0.88314771  1
  In  In40  1  0.00256291  0.83423137  0.37369275  1
  In  In41  1  0.02512565  0.84598420  0.85828085  1
  In  In42  1  0.33543827  0.16801890  0.36883371  1
  In  In43  1  0.33738163  0.15981298  0.88041895  1
  In  In44  1  0.33357264  0.49769130  0.36652069  1
  In  In45  1  0.33870340  0.49497044  0.89312210  1
  In  In46  1  0.31233068  0.83555206  0.35701433  1
  In  In47  1  0.31503395  0.83642132  0.87756948  1
  In  In48  1  0.66330765  0.16598906  0.37518592  1
  In  In49  1  0.66366347  0.15405629  0.88268034  1
  In  In50  1  0.67613555  0.49178452  0.36600718  1
  In  In51  1  0.67431232  0.49320512  0.89505646  1
  In  In52  1  0.66449203  0.85087870  0.37754013  1
  In  In53  1  0.66219322  0.84826541  0.87652246  1
  In  In54  1  0.16478569  -0.00005433  0.12548446  1
  In  In55  1  0.16491814  -0.00327564  0.62026760  1
  In  In56  1  0.17184923  0.33432557  0.12694374  1
  In  In57  1  0.17594267  0.31849456  0.62227896  1
  In  In58  1  0.16985237  0.66722211  0.13188141  1
  In  In59  1  0.15479159  0.66540405  0.62786551  1
  In  In60  1  0.49931716  0.01124931  0.12398989  1
  In  In61  1  0.48693617  0.01078560  0.62882766  1
  In  In62  1  0.49917271  0.32262764  0.12273242  1
  In  In63  1  0.50931421  0.32799183  0.62505051  1
  In  In64  1  0.49066014  0.65245275  0.12433564  1
  In  In65  1  0.48733071  0.67359484  0.62544431  1
  In  In66  1  0.83279889  0.00077176  0.13204684  1
  In  In67  1  0.83827189  -0.00274867  0.62336565  1
  In  In68  1  0.81788233  0.33297557  0.12405850  1
  In  In69  1  0.84474479  0.32862465  0.62193040  1
  In  In70  1  0.84747545  0.66615672  0.12656979  1
  In  In71  1  0.84125249  0.68905454  0.61903808  1
  In  In72  1  0.33511170  0.32846767  0.74776729  1
  In  In73  1  0.83175896  0.17341617  0.00328717  1
  In  In74  1  0.67220558  0.67584025  0.75475275  1
  In  In75  1  0.84247947  0.83671792  -0.00229220  1
  In  In76  1  0.49480333  0.83933175  0.49756202  1
  In  In77  1  0.83201413  0.49557601  0.49422066  1
  In  In78  1  0.00225076  0.32510658  0.24632654  1
  In  In79  1  0.67285205  0.32392444  0.76610337  1
  In  In80  1  0.00519896  0.33136095  0.75517633  1
  In  In81  1  0.49206595  0.82877233  0.00882121  1
  In  In82  1  0.49532423  0.49069613  0.48695509  1
  In  In83  1  0.32522279  0.67423386  0.75289544  1
  In  In84  1  0.16502266  0.49701399  0.49652680  1
  In  In85  1  0.66767330  0.66016282  0.24396668  1
  Cu  Cu86  1  0.00196083  0.67765096  0.49808348  1
  Cu  Cu87  1  0.67199650  0.00171909  0.50009420  1
  Cu  Cu88  1  0.32883347  -0.00144918  0.00383514  1
  Cu  Cu89  1  0.00431360  -0.00681230  0.00461445  1
  Cu  Cu90  1  0.01131390  0.67440037  0.00394314  1
  Cu  Cu91  1  0.50412958  0.16641481  0.24546556  1
  Cu  Cu92  1  0.50461942  0.49447154  0.24340061  1
  Cu  Cu93  1  0.66330575  0.66757966  0.49999846  1
  Cu  Cu94  1  -0.00048112  0.32318219  0.49434769  1
  Cu  Cu95  1  0.83968235  0.51484205  0.75184787  1
  Cu  Cu96  1  0.50195662  0.49712846  0.76475835  1
  Cu  Cu97  1  0.50311652  0.84379002  0.75100129  1
  Cu  Cu98  1  0.16010503  0.49986953  0.24612134  1
  Cu  Cu99  1  0.32915444  0.66443312  0.00961489  1
  Cu  Cu100  1  0.84340169  0.84006551  0.74529223  1
  Cu  Cu101  1  0.82470797  0.15909177  0.74474779  1
  Cu  Cu102  1  0.00328014  0.33264714  0.00377804  1
  Cu  Cu103  1  0.66188308  0.32028028  0.49445970  1
  Cu  Cu104  1  0.33112486  0.33131019  0.01202871  1
  Cu  Cu105  1  0.00612651  -0.00638782  0.49784491  1
  Cu  Cu106  1  0.32873918  -0.00024623  0.48870321  1
  Cu  Cu107  1  0.49898474  0.83566202  0.25415913  1
  Cu  Cu108  1  0.83254595  0.16571442  0.25700264  1
  Cu  Cu109  1  0.82632486  0.49607172  0.23897335  1
  Cu  Cu110  1  0.16411994  0.15777326  0.74445480  1
  Cu  Cu111  1  0.67486474  0.67117625  0.00372379  1
  Cu  Cu112  1  0.16315102  0.50453072  0.76179616  1
  Cu  Cu113  1  0.83115476  0.83945174  0.25305600  1
  Cu  Cu114  1  0.48940976  0.15672856  0.74672953  1
  Se  Se115  1  0.08549103  0.08361303  0.05277466  1
  Se  Se116  1  0.08842591  0.08339764  0.54784503  1
  Se  Se117  1  0.09034651  0.41361114  0.05463150  1
  Se  Se118  1  0.07380104  0.40438433  0.55900567  1
  Se  Se119  1  0.08702852  0.75578736  0.06417624  1
  Se  Se120  1  0.08707148  0.75303173  0.55476574  1
  Se  Se121  1  0.41336918  0.08443175  0.05276041  1
  Se  Se122  1  0.41860221  0.07579702  0.54348531  1
  Se  Se123  1  0.41472210  0.41660133  0.06189641  1
  Se  Se124  1  0.41250367  0.41008129  0.56079859  1
  Se  Se125  1  0.39923160  0.75047620  0.07243207  1
  Se  Se126  1  0.40170961  0.74271304  0.55086427  1
  Se  Se127  1  0.74640064  0.07987862  0.06101677  1
  Se  Se128  1  0.75583396  0.08366259  0.55455530  1
  Se  Se129  1  0.76228028  0.42195375  0.04768109  1
  Se  Se130  1  0.73752365  0.40655779  0.55608379  1
  Se  Se131  1  0.74899999  0.75390375  0.06390514  1
  Se  Se132  1  0.75096519  0.75274989  0.54587638  1
  Se  Se133  1  0.24718833  0.24323946  0.05972496  1
  Se  Se134  1  0.25939940  0.26218001  0.54438224  1
  Se  Se135  1  0.24661180  0.58002389  0.06165910  1
  Se  Se136  1  0.25210917  0.58943260  0.55975363  1
  Se  Se137  1  0.24501410  0.91376584  0.05512266  1
  Se  Se138  1  0.25016792  0.91876799  0.54761202  1
  Se  Se139  1  0.59304969  0.25636538  0.05229546  1
  Se  Se140  1  0.57577458  0.24339446  0.54984789  1
  Se  Se141  1  0.58557658  0.59102609  0.05379475  1
  Se  Se142  1  0.57967509  0.58893130  0.55638341  1
  Se  Se143  1  0.58926157  0.92398209  0.05387159  1
  Se  Se144  1  0.58722321  0.92268011  0.56107664  1
  Se  Se145  1  0.92705221  0.25384200  0.06719312  1
  Se  Se146  1  0.91054792  0.24597969  0.54636832  1
  Se  Se147  1  0.92162128  0.58960382  0.05017178  1
  Se  Se148  1  0.92322713  0.58707187  0.55520772  1
  Se  Se149  1  0.92708559  0.91652047  0.06743733  1
  Se  Se150  1  0.91892360  0.91512406  0.55267124  1
  Se  Se151  1  0.08870112  0.24648757  0.44182115  1
  Se  Se152  1  0.08161798  0.24338004  0.95177704  1
  Se  Se153  1  0.07920338  0.59243053  0.43968225  1
  Se  Se154  1  0.08944341  0.58193381  0.95230118  1
  Se  Se155  1  0.08941303  0.91695362  0.43923202  1
  Se  Se156  1  0.08536090  0.91512463  0.94460684  1
  Se  Se157  1  0.41662813  0.24417105  0.44407486  1
  Se  Se158  1  0.40874082  0.24846776  0.95216935  1
  Se  Se159  1  0.39807015  0.59067842  0.44472044  1
  Se  Se160  1  0.41892781  0.58418142  0.95900503  1
  Se  Se161  1  0.41040686  0.92015072  0.42842059  1
  Se  Se162  1  0.41134286  0.91953615  0.94167338  1
  Se  Se163  1  0.75420650  0.24627630  0.44274755  1
  Se  Se164  1  0.74261507  0.26145272  0.93972511  1
  Se  Se165  1  0.74378425  0.59083788  0.43607885  1
  Se  Se166  1  0.75935298  0.58906959  0.95106295  1
  Se  Se167  1  0.75385284  0.91473499  0.45052224  1
  Se  Se168  1  0.74513920  0.93043328  0.94772368  1
  Se  Se169  1  0.24716512  0.08330970  0.43440127  1
  Se  Se170  1  0.24714965  0.08233215  0.94710995  1
  Se  Se171  1  0.26117739  0.41007066  0.44200162  1
  Se  Se172  1  0.24850846  0.41571097  0.95696563  1
  Se  Se173  1  0.24422169  0.75914341  0.43656678  1
  Se  Se174  1  0.25204086  0.74954147  0.95306570  1
  Se  Se175  1  0.58515495  0.08292835  0.44850094  1
  Se  Se176  1  0.57105983  0.08815384  0.95092235  1
  Se  Se177  1  0.59025518  0.40401801  0.43125825  1
  Se  Se178  1  0.57205841  0.43076235  0.95636613  1
  Se  Se179  1  0.58374800  0.74370807  0.43669215  1
  Se  Se180  1  0.59176810  0.74592474  0.94338556  1
  Se  Se181  1  0.92098372  0.08190138  0.44902340  1
  Se  Se182  1  0.92114619  0.07463979  0.94602891  1
  Se  Se183  1  0.92565403  0.40958031  0.43381758  1
  Se  Se184  1  0.92293596  0.41931498  0.95067957  1
  Se  Se185  1  0.91375831  0.75652367  0.44644828  1
  Se  Se186  1  0.93621911  0.75274656  0.93815262  1
  Se  Se187  1  0.25904759  0.25550089  0.29784136  1
  Se  Se188  1  0.24033700  0.24137137  0.80683712  1
  Se  Se189  1  0.24781316  0.57949436  0.29987735  1
  Se  Se190  1  0.25295763  0.57617034  0.81924705  1
  Se  Se191  1  0.25993737  0.93977487  0.28850708  1
  Se  Se192  1  0.24290134  0.91245821  0.80301407  1
  Se  Se193  1  0.58934238  0.24911104  0.30010497  1
  Se  Se194  1  0.56591432  0.23823764  0.81144833  1
  Se  Se195  1  0.57367947  0.57854921  0.31037057  1
  Se  Se196  1  0.58596913  0.58141936  0.81742317  1
  Se  Se197  1  0.58621258  0.92009016  0.30060956  1
  Se  Se198  1  0.58634793  0.92664051  0.80355525  1
  Se  Se199  1  0.91994868  0.24070815  0.31543606  1
  Se  Se200  1  0.90615211  0.23848316  0.80671937  1
  Se  Se201  1  0.90456564  0.58076380  0.29449241  1
  Se  Se202  1  0.92602597  0.59374505  0.80388977  1
  Se  Se203  1  0.91358320  0.91840217  0.30918719  1
  Se  Se204  1  0.92289705  0.92370754  0.80227420  1
  Se  Se205  1  0.07028938  0.06840236  0.29308879  1
  Se  Se206  1  0.08198121  0.08138806  0.80430285  1
  Se  Se207  1  0.08517329  0.42074928  0.31111320  1
  Se  Se208  1  0.09084858  0.41684088  0.82095492  1
  Se  Se209  1  0.05926209  0.73426704  0.30285528  1
  Se  Se210  1  0.09211906  0.74087125  0.80028469  1
  Se  Se211  1  0.42212831  0.08494992  0.30131354  1
  Se  Se212  1  0.40565373  0.07781290  0.80306321  1
  Se  Se213  1  0.41849669  0.41619075  0.29955140  1
  Se  Se214  1  0.42183914  0.41152394  0.81820948  1
  Se  Se215  1  0.40911918  0.75148613  0.29799812  1
  Se  Se216  1  0.42530898  0.76047707  0.81108901  1
  Se  Se217  1  0.74948882  0.08110337  0.31022150  1
  Se  Se218  1  0.74469443  0.08394445  0.80676632  1
  Se  Se219  1  0.74687250  0.40976939  0.29154775  1
  Se  Se220  1  0.76318188  0.43079340  0.81201930  1
  Se  Se221  1  0.74775492  0.75466342  0.30927128  1
  Se  Se222  1  0.76427572  0.76667485  0.81371031  1
  Se  Se223  1  0.26600247  0.05795042  0.19699968  1
  Se  Se224  1  0.25159097  0.08382170  0.68726582  1
  Se  Se225  1  0.24787766  0.41482534  0.20045823  1
  Se  Se226  1  0.23560778  0.42365063  0.69590304  1
  Se  Se227  1  0.24241941  0.75052491  0.20599991  1
  Se  Se228  1  0.24596932  0.76073296  0.68572001  1
  Se  Se229  1  0.58952117  0.08165222  0.19522813  1
  Se  Se230  1  0.58322310  0.08160338  0.69556973  1
  Se  Se231  1  0.58494242  0.41018480  0.19060605  1
  Se  Se232  1  0.58184821  0.41833979  0.70334146  1
  Se  Se233  1  0.57319902  0.75318983  0.18939004  1
  Se  Se234  1  0.57848499  0.75960556  0.69011869  1
  Se  Se235  1  0.91319792  0.08538875  0.20004230  1
  Se  Se236  1  0.91711877  0.08460742  0.69354221  1
  Se  Se237  1  0.91739679  0.41892878  0.18488109  1
  Se  Se238  1  0.91417693  0.42628039  0.69303336  1
  Se  Se239  1  0.91249214  0.75471140  0.19962712  1
  Se  Se240  1  0.92376037  0.75178455  0.69558353  1
  Se  Se241  1  0.10060786  0.23489708  0.19694871  1
  Se  Se242  1  0.08173245  0.23969332  0.68733243  1
  Se  Se243  1  0.07639344  0.58426305  0.19560385  1
  Se  Se244  1  0.08230670  0.58644072  0.70518716  1
  Se  Se245  1  0.06588328  0.94819236  0.20161560  1
  Se  Se246  1  0.07499246  0.93141118  0.69288551  1
  Se  Se247  1  0.41508516  0.24670106  0.19435939  1
  Se  Se248  1  0.41697425  0.23870447  0.68356536  1
  Se  Se249  1  0.41503823  0.58125990  0.20176851  1
  Se  Se250  1  0.42411792  0.57477698  0.69997268  1
  Se  Se251  1  0.42723594  0.91411652  0.18903385  1
  Se  Se252  1  0.41394129  0.91929053  0.69720245  1
  Se  Se253  1  0.75262119  0.24782415  0.19954599  1
  Se  Se254  1  0.75075471  0.24759897  0.68692429  1
  Se  Se255  1  0.74672104  0.57346882  0.17621355  1
  Se  Se256  1  0.75578892  0.58537700  0.68748579  1
  Se  Se257  1  0.74654313  0.92241786  0.20188797  1
  Se  Se258  1  0.75265626  0.91963624  0.69645859  1
