# generated using pymatgen
data_In86Cu29Se144
_symmetry_space_group_name_H-M   'P 1'
_cell_length_a   17.57444282
_cell_length_b   17.57561343
_cell_length_c   23.44060694
_cell_angle_alpha   90.01354515
_cell_angle_beta   89.97916659
_cell_angle_gamma   89.99227215
_symmetry_Int_Tables_number   1
_chemical_formula_structural   In86Cu29Se144
_chemical_formula_sum   'In86 Cu29 Se144'
_cell_volume   7240.37173936
_cell_formula_units_Z   1
loop_
 _symmetry_equiv_pos_site_id
 _symmetry_equiv_pos_as_xyz
  1  'x, y, z'
loop_
 _atom_site_type_symbol
 _atom_site_label
 _atom_site_symmetry_multiplicity
 _atom_site_fract_x
 _atom_site_fract_y
 _atom_site_fract_z
 _atom_site_occupancy
  In  In0  1  -0.00373490  0.17947838  0.12146213  1
  In  In1  1  -0.00129335  0.15482108  0.62540999  1
  In  In2  1  0.01772490  0.50011721  0.12362608  1
  In  In3  1  0.02236684  0.49887365  0.62486921  1
  In  In4  1  0.00004247  0.81847468  0.12595805  1
  In  In5  1  -0.00369257  0.84098905  0.62971353  1
  In  In6  1  0.34471278  0.16257807  0.12820964  1
  In  In7  1  0.34282576  0.18529385  0.62219644  1
  In  In8  1  0.33335771  0.49967936  0.12603338  1
  In  In9  1  0.33223009  0.50077028  0.62451479  1
  In  In10  1  0.32176372  0.82453021  0.11721608  1
  In  In11  1  0.32367561  0.82904178  0.62897111  1
  In  In12  1  0.66131288  0.16537537  0.12770382  1
  In  In13  1  0.66116531  0.17706522  0.62436257  1
  In  In14  1  0.64931142  0.51461426  0.13389463  1
  In  In15  1  0.66373840  0.51516765  0.62280548  1
  In  In16  1  0.64752068  0.84548093  0.14137060  1
  In  In17  1  0.65967807  0.81559387  0.62073817  1
  In  In18  1  0.17758355  0.01287333  0.37684546  1
  In  In19  1  0.15286309  0.00136563  0.87178134  1
  In  In20  1  0.18553917  0.32591827  0.38497560  1
  In  In21  1  0.19292446  0.32855381  0.87120088  1
  In  In22  1  0.16751873  0.65982360  0.37280341  1
  In  In23  1  0.17015988  0.66410166  0.87692072  1
  In  In24  1  0.51339716  -0.00504861  0.37184445  1
  In  In25  1  0.49467872  0.00256999  0.88535180  1
  In  In26  1  0.49758168  0.33711942  0.37410360  1
  In  In27  1  0.49446126  0.34171484  0.88273068  1
  In  In28  1  0.48390680  0.65275595  0.35311477  1
  In  In29  1  0.49780163  0.66211162  0.87646135  1
  In  In30  1  0.81365175  0.00074890  0.37787775  1
  In  In31  1  0.84558661  0.00306092  0.87387130  1
  In  In32  1  0.83115155  0.34133112  0.37232106  1
  In  In33  1  0.82128278  0.32949048  0.87950860  1
  In  In34  1  0.84102960  0.67073995  0.37211691  1
  In  In35  1  0.83360452  0.67433760  0.86747267  1
  In  In36  1  0.01552396  0.17827698  0.37956770  1
  In  In37  1  0.00263044  0.15439294  0.86745237  1
  In  In38  1  0.00209963  0.51030711  0.37962411  1
  In  In39  1  0.00446749  0.51685024  0.87093682  1
  In  In40  1  0.00217718  0.81272949  0.37820961  1
  In  In41  1  0.00635763  0.83897864  0.87080828  1
  In  In42  1  0.32446070  0.18478239  0.37958136  1
  In  In43  1  0.33606021  0.18028839  0.86773602  1
  In  In44  1  0.34142139  0.50641968  0.37464253  1
  In  In45  1  0.33420331  0.49828479  0.87681187  1
  In  In46  1  0.34221202  0.81811099  0.37065512  1
  In  In47  1  0.34546837  0.82090178  0.88408385  1
  In  In48  1  0.65518758  0.16150615  0.36999103  1
  In  In49  1  0.66439531  0.16757240  0.88469323  1
  In  In50  1  0.65659669  0.48650178  0.36449560  1
  In  In51  1  0.65139167  0.49614968  0.87702834  1
  In  In52  1  0.66545785  0.83789083  0.36748071  1
  In  In53  1  0.66369366  0.82061970  0.87721578  1
  In  In54  1  0.18072725  -0.00314087  0.12374217  1
  In  In55  1  0.15351612  -0.00141746  0.62690274  1
  In  In56  1  0.16396560  0.34684588  0.12640620  1
  In  In57  1  0.17331493  0.35111740  0.61408588  1
  In  In58  1  0.17117015  0.66416084  0.12714543  1
  In  In59  1  0.18024697  0.65152519  0.63609056  1
  In  In60  1  0.50373130  0.01017756  0.11716392  1
  In  In61  1  0.48964793  0.01273607  0.62688751  1
  In  In62  1  0.49687111  0.33315978  0.12737507  1
  In  In63  1  0.48751181  0.32410967  0.61757136  1
  In  In64  1  0.49704457  0.66592844  0.12246187  1
  In  In65  1  0.49938557  0.65901692  0.62728239  1
  In  In66  1  0.81733971  -0.00404077  0.12500746  1
  In  In67  1  0.85155002  0.00099450  0.62755572  1
  In  In68  1  0.83220224  0.31895841  0.12370189  1
  In  In69  1  0.83310558  0.32520435  0.62542173  1
  In  In70  1  0.82947365  0.67275934  0.13072459  1
  In  In71  1  0.82477079  0.67815828  0.62800202  1
  In  In72  1  0.83480023  0.50231456  0.49691141  1
  In  In73  1  0.66354704  0.33583772  0.74934036  1
  In  In74  1  0.16965155  0.16599852  -0.00749505  1
  In  In75  1  0.16586983  0.83257911  0.49846500  1
  In  In76  1  0.66952833  -0.00141692  0.75074070  1
  In  In77  1  0.82884998  0.49771568  0.00220572  1
  In  In78  1  0.00374363  0.33213916  0.74451595  1
  In  In79  1  0.32707611  0.00073088  0.75495806  1
  In  In80  1  0.00339247  0.33804660  0.25222628  1
  In  In81  1  0.83275644  0.16319502  0.50534522  1
  In  In82  1  0.34129378  -0.00326562  0.25023841  1
  In  In83  1  0.49832595  0.82872148  0.49540833  1
  In  In84  1  -0.00314058  -0.00241426  0.25888616  1
  In  In85  1  0.83161499  0.83640940  -0.00249531  1
  Cu  Cu86  1  -0.00357034  -0.00258575  0.50189309  1
  Cu  Cu87  1  0.16401833  0.82518628  0.75208274  1
  Cu  Cu88  1  0.83473312  0.51097442  0.74667790  1
  Cu  Cu89  1  0.66306890  0.66586410  0.49590480  1
  Cu  Cu90  1  0.49628339  0.49607352  0.24638691  1
  Cu  Cu91  1  0.33476631  -0.00620703  0.00055133  1
  Cu  Cu92  1  0.83380867  0.49977717  0.25254710  1
  Cu  Cu93  1  0.82693037  0.16166225  0.24868254  1
  Cu  Cu94  1  0.66061648  0.32977718  0.00572117  1
  Cu  Cu95  1  0.65994630  0.66667870  0.00267479  1
  Cu  Cu96  1  0.83071134  0.82832357  0.24910436  1
  Cu  Cu97  1  0.00094831  0.00107316  -0.00523694  1
  Cu  Cu98  1  0.33535276  0.33472967  0.00223024  1
  Cu  Cu99  1  0.66037062  0.33563629  0.49604220  1
  Cu  Cu100  1  0.83356853  0.83275845  0.74933804  1
  Cu  Cu101  1  0.00105510  0.66870093  0.50474933  1
  Cu  Cu102  1  0.50002158  0.82426071  0.75282629  1
  Cu  Cu103  1  0.66379265  -0.00506991  0.49672378  1
  Cu  Cu104  1  0.49400619  0.49998731  0.75258679  1
  Cu  Cu105  1  0.50037117  0.17128852  0.25011358  1
  Cu  Cu106  1  0.16649110  0.82636268  0.24873039  1
  Cu  Cu107  1  0.17372707  0.49904931  0.75069011  1
  Cu  Cu108  1  0.33636377  0.01328547  0.49997773  1
  Cu  Cu109  1  0.17347101  0.50364358  0.25081063  1
  Cu  Cu110  1  0.33244156  0.65869501  0.00091166  1
  Cu  Cu111  1  0.00087025  0.33393026  -0.00152477  1
  Cu  Cu112  1  0.01250360  0.66418789  0.00175999  1
  Cu  Cu113  1  0.33898900  0.34381288  0.49851313  1
  Cu  Cu114  1  0.66363814  0.00504390  0.00497041  1
  Se  Se115  1  0.07994374  0.07937563  0.05926698  1
  Se  Se116  1  0.08209586  0.08083362  0.55150694  1
  Se  Se117  1  0.08649891  0.41694158  0.04802207  1
  Se  Se118  1  0.08185440  0.42183194  0.54475694  1
  Se  Se119  1  0.09040934  0.75077918  0.05606578  1
  Se  Se120  1  0.08331439  0.74625944  0.56617811  1
  Se  Se121  1  0.41329013  0.08615096  0.04927642  1
  Se  Se122  1  0.42099041  0.09478841  0.55238638  1
  Se  Se123  1  0.41776178  0.41754085  0.05660919  1
  Se  Se124  1  0.42212539  0.42519923  0.55392801  1
  Se  Se125  1  0.41385904  0.74664993  0.05217331  1
  Se  Se126  1  0.40793027  0.74537877  0.55978477  1
  Se  Se127  1  0.74969833  0.08753592  0.05595057  1
  Se  Se128  1  0.74093765  0.07182314  0.56363054  1
  Se  Se129  1  0.73995457  0.41309163  0.06581034  1
  Se  Se130  1  0.74309195  0.41030243  0.55857499  1
  Se  Se131  1  0.74157144  0.75046253  0.05915357  1
  Se  Se132  1  0.74800813  0.74800275  0.54794662  1
  Se  Se133  1  0.25286075  0.25252123  0.06077857  1
  Se  Se134  1  0.25573648  0.25865598  0.55147203  1
  Se  Se135  1  0.24725484  0.57831932  0.05588267  1
  Se  Se136  1  0.24465404  0.57908733  0.55572267  1
  Se  Se137  1  0.24412751  0.91306188  0.04759424  1
  Se  Se138  1  0.25757649  0.92726726  0.55703367  1
  Se  Se139  1  0.57667262  0.24577572  0.05830407  1
  Se  Se140  1  0.58120663  0.24884740  0.55000653  1
  Se  Se141  1  0.57693217  0.57890260  0.05099470  1
  Se  Se142  1  0.57871090  0.58521809  0.54958175  1
  Se  Se143  1  0.58511946  0.91445355  0.05543624  1
  Se  Se144  1  0.58115277  0.92241118  0.56169317  1
  Se  Se145  1  0.91465573  0.25001707  0.04668023  1
  Se  Se146  1  0.92765850  0.25686915  0.55605720  1
  Se  Se147  1  0.92221691  0.59004342  0.05957653  1
  Se  Se148  1  0.91932052  0.58769810  0.56422501  1
  Se  Se149  1  0.92394941  0.92314599  0.06083277  1
  Se  Se150  1  0.91441232  0.91212022  0.55263108  1
  Se  Se151  1  0.08816819  0.25735904  0.45158694  1
  Se  Se152  1  0.07963383  0.25755367  0.93338112  1
  Se  Se153  1  0.08521428  0.58921562  0.44968454  1
  Se  Se154  1  0.08995255  0.57750347  0.94798033  1
  Se  Se155  1  0.07709251  0.92434747  0.43605617  1
  Se  Se156  1  0.08474942  0.91486055  0.94643099  1
  Se  Se157  1  0.41952196  0.25419347  0.44670432  1
  Se  Se158  1  0.41393799  0.24875303  0.94679742  1
  Se  Se159  1  0.42189117  0.59522263  0.44101633  1
  Se  Se160  1  0.41850204  0.57793593  0.94684678  1
  Se  Se161  1  0.40668484  0.92512836  0.43888280  1
  Se  Se162  1  0.42249509  0.90977111  0.95194134  1
  Se  Se163  1  0.74534012  0.25355716  0.44078331  1
  Se  Se164  1  0.74819194  0.24967503  0.95366640  1
  Se  Se165  1  0.74169740  0.58369973  0.43412486  1
  Se  Se166  1  0.74513573  0.59249877  0.94043334  1
  Se  Se167  1  0.74559608  0.90823958  0.44711135  1
  Se  Se168  1  0.74033100  0.92792456  0.93810581  1
  Se  Se169  1  0.24812705  0.09514470  0.45023129  1
  Se  Se170  1  0.26043143  0.07400175  0.93447564  1
  Se  Se171  1  0.25528172  0.42767411  0.44559866  1
  Se  Se172  1  0.25055416  0.41584646  0.94827604  1
  Se  Se173  1  0.25877716  0.74120820  0.44423474  1
  Se  Se174  1  0.25064352  0.74599058  0.94838595  1
  Se  Se175  1  0.58210835  0.08151044  0.44629886  1
  Se  Se176  1  0.57844971  0.08695565  0.95153420  1
  Se  Se177  1  0.57921278  0.42207591  0.44495676  1
  Se  Se178  1  0.58132438  0.41790539  0.95346681  1
  Se  Se179  1  0.58357388  0.74103449  0.43224031  1
  Se  Se180  1  0.57706096  0.74911786  0.94777512  1
  Se  Se181  1  0.92121334  0.07853367  0.43700694  1
  Se  Se182  1  0.91918842  0.08854455  0.94590739  1
  Se  Se183  1  0.92624121  0.40696536  0.44304511  1
  Se  Se184  1  0.92239843  0.41585767  0.93701777  1
  Se  Se185  1  0.91351813  0.74752284  0.45176667  1
  Se  Se186  1  0.92573740  0.74255849  0.94379920  1
  Se  Se187  1  0.24794373  0.25443304  0.30193018  1
  Se  Se188  1  0.23929300  0.23400657  0.79644272  1
  Se  Se189  1  0.25769941  0.58843927  0.30293348  1
  Se  Se190  1  0.25369960  0.58262403  0.80708491  1
  Se  Se191  1  0.24324041  0.90803070  0.31025105  1
  Se  Se192  1  0.24542567  0.90341250  0.81499535  1
  Se  Se193  1  0.58338311  0.25547618  0.30415235  1
  Se  Se194  1  0.57825489  0.24881965  0.81367914  1
  Se  Se195  1  0.58668912  0.57894865  0.29549852  1
  Se  Se196  1  0.58199826  0.58163813  0.80434589  1
  Se  Se197  1  0.57545729  0.90911008  0.29730182  1
  Se  Se198  1  0.57481521  0.91153391  0.81088826  1
  Se  Se199  1  0.91089043  0.23970938  0.30824731  1
  Se  Se200  1  0.91053082  0.25093572  0.80938525  1
  Se  Se201  1  0.91971179  0.58104590  0.30471590  1
  Se  Se202  1  0.91867417  0.59140265  0.80091343  1
  Se  Se203  1  0.90698208  0.90540933  0.31626325  1
  Se  Se204  1  0.91656811  0.91568833  0.80303285  1
  Se  Se205  1  0.09310851  0.09424600  0.30438721  1
  Se  Se206  1  0.09181444  0.08773221  0.79674751  1
  Se  Se207  1  0.09314698  0.42449918  0.31335379  1
  Se  Se208  1  0.09076374  0.41890537  0.81050034  1
  Se  Se209  1  0.08378949  0.74342946  0.30327537  1
  Se  Se210  1  0.08144506  0.74348204  0.80781068  1
  Se  Se211  1  0.42137625  0.09202939  0.31386874  1
  Se  Se212  1  0.42774009  0.08748871  0.80692109  1
  Se  Se213  1  0.41341669  0.41609755  0.30363438  1
  Se  Se214  1  0.41450865  0.41298241  0.80600399  1
  Se  Se215  1  0.43766372  0.77118777  0.29670928  1
  Se  Se216  1  0.41407952  0.74311254  0.80527621  1
  Se  Se217  1  0.74264018  0.08010837  0.30247564  1
  Se  Se218  1  0.75428731  0.09160696  0.81135079  1
  Se  Se219  1  0.74970051  0.41035749  0.29748037  1
  Se  Se220  1  0.75760576  0.42913927  0.80775662  1
  Se  Se221  1  0.74946293  0.74587791  0.30530548  1
  Se  Se222  1  0.74498186  0.75235258  0.80036629  1
  Se  Se223  1  0.24508723  0.08976672  0.19639222  1
  Se  Se224  1  0.25245249  0.08487437  0.68233419  1
  Se  Se225  1  0.25197541  0.41591913  0.19772993  1
  Se  Se226  1  0.25255394  0.41438751  0.69492175  1
  Se  Se227  1  0.25448985  0.74674039  0.19713176  1
  Se  Se228  1  0.25385524  0.74581897  0.70284755  1
  Se  Se229  1  0.57853959  0.08166065  0.19696352  1
  Se  Se230  1  0.57760552  0.09337068  0.69634989  1
  Se  Se231  1  0.58357848  0.41205532  0.19694611  1
  Se  Se232  1  0.57609183  0.42498756  0.68813495  1
  Se  Se233  1  0.60211137  0.72359981  0.18866712  1
  Se  Se234  1  0.58233426  0.74330373  0.69686134  1
  Se  Se235  1  0.91334634  0.08627845  0.18998948  1
  Se  Se236  1  0.91589999  0.08733544  0.70042890  1
  Se  Se237  1  0.91274910  0.42280241  0.18655837  1
  Se  Se238  1  0.90985266  0.42718648  0.68706710  1
  Se  Se239  1  0.91940834  0.74666862  0.20049525  1
  Se  Se240  1  0.91784662  0.74990707  0.69580466  1
  Se  Se241  1  0.09120697  0.24413668  0.19257379  1
  Se  Se242  1  0.09192312  0.25032214  0.67991902  1
  Se  Se243  1  0.08519898  0.58413476  0.19829528  1
  Se  Se244  1  0.08346497  0.58240745  0.70345506  1
  Se  Se245  1  0.08820679  0.91299431  0.19244394  1
  Se  Se246  1  0.08406879  0.91476698  0.70128101  1
  Se  Se247  1  0.41307646  0.25220661  0.19909649  1
  Se  Se248  1  0.42461146  0.25115631  0.69943272  1
  Se  Se249  1  0.41535907  0.58385927  0.19448144  1
  Se  Se250  1  0.41240031  0.58357290  0.69725178  1
  Se  Se251  1  0.41775259  0.91294240  0.17921771  1
  Se  Se252  1  0.42261811  0.90905728  0.69402447  1
  Se  Se253  1  0.74694535  0.24882418  0.19658358  1
  Se  Se254  1  0.75927055  0.23869083  0.69812565  1
  Se  Se255  1  0.75294391  0.58137924  0.19570610  1
  Se  Se256  1  0.74532728  0.58968241  0.69562564  1
  Se  Se257  1  0.74849377  0.91847712  0.20236633  1
  Se  Se258  1  0.75228502  0.90768638  0.68554274  1
