# generated using pymatgen
data_In86Cu29Se144
_symmetry_space_group_name_H-M   'P 1'
_cell_length_a   17.58353487
_cell_length_b   17.58258286
_cell_length_c   23.43580766
_cell_angle_alpha   89.99068793
_cell_angle_beta   89.99183661
_cell_angle_gamma   90.02783813
_symmetry_Int_Tables_number   1
_chemical_formula_structural   In86Cu29Se144
_chemical_formula_sum   'In86 Cu29 Se144'
_cell_volume   7245.50604965
_cell_formula_units_Z   1
loop_
 _symmetry_equiv_pos_site_id
 _symmetry_equiv_pos_as_xyz
  1  'x, y, z'
loop_
 _atom_site_type_symbol
 _atom_site_label
 _atom_site_symmetry_multiplicity
 _atom_site_fract_x
 _atom_site_fract_y
 _atom_site_fract_z
 _atom_site_occupancy
  In  In0  1  -0.00916730  0.15778279  0.11145700  1
  In  In1  1  -0.00080397  0.17082000  0.63524164  1
  In  In2  1  -0.00015177  0.50650177  0.11563517  1
  In  In3  1  0.00323034  0.50322914  0.63181802  1
  In  In4  1  0.00654163  0.82971580  0.13066559  1
  In  In5  1  0.00522890  0.82463207  0.63874990  1
  In  In6  1  0.33484468  0.18270765  0.12545576  1
  In  In7  1  0.32896963  0.17066744  0.63423712  1
  In  In8  1  0.32314759  0.52048290  0.14210835  1
  In  In9  1  0.32371601  0.50237012  0.61389447  1
  In  In10  1  0.32849169  0.81642962  0.12629009  1
  In  In11  1  0.33891116  0.83495519  0.61333859  1
  In  In12  1  0.67159887  0.15533087  0.12244427  1
  In  In13  1  0.66542829  0.16250029  0.63502609  1
  In  In14  1  0.66681544  0.49248926  0.12178716  1
  In  In15  1  0.64652466  0.51675393  0.64624516  1
  In  In16  1  0.66945482  0.84724217  0.12294070  1
  In  In17  1  0.65248178  0.84173214  0.63451312  1
  In  In18  1  0.15666486  -0.00587133  0.37178056  1
  In  In19  1  0.17174277  0.00734600  0.87137865  1
  In  In20  1  0.18230145  0.33652809  0.37136342  1
  In  In21  1  0.16561827  0.33476907  0.87617019  1
  In  In22  1  0.16809316  0.66673890  0.37889934  1
  In  In23  1  0.15276897  0.66066372  0.87719560  1
  In  In24  1  0.50194298  -0.01349131  0.37636129  1
  In  In25  1  0.49606586  -0.00755286  0.86969716  1
  In  In26  1  0.49328864  0.34852744  0.38192410  1
  In  In27  1  0.49799144  0.33806054  0.85913043  1
  In  In28  1  0.49407841  0.66475038  0.38249556  1
  In  In29  1  0.51714417  0.66325638  0.87024809  1
  In  In30  1  0.83667409  -0.00417652  0.36690521  1
  In  In31  1  0.84424972  0.00874860  0.86479455  1
  In  In32  1  0.82396488  0.33222415  0.37622118  1
  In  In33  1  0.83744674  0.33223861  0.87806830  1
  In  In34  1  0.85208641  0.66196565  0.36798944  1
  In  In35  1  0.83260586  0.66162023  0.86931303  1
  In  In36  1  0.00786831  0.16145646  0.36973460  1
  In  In37  1  0.00076630  0.16742637  0.87773432  1
  In  In38  1  0.00058781  0.52959977  0.36800299  1
  In  In39  1  0.00744724  0.49975410  0.87951615  1
  In  In40  1  0.00986068  0.83417809  0.37277570  1
  In  In41  1  -0.01517835  0.82546764  0.85792798  1
  In  In42  1  0.32439853  0.17670584  0.36907989  1
  In  In43  1  0.32931082  0.16373004  0.87177391  1
  In  In44  1  0.33329703  0.49890987  0.37901492  1
  In  In45  1  0.33599875  0.48605312  0.87032137  1
  In  In46  1  0.34854759  0.81014664  0.39931826  1
  In  In47  1  0.33273864  0.84745924  0.87493342  1
  In  In48  1  0.67834491  0.16360849  0.37456410  1
  In  In49  1  0.67804302  0.17573018  0.86892137  1
  In  In50  1  0.66327415  0.49239021  0.37934324  1
  In  In51  1  0.67308346  0.51275205  0.86211606  1
  In  In52  1  0.65622289  0.83679826  0.37783518  1
  In  In53  1  0.66287013  0.82155326  0.86270502  1
  In  In54  1  0.15267407  -0.00530266  0.12247057  1
  In  In55  1  0.17249468  -0.00503642  0.63223881  1
  In  In56  1  0.17709367  0.34425013  0.11555509  1
  In  In57  1  0.15472773  0.34612126  0.63127603  1
  In  In58  1  0.16802596  0.66235411  0.12791991  1
  In  In59  1  0.16627854  0.65985118  0.61350634  1
  In  In60  1  0.51604807  0.00056664  0.12647309  1
  In  In61  1  0.50915914  -0.01798450  0.62963210  1
  In  In62  1  0.49338895  0.33537225  0.12820287  1
  In  In63  1  0.48232477  0.35170093  0.64547074  1
  In  In64  1  0.48492590  0.66331864  0.12530281  1
  In  In65  1  0.49610645  0.67318520  0.61225993  1
  In  In66  1  0.83367505  0.00049689  0.12383991  1
  In  In67  1  0.82497414  -0.00307346  0.63959991  1
  In  In68  1  0.83935482  0.33975771  0.10856982  1
  In  In69  1  0.83013028  0.33959869  0.63608115  1
  In  In70  1  0.84478122  0.66309608  0.12409329  1
  In  In71  1  0.83362039  0.67420357  0.64370783  1
  In  In72  1  0.82611018  0.83713847  0.50951627  1
  In  In73  1  0.83184307  0.83184264  -0.01475936  1
  In  In74  1  0.50096992  0.16878748  0.00191231  1
  In  In75  1  0.66548288  0.67107463  0.25678307  1
  In  In76  1  0.33253989  0.66893456  0.73753287  1
  In  In77  1  0.00545582  0.33388584  0.23402528  1
  In  In78  1  0.16413928  0.83213486  -0.00179073  1
  In  In79  1  0.83373734  0.16321682  0.52048876  1
  In  In80  1  0.50649550  0.16130034  0.50672087  1
  In  In81  1  0.33200784  -0.00641332  0.25609265  1
  In  In82  1  0.66543790  0.33478767  0.24604690  1
  In  In83  1  0.50055084  0.50098281  -0.00181215  1
  In  In84  1  0.83404274  0.50049452  0.49903831  1
  In  In85  1  0.16738591  0.16323025  0.49531616  1
  Cu  Cu86  1  0.33607875  0.00151699  -0.00576173  1
  Cu  Cu87  1  0.32854280  0.33603652  -0.00165669  1
  Cu  Cu88  1  0.66280778  0.66402552  0.50346660  1
  Cu  Cu89  1  0.00037244  -0.00396804  -0.00691443  1
  Cu  Cu90  1  0.16407184  0.17217977  0.75644952  1
  Cu  Cu91  1  0.84163027  0.16384884  0.24486521  1
  Cu  Cu92  1  0.66785297  0.00088495  -0.00222133  1
  Cu  Cu93  1  0.50443447  0.17010236  0.24730298  1
  Cu  Cu94  1  0.16722977  0.50123332  0.74836410  1
  Cu  Cu95  1  0.16531470  0.83950387  0.75314878  1
  Cu  Cu96  1  0.83867930  0.83786208  0.24563470  1
  Cu  Cu97  1  0.16796315  0.82275174  0.25424243  1
  Cu  Cu98  1  0.33578248  -0.00541387  0.50418348  1
  Cu  Cu99  1  0.00650569  0.34853016  0.50132348  1
  Cu  Cu100  1  0.00303669  0.33125304  -0.00440018  1
  Cu  Cu101  1  0.16444734  0.50032470  0.25072179  1
  Cu  Cu102  1  0.83598975  0.16574622  0.75567544  1
  Cu  Cu103  1  0.33130254  0.33761646  0.50326181  1
  Cu  Cu104  1  0.49670105  0.15893162  0.75058539  1
  Cu  Cu105  1  0.49951832  0.83089254  0.25656941  1
  Cu  Cu106  1  0.84166095  0.49171115  0.75666433  1
  Cu  Cu107  1  0.16449404  0.16138050  0.24603712  1
  Cu  Cu108  1  0.67091958  0.67089909  -0.00914614  1
  Cu  Cu109  1  0.33285627  0.66452006  0.00464462  1
  Cu  Cu110  1  0.49344916  0.83028533  0.74455454  1
  Cu  Cu111  1  0.00249947  0.67003106  0.50385049  1
  Cu  Cu112  1  0.66053918  0.33756675  0.51086199  1
  Cu  Cu113  1  -0.00494887  0.00011838  0.50071186  1
  Cu  Cu114  1  0.66988710  0.33607244  -0.00785940  1
  Se  Se115  1  0.08440772  0.07787280  0.04738812  1
  Se  Se116  1  0.07572649  0.08211683  0.56019887  1
  Se  Se117  1  0.08178634  0.41641795  0.05172952  1
  Se  Se118  1  0.08683146  0.43098655  0.55550615  1
  Se  Se119  1  0.07593525  0.74015534  0.05608833  1
  Se  Se120  1  0.08012809  0.75713573  0.55778167  1
  Se  Se121  1  0.41150396  0.07731460  0.06270576  1
  Se  Se122  1  0.40934647  0.07802838  0.56548161  1
  Se  Se123  1  0.40682995  0.41722277  0.05999818  1
  Se  Se124  1  0.41944682  0.41429076  0.55700321  1
  Se  Se125  1  0.41769000  0.75176504  0.05194603  1
  Se  Se126  1  0.40339086  0.74100057  0.54390154  1
  Se  Se127  1  0.75455608  0.08096357  0.05024655  1
  Se  Se128  1  0.73551980  0.06682054  0.56206968  1
  Se  Se129  1  0.74858668  0.42308929  0.04658847  1
  Se  Se130  1  0.74441083  0.42061956  0.56543930  1
  Se  Se131  1  0.74697318  0.74884315  0.05703419  1
  Se  Se132  1  0.74249899  0.73905064  0.56614992  1
  Se  Se133  1  0.24937995  0.24660470  0.04978050  1
  Se  Se134  1  0.24853793  0.25551713  0.56020419  1
  Se  Se135  1  0.25097546  0.58082265  0.05733165  1
  Se  Se136  1  0.26449770  0.60014457  0.54440879  1
  Se  Se137  1  0.25816575  0.92127243  0.05884691  1
  Se  Se138  1  0.24281000  0.91875337  0.55390863  1
  Se  Se139  1  0.59316801  0.26172360  0.06023535  1
  Se  Se140  1  0.58235639  0.25695596  0.57051770  1
  Se  Se141  1  0.59054300  0.59526126  0.05706610  1
  Se  Se142  1  0.58446741  0.57683093  0.55648214  1
  Se  Se143  1  0.58314383  0.91795601  0.04949616  1
  Se  Se144  1  0.58012457  0.90701250  0.55224940  1
  Se  Se145  1  0.91456277  0.24688028  0.04441084  1
  Se  Se146  1  0.92757634  0.26729822  0.56116120  1
  Se  Se147  1  0.90419053  0.57630830  0.04895284  1
  Se  Se148  1  0.91602859  0.59401128  0.56266200  1
  Se  Se149  1  0.92332684  0.91321445  0.05449279  1
  Se  Se150  1  0.92130166  0.92392435  0.56693565  1
  Se  Se151  1  0.07649415  0.25998830  0.43964286  1
  Se  Se152  1  0.08831901  0.24701922  0.94570491  1
  Se  Se153  1  0.08145426  0.58405779  0.44927778  1
  Se  Se154  1  0.09317003  0.57387529  0.95212550  1
  Se  Se155  1  0.07975760  0.91902940  0.44798407  1
  Se  Se156  1  0.07516438  0.91396920  0.93135516  1
  Se  Se157  1  0.40887546  0.24874398  0.44728784  1
  Se  Se158  1  0.41597410  0.26092248  0.93989284  1
  Se  Se159  1  0.41010019  0.58330724  0.44987938  1
  Se  Se160  1  0.41125040  0.59057910  0.93685351  1
  Se  Se161  1  0.42487326  0.91530708  0.45325237  1
  Se  Se162  1  0.42130850  0.91561101  0.94792713  1
  Se  Se163  1  0.74345431  0.25502215  0.45437701  1
  Se  Se164  1  0.75378888  0.24646144  0.94730952  1
  Se  Se165  1  0.74722226  0.59577647  0.43781829  1
  Se  Se166  1  0.75011921  0.58203964  0.94146451  1
  Se  Se167  1  0.74607652  0.92656491  0.44205361  1
  Se  Se168  1  0.74190928  0.92491941  0.93033957  1
  Se  Se169  1  0.26111459  0.07172010  0.43774092  1
  Se  Se170  1  0.25045589  0.08532567  0.94613326  1
  Se  Se171  1  0.24546682  0.41720907  0.44937287  1
  Se  Se172  1  0.24876500  0.42141632  0.94477942  1
  Se  Se173  1  0.22475400  0.76932153  0.44662177  1
  Se  Se174  1  0.25752348  0.74354239  0.93885843  1
  Se  Se175  1  0.59301308  0.07656601  0.44105165  1
  Se  Se176  1  0.58679563  0.08227037  0.93730344  1
  Se  Se177  1  0.58167584  0.41950013  0.45327940  1
  Se  Se178  1  0.58699745  0.41360396  0.93413709  1
  Se  Se179  1  0.58452507  0.74777464  0.44658353  1
  Se  Se180  1  0.58354271  0.75361419  0.94285698  1
  Se  Se181  1  0.91751651  0.08431350  0.44315239  1
  Se  Se182  1  0.91430268  0.08198719  0.94486736  1
  Se  Se183  1  0.92476926  0.41573361  0.43423463  1
  Se  Se184  1  0.91852224  0.41723982  0.94604326  1
  Se  Se185  1  0.91885863  0.74987568  0.44589504  1
  Se  Se186  1  0.92898593  0.73753915  0.93978843  1
  Se  Se187  1  0.24585695  0.25028942  0.29436664  1
  Se  Se188  1  0.25206017  0.25498488  0.80624350  1
  Se  Se189  1  0.24587162  0.57947806  0.30969234  1
  Se  Se190  1  0.24869175  0.58271860  0.80722447  1
  Se  Se191  1  0.24962400  0.90000328  0.31655537  1
  Se  Se192  1  0.25264404  0.92228168  0.80189114  1
  Se  Se193  1  0.58019029  0.24798603  0.31420444  1
  Se  Se194  1  0.58123481  0.24349675  0.80180098  1
  Se  Se195  1  0.57680966  0.57530305  0.31143449  1
  Se  Se196  1  0.57506611  0.57578713  0.79513413  1
  Se  Se197  1  0.58670070  0.91872487  0.30072738  1
  Se  Se198  1  0.57842954  0.91153989  0.79993338  1
  Se  Se199  1  0.91432604  0.24944897  0.30607851  1
  Se  Se200  1  0.91951591  0.25049032  0.80733948  1
  Se  Se201  1  0.91007298  0.57740618  0.29041322  1
  Se  Se202  1  0.92422628  0.57863737  0.80730745  1
  Se  Se203  1  0.92512864  0.91574040  0.30324822  1
  Se  Se204  1  0.91102529  0.91735809  0.79443235  1
  Se  Se205  1  0.08217301  0.07775521  0.29826376  1
  Se  Se206  1  0.08062079  0.08457361  0.80582405  1
  Se  Se207  1  0.08253587  0.41838486  0.30896422  1
  Se  Se208  1  0.08638809  0.41871873  0.80521813  1
  Se  Se209  1  0.07970503  0.74015770  0.30506987  1
  Se  Se210  1  0.08777705  0.74817541  0.80282018  1
  Se  Se211  1  0.42533904  0.09073717  0.31115385  1
  Se  Se212  1  0.41155106  0.07833711  0.80502063  1
  Se  Se213  1  0.40255402  0.40486471  0.30920510  1
  Se  Se214  1  0.41883721  0.42450640  0.79339811  1
  Se  Se215  1  0.41619320  0.75051658  0.31123838  1
  Se  Se216  1  0.41666469  0.75235827  0.80955043  1
  Se  Se217  1  0.75564075  0.08539205  0.30135704  1
  Se  Se218  1  0.74524568  0.08023418  0.80068961  1
  Se  Se219  1  0.75826128  0.42676252  0.30463273  1
  Se  Se220  1  0.75238433  0.41120202  0.80698603  1
  Se  Se221  1  0.76165218  0.76268702  0.31303590  1
  Se  Se222  1  0.75405077  0.74510169  0.79986832  1
  Se  Se223  1  0.24951403  0.08147942  0.18760877  1
  Se  Se224  1  0.24428391  0.08774745  0.70001506  1
  Se  Se225  1  0.24766093  0.41541222  0.19699234  1
  Se  Se226  1  0.25223157  0.42243191  0.69194482  1
  Se  Se227  1  0.25171300  0.74077711  0.20038319  1
  Se  Se228  1  0.23939225  0.76211251  0.68542949  1
  Se  Se229  1  0.58939453  0.08557117  0.19864763  1
  Se  Se230  1  0.58028254  0.07515165  0.69796182  1
  Se  Se231  1  0.57042921  0.43007278  0.19564494  1
  Se  Se232  1  0.60537830  0.39338664  0.69581737  1
  Se  Se233  1  0.57960519  0.75766710  0.18971590  1
  Se  Se234  1  0.57336722  0.74256644  0.69233387  1
  Se  Se235  1  0.92333870  0.07947494  0.19124437  1
  Se  Se236  1  0.91618418  0.08333645  0.69882250  1
  Se  Se237  1  0.90607782  0.42360226  0.18694228  1
  Se  Se238  1  0.92585365  0.41386429  0.69924277  1
  Se  Se239  1  0.91798462  0.74887240  0.19573221  1
  Se  Se240  1  0.92658809  0.74408220  0.70897358  1
  Se  Se241  1  0.09210318  0.23840718  0.17806747  1
  Se  Se242  1  0.08258667  0.25574649  0.70041888  1
  Se  Se243  1  0.08119189  0.57768148  0.19249105  1
  Se  Se244  1  0.09049300  0.59043226  0.69410133  1
  Se  Se245  1  0.08955441  0.91094996  0.20003032  1
  Se  Se246  1  0.08027588  0.92345988  0.70063509  1
  Se  Se247  1  0.41676730  0.25344317  0.20062970  1
  Se  Se248  1  0.41188695  0.24845226  0.70433984  1
  Se  Se249  1  0.42134285  0.58818684  0.20493295  1
  Se  Se250  1  0.42215230  0.57642818  0.68341717  1
  Se  Se251  1  0.42240780  0.90995259  0.19042994  1
  Se  Se252  1  0.40759820  0.91338233  0.69291895  1
  Se  Se253  1  0.76137833  0.24718128  0.18655336  1
  Se  Se254  1  0.75263966  0.24614900  0.69921088  1
  Se  Se255  1  0.74799717  0.58248377  0.18996921  1
  Se  Se256  1  0.75741276  0.57658941  0.70397328  1
  Se  Se257  1  0.75212877  0.92053842  0.19589836  1
  Se  Se258  1  0.75505717  0.89812693  0.70068547  1
