# generated using pymatgen
data_In86Cu29Se144
_symmetry_space_group_name_H-M   'P 1'
_cell_length_a   17.57459926
_cell_length_b   17.57235161
_cell_length_c   23.43018109
_cell_angle_alpha   89.99138281
_cell_angle_beta   90.02101207
_cell_angle_gamma   90.00279878
_symmetry_Int_Tables_number   1
_chemical_formula_structural   In86Cu29Se144
_chemical_formula_sum   'In86 Cu29 Se144'
_cell_volume   7235.87283923
_cell_formula_units_Z   1
loop_
 _symmetry_equiv_pos_site_id
 _symmetry_equiv_pos_as_xyz
  1  'x, y, z'
loop_
 _atom_site_type_symbol
 _atom_site_label
 _atom_site_symmetry_multiplicity
 _atom_site_fract_x
 _atom_site_fract_y
 _atom_site_fract_z
 _atom_site_occupancy
  In  In0  1  -0.00917432  0.17247891  0.13078076  1
  In  In1  1  -0.00232193  0.16531322  0.62399730  1
  In  In2  1  -0.00316450  0.50827518  0.13270613  1
  In  In3  1  -0.00983474  0.49788770  0.62625795  1
  In  In4  1  -0.00230388  0.83423708  0.13109868  1
  In  In5  1  0.01763642  0.84431351  0.61606655  1
  In  In6  1  0.33141961  0.16070357  0.12500808  1
  In  In7  1  0.32298971  0.14832291  0.60324076  1
  In  In8  1  0.34137083  0.50351478  0.13073099  1
  In  In9  1  0.34862138  0.50150266  0.62619427  1
  In  In10  1  0.32283581  0.84180071  0.13286882  1
  In  In11  1  0.32191029  0.83306792  0.61580680  1
  In  In12  1  0.65916362  0.16201698  0.11912346  1
  In  In13  1  0.66236473  0.16070893  0.62130767  1
  In  In14  1  0.66020583  0.49415600  0.11174567  1
  In  In15  1  0.65924418  0.50538237  0.62542459  1
  In  In16  1  0.68556632  0.83940811  0.12889474  1
  In  In17  1  0.67551738  0.85173897  0.62477607  1
  In  In18  1  0.16791420  0.00135697  0.38126736  1
  In  In19  1  0.14313013  0.00280845  0.87502881  1
  In  In20  1  0.15198232  0.32302649  0.37093638  1
  In  In21  1  0.16152021  0.33569749  0.87141220  1
  In  In22  1  0.18380029  0.68196145  0.36103819  1
  In  In23  1  0.18084537  0.66845216  0.87529618  1
  In  In24  1  0.50326531  0.00076616  0.37323526  1
  In  In25  1  0.51603746  0.00282906  0.87340941  1
  In  In26  1  0.50515233  0.32896219  0.38433338  1
  In  In27  1  0.51636836  0.31543583  0.89975243  1
  In  In28  1  0.48723545  0.68312839  0.38157316  1
  In  In29  1  0.49002700  0.66252727  0.87326214  1
  In  In30  1  0.84440642  0.00698977  0.36117463  1
  In  In31  1  0.83370678  -0.00034070  0.87964552  1
  In  In32  1  0.83632677  0.32371550  0.37409062  1
  In  In33  1  0.84918037  0.30769038  0.89745924  1
  In  In34  1  0.83832652  0.66314397  0.36677382  1
  In  In35  1  0.83395013  0.66464312  0.88794095  1
  In  In36  1  -0.00013437  0.16474269  0.37687174  1
  In  In37  1  -0.02493639  0.14135508  0.85239796  1
  In  In38  1  0.01308454  0.50224073  0.35171280  1
  In  In39  1  -0.00141953  0.48628863  0.87792936  1
  In  In40  1  0.01533744  0.85665475  0.35728517  1
  In  In41  1  -0.00759704  0.83904495  0.88569796  1
  In  In42  1  0.34683193  0.14550816  0.39382118  1
  In  In43  1  0.33508628  0.17472855  0.87535917  1
  In  In44  1  0.33357452  0.51352348  0.37078014  1
  In  In45  1  0.33262939  0.50359747  0.87549066  1
  In  In46  1  0.33523429  0.84126569  0.37679585  1
  In  In47  1  0.33463332  0.82222015  0.87396739  1
  In  In48  1  0.68159973  0.16403771  0.38281052  1
  In  In49  1  0.67638336  0.15394553  0.88344750  1
  In  In50  1  0.66523569  0.48854477  0.37396275  1
  In  In51  1  0.67357572  0.48014283  0.90075646  1
  In  In52  1  0.65237802  0.83323479  0.37175124  1
  In  In53  1  0.67319173  0.84914226  0.87381170  1
  In  In54  1  0.17348373  -0.00718323  0.13159029  1
  In  In55  1  0.15905999  -0.00244087  0.62046847  1
  In  In56  1  0.16474319  0.32018050  0.12939242  1
  In  In57  1  0.16433252  0.32082257  0.62659748  1
  In  In58  1  0.15162243  0.67497515  0.13826407  1
  In  In59  1  0.17099483  0.68559186  0.62007008  1
  In  In60  1  0.49462211  0.00546510  0.13344350  1
  In  In61  1  0.50480985  0.00793186  0.61477488  1
  In  In62  1  0.49617771  0.33265876  0.10687873  1
  In  In63  1  0.49598711  0.32867704  0.61919817  1
  In  In64  1  0.49423133  0.65986807  0.12954534  1
  In  In65  1  0.48800832  0.66135462  0.62089005  1
  In  In66  1  0.83416961  0.00023867  0.13047689  1
  In  In67  1  0.82529360  0.01737292  0.63949537  1
  In  In68  1  0.83462905  0.34019662  0.11089024  1
  In  In69  1  0.85348788  0.32095177  0.63655136  1
  In  In70  1  0.84826556  0.67845399  0.11623431  1
  In  In71  1  0.83475696  0.66125947  0.62606404  1
  In  In72  1  0.32750620  0.32570489  0.24936028  1
  In  In73  1  0.83117888  0.83624578  0.49599909  1
  In  In74  1  0.66729179  0.33169085  0.23692160  1
  In  In75  1  0.66014495  0.67094649  0.75669793  1
  In  In76  1  0.32717447  -0.00124354  0.73666140  1
  In  In77  1  0.17019295  0.50015871  -0.00126974  1
  In  In78  1  0.82907623  0.49232581  0.49976641  1
  In  In79  1  0.66697933  0.66620822  0.24365985  1
  In  In80  1  0.16625207  0.16545389  -0.00164945  1
  In  In81  1  0.33569925  0.33318121  0.75127402  1
  In  In82  1  0.00390548  0.67354340  0.74419157  1
  In  In83  1  0.50439902  0.83229449  -0.00552246  1
  In  In84  1  0.16928992  0.49895513  0.48994553  1
  In  In85  1  0.67230940  0.32668827  0.75906147  1
  Cu  Cu86  1  0.66712354  0.66743505  0.00639788  1
  Cu  Cu87  1  0.67279834  -0.00139629  0.00319684  1
  Cu  Cu88  1  0.84173660  0.84501946  0.75239824  1
  Cu  Cu89  1  0.65560307  0.66376204  0.50055522  1
  Cu  Cu90  1  -0.00446244  -0.00053983  0.00373095  1
  Cu  Cu91  1  0.49715519  0.16242131  0.74347683  1
  Cu  Cu92  1  0.16529567  0.83534152  0.25258034  1
  Cu  Cu93  1  0.16954072  0.83672116  0.74557239  1
  Cu  Cu94  1  0.50107040  0.83218096  0.75035026  1
  Cu  Cu95  1  0.32597668  0.67360475  0.00193971  1
  Cu  Cu96  1  0.50347011  0.16346607  0.25398474  1
  Cu  Cu97  1  0.49276434  0.83853739  0.25361379  1
  Cu  Cu98  1  0.49536169  0.50592249  0.25312543  1
  Cu  Cu99  1  0.16891881  0.50471179  0.75424268  1
  Cu  Cu100  1  0.66595590  0.33294005  0.50376204  1
  Cu  Cu101  1  0.66549684  0.00294695  0.49838508  1
  Cu  Cu102  1  0.33592192  0.00100439  0.00683587  1
  Cu  Cu103  1  -0.00430743  0.33015146  0.49821647  1
  Cu  Cu104  1  0.83863650  0.49827671  0.23624466  1
  Cu  Cu105  1  0.33470669  0.66911280  0.49474211  1
  Cu  Cu106  1  0.83941496  0.16245590  0.25190337  1
  Cu  Cu107  1  0.00324700  0.66838043  0.00868775  1
  Cu  Cu108  1  0.83515266  0.49444447  0.75901257  1
  Cu  Cu109  1  0.49907711  0.49766219  0.75530831  1
  Cu  Cu110  1  0.33453779  0.33291670  0.50051982  1
  Cu  Cu111  1  0.00169327  0.32873557  0.00066009  1
  Cu  Cu112  1  0.00685127  0.67425807  0.48961834  1
  Cu  Cu113  1  -0.00649683  0.00464446  0.49586485  1
  Cu  Cu114  1  0.16638115  0.15480297  0.25525046  1
  Se  Se115  1  0.07938949  0.07896286  0.06361279  1
  Se  Se116  1  0.07829795  0.08419153  0.55227899  1
  Se  Se117  1  0.08159197  0.40955031  0.06018304  1
  Se  Se118  1  0.07613540  0.41616267  0.55513503  1
  Se  Se119  1  0.08456279  0.75425241  0.05983380  1
  Se  Se120  1  0.08853138  0.75553926  0.54494073  1
  Se  Se121  1  0.42059776  0.08429848  0.05659951  1
  Se  Se122  1  0.41931275  0.07747072  0.54216079  1
  Se  Se123  1  0.40600884  0.42315037  0.05419066  1
  Se  Se124  1  0.41785532  0.41814570  0.55201250  1
  Se  Se125  1  0.41177274  0.75217495  0.06021869  1
  Se  Se126  1  0.41462156  0.75142957  0.55281796  1
  Se  Se127  1  0.75456213  0.08284280  0.05745394  1
  Se  Se128  1  0.75210578  0.08047855  0.55497944  1
  Se  Se129  1  0.74191432  0.41241332  0.04528232  1
  Se  Se130  1  0.74737415  0.40623263  0.56956874  1
  Se  Se131  1  0.75155813  0.75464868  0.05331600  1
  Se  Se132  1  0.74273535  0.74002909  0.55898976  1
  Se  Se133  1  0.25868873  0.25750002  0.05548442  1
  Se  Se134  1  0.24518373  0.25300842  0.55001062  1
  Se  Se135  1  0.24868924  0.59315498  0.06432781  1
  Se  Se136  1  0.25547818  0.58679523  0.55710199  1
  Se  Se137  1  0.24931065  0.91671976  0.05418655  1
  Se  Se138  1  0.25440158  0.93086085  0.55287713  1
  Se  Se139  1  0.59720185  0.26015130  0.05078909  1
  Se  Se140  1  0.58157132  0.24644375  0.55351689  1
  Se  Se141  1  0.57531740  0.58935852  0.05438316  1
  Se  Se142  1  0.57560243  0.57850147  0.55417111  1
  Se  Se143  1  0.58697665  0.91972495  0.06155212  1
  Se  Se144  1  0.58706380  0.91490788  0.55134959  1
  Se  Se145  1  0.91647443  0.24338490  0.05114685  1
  Se  Se146  1  0.91254564  0.24798502  0.55231345  1
  Se  Se147  1  0.91931795  0.57746803  0.05358061  1
  Se  Se148  1  0.92616029  0.59402513  0.54982043  1
  Se  Se149  1  0.91523225  0.91606271  0.05977511  1
  Se  Se150  1  0.91435902  0.92624241  0.56037541  1
  Se  Se151  1  0.08217950  0.24592991  0.44912127  1
  Se  Se152  1  0.07457950  0.24896976  0.93597508  1
  Se  Se153  1  0.08133354  0.58996348  0.43015776  1
  Se  Se154  1  0.07703295  0.59178577  0.93921471  1
  Se  Se155  1  0.07670059  0.91684508  0.44607180  1
  Se  Se156  1  0.08275804  0.91726077  0.95268307  1
  Se  Se157  1  0.42165622  0.24792623  0.45202308  1
  Se  Se158  1  0.41505323  0.23764967  0.95272071  1
  Se  Se159  1  0.41829060  0.58173632  0.44564426  1
  Se  Se160  1  0.40738847  0.58992306  0.94744437  1
  Se  Se161  1  0.43050097  0.91127386  0.44254284  1
  Se  Se162  1  0.41213381  0.92550099  0.93796857  1
  Se  Se163  1  0.75524862  0.25602285  0.45089012  1
  Se  Se164  1  0.72260397  0.26879386  0.94340019  1
  Se  Se165  1  0.74241680  0.59015632  0.44049092  1
  Se  Se166  1  0.75242158  0.58171811  0.95580575  1
  Se  Se167  1  0.74361540  0.92471998  0.43442622  1
  Se  Se168  1  0.75537705  0.91316825  0.95108614  1
  Se  Se169  1  0.23923187  0.08781660  0.45370869  1
  Se  Se170  1  0.25502679  0.07191679  0.93823707  1
  Se  Se171  1  0.25821501  0.40526606  0.43243770  1
  Se  Se172  1  0.25779012  0.40434377  0.94176720  1
  Se  Se173  1  0.24990737  0.75292910  0.44370642  1
  Se  Se174  1  0.24532137  0.75850445  0.94899620  1
  Se  Se175  1  0.58471496  0.08763561  0.44341304  1
  Se  Se176  1  0.58387686  0.08004965  0.95209934  1
  Se  Se177  1  0.58556028  0.41885931  0.45034018  1
  Se  Se178  1  0.54983096  0.44079869  0.95004988  1
  Se  Se179  1  0.58069894  0.75488691  0.44892877  1
  Se  Se180  1  0.59519292  0.74140250  0.93466620  1
  Se  Se181  1  0.90767236  0.08473389  0.44266472  1
  Se  Se182  1  0.91944779  0.08600701  0.94597788  1
  Se  Se183  1  0.92723091  0.41889726  0.43518463  1
  Se  Se184  1  0.91621275  0.41802323  0.95309755  1
  Se  Se185  1  0.92204751  0.75204707  0.43277432  1
  Se  Se186  1  0.91726833  0.74947082  0.95337190  1
  Se  Se187  1  0.25092183  0.23259445  0.31523271  1
  Se  Se188  1  0.23941276  0.24098607  0.80358870  1
  Se  Se189  1  0.23773371  0.57034899  0.30152146  1
  Se  Se190  1  0.25631435  0.58656136  0.80246009  1
  Se  Se191  1  0.24691742  0.91909271  0.30825483  1
  Se  Se192  1  0.24650016  0.91560192  0.81058893  1
  Se  Se193  1  0.58552708  0.24782000  0.30854815  1
  Se  Se194  1  0.57289550  0.23821443  0.81090576  1
  Se  Se195  1  0.57938026  0.58294075  0.31241890  1
  Se  Se196  1  0.58594748  0.56946039  0.81677081  1
  Se  Se197  1  0.58368793  0.92073968  0.29921715  1
  Se  Se198  1  0.58563357  0.91651555  0.80014004  1
  Se  Se199  1  0.92087120  0.24937138  0.30393013  1
  Se  Se200  1  0.90882375  0.25638083  0.80609919  1
  Se  Se201  1  0.91481507  0.58285989  0.29439402  1
  Se  Se202  1  0.91611673  0.58476886  0.81012231  1
  Se  Se203  1  0.90492152  0.90632907  0.29608808  1
  Se  Se204  1  0.92461199  0.92191780  0.80971472  1
  Se  Se205  1  0.07970464  0.07641555  0.30954377  1
  Se  Se206  1  0.09213566  0.09177848  0.79823790  1
  Se  Se207  1  0.08285012  0.40038661  0.29435601  1
  Se  Se208  1  0.08300288  0.42046480  0.80179820  1
  Se  Se209  1  0.07851559  0.74663506  0.29981305  1
  Se  Se210  1  0.09007751  0.75817123  0.81020976  1
  Se  Se211  1  0.41535038  0.08515622  0.30641039  1
  Se  Se212  1  0.41721954  0.08294848  0.80559932  1
  Se  Se213  1  0.42369237  0.41407843  0.31028898  1
  Se  Se214  1  0.42738764  0.41160313  0.81677224  1
  Se  Se215  1  0.40995475  0.75174997  0.30359533  1
  Se  Se216  1  0.41709722  0.74790182  0.80050692  1
  Se  Se217  1  0.74592567  0.08690425  0.30203823  1
  Se  Se218  1  0.75115311  0.08009662  0.80921462  1
  Se  Se219  1  0.75897986  0.42152630  0.30081169  1
  Se  Se220  1  0.75894219  0.41659055  0.82095200  1
  Se  Se221  1  0.75208660  0.75610699  0.30607160  1
  Se  Se222  1  0.76490245  0.75526037  0.80876999  1
  Se  Se223  1  0.25485405  0.08130161  0.19802625  1
  Se  Se224  1  0.23700813  0.09750151  0.68784613  1
  Se  Se225  1  0.24218652  0.42071985  0.19152703  1
  Se  Se226  1  0.24551910  0.42469688  0.68913664  1
  Se  Se227  1  0.24948238  0.75049393  0.20049897  1
  Se  Se228  1  0.25466661  0.75229188  0.69587702  1
  Se  Se229  1  0.58772006  0.08443365  0.19730775  1
  Se  Se230  1  0.58272677  0.07890039  0.69324108  1
  Se  Se231  1  0.56805615  0.42497376  0.18865909  1
  Se  Se232  1  0.57793568  0.41547444  0.69555079  1
  Se  Se233  1  0.57429346  0.76289961  0.18860704  1
  Se  Se234  1  0.58181587  0.75582642  0.68580579  1
  Se  Se235  1  0.92382884  0.07828939  0.19979564  1
  Se  Se236  1  0.93197958  0.07636238  0.69881833  1
  Se  Se237  1  0.91742558  0.40590347  0.18856074  1
  Se  Se238  1  0.92127677  0.41831325  0.70320200  1
  Se  Se239  1  0.91922162  0.74326425  0.19728872  1
  Se  Se240  1  0.91184960  0.76482074  0.68509440  1
  Se  Se241  1  0.08622923  0.24078959  0.20052076  1
  Se  Se242  1  0.06172209  0.26775530  0.69093831  1
  Se  Se243  1  0.08823489  0.57400739  0.20216439  1
  Se  Se244  1  0.09421208  0.58044734  0.68509886  1
  Se  Se245  1  0.08231092  0.91901744  0.19887011  1
  Se  Se246  1  0.08242093  0.91985930  0.69712241  1
  Se  Se247  1  0.42925764  0.24605005  0.18991928  1
  Se  Se248  1  0.41178563  0.23702987  0.68460253  1
  Se  Se249  1  0.40991193  0.59132707  0.20480607  1
  Se  Se250  1  0.41992029  0.58346560  0.70135738  1
  Se  Se251  1  0.40972926  0.92262767  0.19956505  1
  Se  Se252  1  0.42507035  0.90948567  0.68476945  1
  Se  Se253  1  0.76281205  0.24048146  0.18595468  1
  Se  Se254  1  0.75499093  0.23725965  0.69483674  1
  Se  Se255  1  0.75221030  0.57653072  0.17987590  1
  Se  Se256  1  0.75562830  0.57444490  0.69928234  1
  Se  Se257  1  0.74943867  0.92413831  0.20288311  1
  Se  Se258  1  0.74860833  0.92237616  0.70376874  1
