# generated using pymatgen
data_In86Cu29Se144
_symmetry_space_group_name_H-M   'P 1'
_cell_length_a   17.57964414
_cell_length_b   17.58514589
_cell_length_c   23.43755513
_cell_angle_alpha   90.00883402
_cell_angle_beta   89.99330486
_cell_angle_gamma   90.01000635
_symmetry_Int_Tables_number   1
_chemical_formula_structural   In86Cu29Se144
_chemical_formula_sum   'In86 Cu29 Se144'
_cell_volume   7245.49977051
_cell_formula_units_Z   1
loop_
 _symmetry_equiv_pos_site_id
 _symmetry_equiv_pos_as_xyz
  1  'x, y, z'
loop_
 _atom_site_type_symbol
 _atom_site_label
 _atom_site_symmetry_multiplicity
 _atom_site_fract_x
 _atom_site_fract_y
 _atom_site_fract_z
 _atom_site_occupancy
  In  In0  1  -0.02156068  0.16327523  0.12903718  1
  In  In1  1  0.00315002  0.15248211  0.63169731  1
  In  In2  1  0.01153619  0.50277536  0.13131070  1
  In  In3  1  -0.01348589  0.50655045  0.62377580  1
  In  In4  1  -0.00955977  0.84410340  0.13093287  1
  In  In5  1  0.00738684  0.84247465  0.61435503  1
  In  In6  1  0.34724681  0.15099415  0.13109317  1
  In  In7  1  0.32685369  0.16652568  0.61524321  1
  In  In8  1  0.34850781  0.49827114  0.14231817  1
  In  In9  1  0.34113375  0.48397267  0.61564326  1
  In  In10  1  0.37636486  0.80816171  0.16881994  1
  In  In11  1  0.33288224  0.84688091  0.61969486  1
  In  In12  1  0.67230567  0.17866058  0.11763251  1
  In  In13  1  0.66113277  0.17891661  0.62202193  1
  In  In14  1  0.64389908  0.50678744  0.14064982  1
  In  In15  1  0.66681939  0.50212302  0.61714670  1
  In  In16  1  0.65528340  0.82026619  0.12012449  1
  In  In17  1  0.66073138  0.81425876  0.62285281  1
  In  In18  1  0.16537701  0.00547671  0.37633849  1
  In  In19  1  0.17019831  -0.00525567  0.86543845  1
  In  In20  1  0.17396345  0.31820113  0.38175258  1
  In  In21  1  0.16229412  0.33787473  0.87075815  1
  In  In22  1  0.17393243  0.68054770  0.37023566  1
  In  In23  1  0.17265548  0.67458078  0.87629657  1
  In  In24  1  0.49883094  0.01361669  0.37389232  1
  In  In25  1  0.49043928  0.00903304  0.87846688  1
  In  In26  1  0.50249562  0.33056387  0.36664697  1
  In  In27  1  0.51077700  0.33018734  0.89090883  1
  In  In28  1  0.48312291  0.65472884  0.34092774  1
  In  In29  1  0.50989990  0.64871702  0.88526260  1
  In  In30  1  0.82549467  -0.01709949  0.37577365  1
  In  In31  1  0.83522656  -0.00596992  0.88031093  1
  In  In32  1  0.83385241  0.34572641  0.37453707  1
  In  In33  1  0.82946319  0.32006753  0.87856501  1
  In  In34  1  0.83189836  0.66505200  0.36817759  1
  In  In35  1  0.83322046  0.68392620  0.87910562  1
  In  In36  1  0.01188176  0.17482271  0.37707191  1
  In  In37  1  -0.00547709  0.15218008  0.86843519  1
  In  In38  1  -0.01607991  0.49867795  0.37779243  1
  In  In39  1  0.01053940  0.49782838  0.87413935  1
  In  In40  1  -0.00235835  0.83533377  0.37420225  1
  In  In41  1  -0.01185214  0.83887272  0.87636376  1
  In  In42  1  0.33750474  0.16802712  0.37130928  1
  In  In43  1  0.35106624  0.15656627  0.87617829  1
  In  In44  1  0.34925786  0.49907331  0.36382014  1
  In  In45  1  0.35558595  0.50140879  0.87896355  1
  In  In46  1  0.32740453  0.82728556  0.36550696  1
  In  In47  1  0.33116835  0.83989501  0.87756426  1
  In  In48  1  0.65113396  0.15876142  0.37355965  1
  In  In49  1  0.66479378  0.17407436  0.89018692  1
  In  In50  1  0.66389678  0.50578037  0.36341447  1
  In  In51  1  0.65078295  0.49404262  0.87731312  1
  In  In52  1  0.67200930  0.82916692  0.37249693  1
  In  In53  1  0.67295445  0.82436248  0.87829678  1
  In  In54  1  0.17331486  -0.01071740  0.13264391  1
  In  In55  1  0.16638641  0.00253140  0.61964797  1
  In  In56  1  0.17457067  0.34590568  0.13204524  1
  In  In57  1  0.16510918  0.30744227  0.61710000  1
  In  In58  1  0.17375021  0.66567432  0.13971910  1
  In  In59  1  0.15447407  0.66859313  0.61515271  1
  In  In60  1  0.49427497  -0.00847877  0.11848491  1
  In  In61  1  0.48361886  0.00411411  0.63061339  1
  In  In62  1  0.50065804  0.33158391  0.13126949  1
  In  In63  1  0.48480563  0.33155896  0.60503192  1
  In  In64  1  0.50236137  0.66669602  0.13277495  1
  In  In65  1  0.51242371  0.66291133  0.62532779  1
  In  In66  1  0.83742883  0.00928065  0.12116637  1
  In  In67  1  0.84675564  -0.00021653  0.62264752  1
  In  In68  1  0.81906987  0.31329131  0.12249012  1
  In  In69  1  0.82569802  0.34867118  0.62464244  1
  In  In70  1  0.82202300  0.67696009  0.13140254  1
  In  In71  1  0.82141028  0.65932649  0.61427508  1
  In  In72  1  0.17686128  0.83234203  0.00127185  1
  In  In73  1  0.66719366  -0.00001204  0.75044389  1
  In  In74  1  0.33084147  0.32367611  0.74482010  1
  In  In75  1  0.66204643  0.33360143  0.75535972  1
  In  In76  1  0.17158317  0.50132187  0.49118130  1
  In  In77  1  0.82341199  0.50023367  0.01208496  1
  In  In78  1  0.16799623  0.16525153  0.00556061  1
  In  In79  1  0.50257064  0.82949292  0.49491906  1
  In  In80  1  0.66800617  -0.00002255  0.24740459  1
  In  In81  1  0.33215724  0.66661966  0.75498967  1
  In  In82  1  0.00111100  0.33374603  0.25392812  1
  In  In83  1  0.83403781  0.16761447  0.50284144  1
  In  In84  1  -0.00907519  0.67160448  0.74877990  1
  In  In85  1  0.17857777  0.50360123  0.00774961  1
  Cu  Cu86  1  0.15749143  0.84083164  0.25560092  1
  Cu  Cu87  1  0.66211553  0.33832802  0.49372066  1
  Cu  Cu88  1  0.00303554  -0.00003895  0.49796979  1
  Cu  Cu89  1  0.49918892  0.16752983  0.24784576  1
  Cu  Cu90  1  0.83720405  0.83389934  0.24829389  1
  Cu  Cu91  1  0.83363391  0.49673224  0.24839179  1
  Cu  Cu92  1  0.16741750  0.16696020  0.25342833  1
  Cu  Cu93  1  0.34056106  0.33472958  0.00722887  1
  Cu  Cu94  1  0.34018485  -0.00416737  0.00325310  1
  Cu  Cu95  1  0.50160123  0.83020922  0.74885410  1
  Cu  Cu96  1  0.16423433  0.49018670  0.75072466  1
  Cu  Cu97  1  -0.00537496  0.00377606  0.00154999  1
  Cu  Cu98  1  -0.00774984  0.67580612  0.49548592  1
  Cu  Cu99  1  0.00146223  0.33497972  0.50081858  1
  Cu  Cu100  1  0.17021157  0.50391634  0.25692327  1
  Cu  Cu101  1  0.83885055  0.16561588  0.75523111  1
  Cu  Cu102  1  0.50487118  0.49581245  0.74949671  1
  Cu  Cu103  1  0.66046275  -0.00373898  0.49656066  1
  Cu  Cu104  1  0.66583912  0.66856078  0.00631779  1
  Cu  Cu105  1  0.82971815  0.50470347  0.74334392  1
  Cu  Cu106  1  0.16561007  0.15995748  0.74444942  1
  Cu  Cu107  1  0.66493993  0.65936199  0.49052820  1
  Cu  Cu108  1  0.00172640  0.67525373  0.00641250  1
  Cu  Cu109  1  0.66666262  -0.00559060  0.00287647  1
  Cu  Cu110  1  0.34103665  0.66556562  0.48692371  1
  Cu  Cu111  1  0.16645754  0.83931467  0.74134154  1
  Cu  Cu112  1  -0.00740844  0.32841512  -0.00201127  1
  Cu  Cu113  1  0.32663440  0.00399334  0.49742087  1
  Cu  Cu114  1  0.83446853  0.83560300  0.75033546  1
  Se  Se115  1  0.07730603  0.07597365  0.06437375  1
  Se  Se116  1  0.08204066  0.08756283  0.55199191  1
  Se  Se117  1  0.07720816  0.40723894  0.05553432  1
  Se  Se118  1  0.08188948  0.41889553  0.56038290  1
  Se  Se119  1  0.08632769  0.74866161  0.06654575  1
  Se  Se120  1  0.08351756  0.75467654  0.54448837  1
  Se  Se121  1  0.42258710  0.08654996  0.04930231  1
  Se  Se122  1  0.41570505  0.08092305  0.55164983  1
  Se  Se123  1  0.41679457  0.41929739  0.06354084  1
  Se  Se124  1  0.43268601  0.43704638  0.53959376  1
  Se  Se125  1  0.42299802  0.76249812  0.07117278  1
  Se  Se126  1  0.41160472  0.74117257  0.55976807  1
  Se  Se127  1  0.74827996  0.08346396  0.05239648  1
  Se  Se128  1  0.74051416  0.07502773  0.56061370  1
  Se  Se129  1  0.73204966  0.41567899  0.07118067  1
  Se  Se130  1  0.74847149  0.41867189  0.54752330  1
  Se  Se131  1  0.75424260  0.75339363  0.05176297  1
  Se  Se132  1  0.74288955  0.74749911  0.54614207  1
  Se  Se133  1  0.25736989  0.25612123  0.06505011  1
  Se  Se134  1  0.27349328  0.27359514  0.55028889  1
  Se  Se135  1  0.26424093  0.59086787  0.06892287  1
  Se  Se136  1  0.26069553  0.59173697  0.55561809  1
  Se  Se137  1  0.26505098  0.91529028  0.06465032  1
  Se  Se138  1  0.24538016  0.91657777  0.54880334  1
  Se  Se139  1  0.57048320  0.24631235  0.05729421  1
  Se  Se140  1  0.58293081  0.25100149  0.54703220  1
  Se  Se141  1  0.58264710  0.58605728  0.05912005  1
  Se  Se142  1  0.58032534  0.58237737  0.54869649  1
  Se  Se143  1  0.58058254  0.91013426  0.05184572  1
  Se  Se144  1  0.58232980  0.92091476  0.56398884  1
  Se  Se145  1  0.91154932  0.24564693  0.05177782  1
  Se  Se146  1  0.92196081  0.25684856  0.56532938  1
  Se  Se147  1  0.92476429  0.58959138  0.06371007  1
  Se  Se148  1  0.91499930  0.58519163  0.54797908  1
  Se  Se149  1  0.91360093  0.91648072  0.05322845  1
  Se  Se150  1  0.91420733  0.91685613  0.54696361  1
  Se  Se151  1  0.08692399  0.24844165  0.45502124  1
  Se  Se152  1  0.07859687  0.25141652  0.94043472  1
  Se  Se153  1  0.07596749  0.59302257  0.43747025  1
  Se  Se154  1  0.08070335  0.59421822  0.94684205  1
  Se  Se155  1  0.08393189  0.91639010  0.44276477  1
  Se  Se156  1  0.08038725  0.92415820  0.94379454  1
  Se  Se157  1  0.42906394  0.24359450  0.43713274  1
  Se  Se158  1  0.41430274  0.24812093  0.94853192  1
  Se  Se159  1  0.42606102  0.59027762  0.43148843  1
  Se  Se160  1  0.41524152  0.58400223  0.95486903  1
  Se  Se161  1  0.40980112  0.92198355  0.43897332  1
  Se  Se162  1  0.42038224  0.91319313  0.94622361  1
  Se  Se163  1  0.74419414  0.25156193  0.43854128  1
  Se  Se164  1  0.74019427  0.26668993  0.95414837  1
  Se  Se165  1  0.75170277  0.57874559  0.43745938  1
  Se  Se166  1  0.74496298  0.58957830  0.94135430  1
  Se  Se167  1  0.74417597  0.90944457  0.44981427  1
  Se  Se168  1  0.75037933  0.91252534  0.94666863  1
  Se  Se169  1  0.24905540  0.09163989  0.44276971  1
  Se  Se170  1  0.25368555  0.07230469  0.94342513  1
  Se  Se171  1  0.26653858  0.41346044  0.43675983  1
  Se  Se172  1  0.25871475  0.40750776  0.94190996  1
  Se  Se173  1  0.25402110  0.75436250  0.44563633  1
  Se  Se174  1  0.26872069  0.73511417  0.94778721  1
  Se  Se175  1  0.57711757  0.08473827  0.45170651  1
  Se  Se176  1  0.58387497  0.07796004  0.94774537  1
  Se  Se177  1  0.58558596  0.41901319  0.43348100  1
  Se  Se178  1  0.57803674  0.42608530  0.95598330  1
  Se  Se179  1  0.58012790  0.73603903  0.43073409  1
  Se  Se180  1  0.58416986  0.74785316  0.94654025  1
  Se  Se181  1  0.91942348  0.07896051  0.43847496  1
  Se  Se182  1  0.91290533  0.08664181  0.94645905  1
  Se  Se183  1  0.91273541  0.41602010  0.45254751  1
  Se  Se184  1  0.91889421  0.42003663  0.94369756  1
  Se  Se185  1  0.90754939  0.75338053  0.43950015  1
  Se  Se186  1  0.91893064  0.75584239  0.95153481  1
  Se  Se187  1  0.25194927  0.25277799  0.30252430  1
  Se  Se188  1  0.24318865  0.23617154  0.81119267  1
  Se  Se189  1  0.25465150  0.58747431  0.30818355  1
  Se  Se190  1  0.24347690  0.56752547  0.81293624  1
  Se  Se191  1  0.24593929  0.92227079  0.30585982  1
  Se  Se192  1  0.25463507  0.91172081  0.79929828  1
  Se  Se193  1  0.58874854  0.24632333  0.29854371  1
  Se  Se194  1  0.57368150  0.24005998  0.81168874  1
  Se  Se195  1  0.60664910  0.60819929  0.29355996  1
  Se  Se196  1  0.58451570  0.58164313  0.80293988  1
  Se  Se197  1  0.57728466  0.91459004  0.30996284  1
  Se  Se198  1  0.57951707  0.91033508  0.81168233  1
  Se  Se199  1  0.90914251  0.24361813  0.31092383  1
  Se  Se200  1  0.91953062  0.25228322  0.80736689  1
  Se  Se201  1  0.91823932  0.58007291  0.30042738  1
  Se  Se202  1  0.90766199  0.57823307  0.81210175  1
  Se  Se203  1  0.91587880  0.91901938  0.30303433  1
  Se  Se204  1  0.91576400  0.92071236  0.80274959  1
  Se  Se205  1  0.08061178  0.08685768  0.30533344  1
  Se  Se206  1  0.08372700  0.07689407  0.80063801  1
  Se  Se207  1  0.09132383  0.42096687  0.31809700  1
  Se  Se208  1  0.07489122  0.40995573  0.79949837  1
  Se  Se209  1  0.07732426  0.74952013  0.30438217  1
  Se  Se210  1  0.08899751  0.76037185  0.80615953  1
  Se  Se211  1  0.41496575  0.08236314  0.29909533  1
  Se  Se212  1  0.41341923  0.07547042  0.79877534  1
  Se  Se213  1  0.43945479  0.42704920  0.29412310  1
  Se  Se214  1  0.42641104  0.41046098  0.80689817  1
  Se  Se215  1  0.42269392  0.77211429  0.29170047  1
  Se  Se216  1  0.42556921  0.75092979  0.81432882  1
  Se  Se217  1  0.75623807  0.08635179  0.31185642  1
  Se  Se218  1  0.75149881  0.09219236  0.81444985  1
  Se  Se219  1  0.74929658  0.41362344  0.30030313  1
  Se  Se220  1  0.75695780  0.42503057  0.81105641  1
  Se  Se221  1  0.75148659  0.75135093  0.29929437  1
  Se  Se222  1  0.75188476  0.74948607  0.80097123  1
  Se  Se223  1  0.24752754  0.08469166  0.19646312  1
  Se  Se224  1  0.25191690  0.08361861  0.68853440  1
  Se  Se225  1  0.25372917  0.41837820  0.20598885  1
  Se  Se226  1  0.24131855  0.41695114  0.68546769  1
  Se  Se227  1  0.24576766  0.75736069  0.20701346  1
  Se  Se228  1  0.24315364  0.75021269  0.68665250  1
  Se  Se229  1  0.57927803  0.08736677  0.18527449  1
  Se  Se230  1  0.57900209  0.09214134  0.69173846  1
  Se  Se231  1  0.56148452  0.42321921  0.20836510  1
  Se  Se232  1  0.57648570  0.41385507  0.68456916  1
  Se  Se233  1  0.59524621  0.74325984  0.20147293  1
  Se  Se234  1  0.58461780  0.74296695  0.70119242  1
  Se  Se235  1  0.91470462  0.07543688  0.20105308  1
  Se  Se236  1  0.91502020  0.07741064  0.70117991  1
  Se  Se237  1  0.91183105  0.41571755  0.18606489  1
  Se  Se238  1  0.91548333  0.41896761  0.69604772  1
  Se  Se239  1  0.92032151  0.74652835  0.19646937  1
  Se  Se240  1  0.90846625  0.75741929  0.68212215  1
  Se  Se241  1  0.08825091  0.24448766  0.18836278  1
  Se  Se242  1  0.08177203  0.24716791  0.69574461  1
  Se  Se243  1  0.08371746  0.58449892  0.20466374  1
  Se  Se244  1  0.08871143  0.57917393  0.69383479  1
  Se  Se245  1  0.07614144  0.92311909  0.19953006  1
  Se  Se246  1  0.08083323  0.92092927  0.69009493  1
  Se  Se247  1  0.41053216  0.25014803  0.19788815  1
  Se  Se248  1  0.42646249  0.24275513  0.68565710  1
  Se  Se249  1  0.41186850  0.59889117  0.20648303  1
  Se  Se250  1  0.41733329  0.57285328  0.69176351  1
  Se  Se251  1  0.40491340  0.94591787  0.19934502  1
  Se  Se252  1  0.41385125  0.91062915  0.69890007  1
  Se  Se253  1  0.74741551  0.24162232  0.20043507  1
  Se  Se254  1  0.75841886  0.24462100  0.69489943  1
  Se  Se255  1  0.75109828  0.57979447  0.19508625  1
  Se  Se256  1  0.74417078  0.58435248  0.69088910  1
  Se  Se257  1  0.75389252  0.90885020  0.18481372  1
  Se  Se258  1  0.75208157  0.90951909  0.68606576  1
