# generated using pymatgen
data_In86Cu29Se144
_symmetry_space_group_name_H-M   'P 1'
_cell_length_a   17.61599185
_cell_length_b   17.61854724
_cell_length_c   23.47399131
_cell_angle_alpha   89.99727899
_cell_angle_beta   89.98265793
_cell_angle_gamma   89.98033117
_symmetry_Int_Tables_number   1
_chemical_formula_structural   In86Cu29Se144
_chemical_formula_sum   'In86 Cu29 Se144'
_cell_volume   7285.57929723
_cell_formula_units_Z   1
loop_
 _symmetry_equiv_pos_site_id
 _symmetry_equiv_pos_as_xyz
  1  'x, y, z'
loop_
 _atom_site_type_symbol
 _atom_site_label
 _atom_site_symmetry_multiplicity
 _atom_site_fract_x
 _atom_site_fract_y
 _atom_site_fract_z
 _atom_site_occupancy
  In  In0  1  -0.00382200  0.16217066  0.13404325  1
  In  In1  1  0.01752957  0.15642735  0.62864497  1
  In  In2  1  0.01113932  0.50424734  0.14427863  1
  In  In3  1  -0.00314454  0.50046400  0.61177121  1
  In  In4  1  -0.00076594  0.83867244  0.12752542  1
  In  In5  1  0.01710462  0.83015473  0.62361730  1
  In  In6  1  0.32990697  0.14883839  0.13162847  1
  In  In7  1  0.31406891  0.14313089  0.60209645  1
  In  In8  1  0.33839766  0.50650880  0.12717881  1
  In  In9  1  0.33923202  0.50959897  0.60956705  1
  In  In10  1  0.33281064  0.83100087  0.13121219  1
  In  In11  1  0.32243864  0.83825039  0.63526382  1
  In  In12  1  0.66824039  0.17254522  0.12079917  1
  In  In13  1  0.66484032  0.17097427  0.62521909  1
  In  In14  1  0.64930277  0.50128996  0.12374198  1
  In  In15  1  0.66171141  0.49147219  0.61685482  1
  In  In16  1  0.66393524  0.82040784  0.10446899  1
  In  In17  1  0.65997481  0.83708594  0.63559273  1
  In  In18  1  0.17357838  0.00901378  0.37768839  1
  In  In19  1  0.16048269  -0.00714746  0.87163345  1
  In  In20  1  0.15930809  0.34622355  0.37976460  1
  In  In21  1  0.15929513  0.34376459  0.86784691  1
  In  In22  1  0.16805834  0.66448310  0.36659564  1
  In  In23  1  0.17857123  0.66964132  0.87569245  1
  In  In24  1  0.48472032  0.01667221  0.37995723  1
  In  In25  1  0.49369440  -0.00065358  0.88038127  1
  In  In26  1  0.50107253  0.33573582  0.37484425  1
  In  In27  1  0.50212522  0.32772180  0.88349121  1
  In  In28  1  0.47575203  0.66496653  0.37763749  1
  In  In29  1  0.48950512  0.67173969  0.88328103  1
  In  In30  1  0.84847049  -0.01102221  0.37440790  1
  In  In31  1  0.84514470  -0.00283559  0.88655602  1
  In  In32  1  0.84203029  0.34831613  0.36406727  1
  In  In33  1  0.83368677  0.32347817  0.87742682  1
  In  In34  1  0.84543829  0.64804449  0.37825821  1
  In  In35  1  0.84681674  0.67444369  0.88056999  1
  In  In36  1  0.01877882  0.18693163  0.35734798  1
  In  In37  1  0.00201846  0.16325129  0.87396524  1
  In  In38  1  0.00346636  0.49567473  0.36917056  1
  In  In39  1  0.01022003  0.50106238  0.86870314  1
  In  In40  1  0.05180831  0.86735529  0.32605746  1
  In  In41  1  -0.00364900  0.84597389  0.88766545  1
  In  In42  1  0.33362106  0.16317383  0.38220129  1
  In  In43  1  0.34667603  0.16185802  0.87785284  1
  In  In44  1  0.31164725  0.53318075  0.40629882  1
  In  In45  1  0.33117332  0.50939290  0.87101395  1
  In  In46  1  0.30806645  0.82268805  0.35512275  1
  In  In47  1  0.33088981  0.83449757  0.87862060  1
  In  In48  1  0.65217737  0.17010224  0.37003910  1
  In  In49  1  0.66780889  0.17076157  0.88330808  1
  In  In50  1  0.67533938  0.49872104  0.38010764  1
  In  In51  1  0.65941065  0.49144428  0.87364656  1
  In  In52  1  0.66903223  0.83470324  0.36649314  1
  In  In53  1  0.66230913  0.82947719  0.88962412  1
  In  In54  1  0.19110278  -0.01643163  0.15930172  1
  In  In55  1  0.16926122  -0.00558611  0.62476576  1
  In  In56  1  0.15894928  0.32103818  0.13836980  1
  In  In57  1  0.16227357  0.32596372  0.61688480  1
  In  In58  1  0.14797182  0.69467040  0.15869499  1
  In  In59  1  0.18481828  0.68265925  0.60357140  1
  In  In60  1  0.49401664  -0.00817825  0.11784637  1
  In  In61  1  0.46921506  -0.01490006  0.61871842  1
  In  In62  1  0.50286801  0.34413957  0.12289755  1
  In  In63  1  0.49692483  0.32785062  0.61970818  1
  In  In64  1  0.49618249  0.66295636  0.11702639  1
  In  In65  1  0.48574974  0.64503674  0.62420949  1
  In  In66  1  0.83242616  0.00007582  0.11903544  1
  In  In67  1  0.84517966  0.01286296  0.62692961  1
  In  In68  1  0.84084032  0.31732280  0.13086443  1
  In  In69  1  0.83545337  0.34285156  0.61997576  1
  In  In70  1  0.83157167  0.67557615  0.11732773  1
  In  In71  1  0.84425838  0.66622685  0.61956672  1
  In  In72  1  0.16530914  0.16417287  0.01179943  1
  In  In73  1  0.17560405  0.50473741  0.00560411  1
  In  In74  1  0.83452711  0.16677562  0.49394796  1
  In  In75  1  0.66723622  0.33237766  0.74268890  1
  In  In76  1  0.00777406  0.66703383  0.74455329  1
  In  In77  1  0.83224782  0.50147207  0.00210654  1
  In  In78  1  0.66525362  0.66624242  0.76169107  1
  In  In79  1  0.66229091  0.00452506  0.76123904  1
  In  In80  1  0.33440568  0.32896576  0.74624886  1
  In  In81  1  0.66745165  0.00182816  0.23716935  1
  In  In82  1  0.49104232  0.83077497  0.49209620  1
  In  In83  1  0.66101793  0.66523740  0.23948294  1
  In  In84  1  0.33118978  0.34560595  0.25866457  1
  In  In85  1  0.84183405  0.82052018  0.49547956  1
  Cu  Cu86  1  0.83062958  0.48901718  0.24946098  1
  Cu  Cu87  1  0.82503468  0.15902482  0.24802748  1
  Cu  Cu88  1  0.48986944  0.17306740  0.25329253  1
  Cu  Cu89  1  0.17098221  0.16698831  0.74430791  1
  Cu  Cu90  1  0.49435420  0.15997528  0.74668611  1
  Cu  Cu91  1  0.66071777  -0.00376566  0.49835764  1
  Cu  Cu92  1  0.33122184  -0.00252811  0.00608952  1
  Cu  Cu93  1  -0.00421184  0.33181898  0.49284871  1
  Cu  Cu94  1  0.48915902  0.82187160  0.75449970  1
  Cu  Cu95  1  0.15990373  0.49778508  0.74051494  1
  Cu  Cu96  1  0.00605836  0.66828602  0.48731474  1
  Cu  Cu97  1  0.00712395  0.00254996  0.00602793  1
  Cu  Cu98  1  0.01118166  -0.01162710  0.49289905  1
  Cu  Cu99  1  0.66639921  0.33257332  0.00265083  1
  Cu  Cu100  1  0.83151566  0.82204942  0.24508141  1
  Cu  Cu101  1  0.49681679  0.50373175  0.25252214  1
  Cu  Cu102  1  0.84210707  0.84787352  0.75742131  1
  Cu  Cu103  1  0.34035831  0.33556384  0.00391437  1
  Cu  Cu104  1  0.49597756  0.84689780  0.25004337  1
  Cu  Cu105  1  0.66519422  0.00542830  0.00072488  1
  Cu  Cu106  1  0.33798754  0.33038417  0.49602363  1
  Cu  Cu107  1  0.83301814  0.50126203  0.73881296  1
  Cu  Cu108  1  0.00013817  0.33443929  0.00678356  1
  Cu  Cu109  1  0.00891945  0.67385197  0.01001457  1
  Cu  Cu110  1  0.32858228  0.67355899  0.00479677  1
  Cu  Cu111  1  0.66701744  0.33389244  0.49757640  1
  Cu  Cu112  1  0.85032642  0.16606779  0.75463545  1
  Cu  Cu113  1  0.16900269  0.83324689  0.74985115  1
  Cu  Cu114  1  0.66312455  0.66875183  0.50090663  1
  Se  Se115  1  0.08647199  0.06984344  0.07341525  1
  Se  Se116  1  0.08475468  0.07410016  0.55285308  1
  Se  Se117  1  0.08213071  0.41386860  0.06412950  1
  Se  Se118  1  0.07992729  0.41160635  0.54916862  1
  Se  Se119  1  0.09052124  0.75211090  0.06637803  1
  Se  Se120  1  0.08272977  0.75480413  0.54393313  1
  Se  Se121  1  0.41451799  0.08600550  0.05453923  1
  Se  Se122  1  0.43488129  0.09274469  0.55154956  1
  Se  Se123  1  0.41745442  0.42603476  0.05518826  1
  Se  Se124  1  0.42006526  0.41325661  0.55039297  1
  Se  Se125  1  0.41487199  0.75650899  0.05623490  1
  Se  Se126  1  0.41313037  0.75098505  0.56562952  1
  Se  Se127  1  0.74956306  0.08678100  0.05396720  1
  Se  Se128  1  0.74351180  0.07468939  0.55620470  1
  Se  Se129  1  0.74763853  0.40975684  0.06400600  1
  Se  Se130  1  0.75240373  0.41782980  0.54879533  1
  Se  Se131  1  0.75531301  0.74385175  0.04046225  1
  Se  Se132  1  0.73931209  0.75019345  0.56255837  1
  Se  Se133  1  0.25868934  0.25998176  0.06479770  1
  Se  Se134  1  0.24693987  0.24973625  0.54578424  1
  Se  Se135  1  0.24784058  0.60052631  0.06931858  1
  Se  Se136  1  0.23216527  0.56658197  0.54791157  1
  Se  Se137  1  0.24925078  0.92377251  0.06853267  1
  Se  Se138  1  0.26029373  0.91976807  0.55831572  1
  Se  Se139  1  0.57867016  0.25292019  0.05556958  1
  Se  Se140  1  0.58810209  0.24954137  0.55336422  1
  Se  Se141  1  0.59607759  0.59688825  0.05261566  1
  Se  Se142  1  0.58348273  0.58481449  0.55506191  1
  Se  Se143  1  0.58140038  0.91731882  0.04840544  1
  Se  Se144  1  0.58487310  0.91605034  0.55857937  1
  Se  Se145  1  0.92267334  0.24432149  0.05696580  1
  Se  Se146  1  0.92425596  0.24960808  0.55916446  1
  Se  Se147  1  0.93244703  0.58155932  0.06247243  1
  Se  Se148  1  0.91850587  0.59095875  0.54417854  1
  Se  Se149  1  0.91917563  0.91638231  0.05435228  1
  Se  Se150  1  0.92282084  0.92119725  0.55676266  1
  Se  Se151  1  0.08315539  0.24837417  0.44428069  1
  Se  Se152  1  0.08460873  0.25948961  0.94556470  1
  Se  Se153  1  0.08597692  0.57987923  0.43698951  1
  Se  Se154  1  0.07810979  0.59081761  0.94392591  1
  Se  Se155  1  0.08526066  0.90796921  0.43153638  1
  Se  Se156  1  0.09133327  0.91935594  0.95252903  1
  Se  Se157  1  0.42365006  0.24864804  0.44385547  1
  Se  Se158  1  0.41718663  0.24698629  0.95076549  1
  Se  Se159  1  0.43110880  0.58014598  0.45958655  1
  Se  Se160  1  0.40417954  0.58416148  0.94859084  1
  Se  Se161  1  0.40172834  0.91407802  0.43118157  1
  Se  Se162  1  0.41399734  0.91556558  0.94918124  1
  Se  Se163  1  0.74597761  0.25685067  0.43429022  1
  Se  Se164  1  0.75376581  0.25061424  0.95133213  1
  Se  Se165  1  0.75078680  0.58749310  0.44945780  1
  Se  Se166  1  0.74842502  0.58507048  0.93387409  1
  Se  Se167  1  0.74499002  0.91753485  0.44299119  1
  Se  Se168  1  0.74855637  0.92116958  0.94748171  1
  Se  Se169  1  0.25155108  0.08453068  0.45236891  1
  Se  Se170  1  0.25295135  0.07928546  0.94487623  1
  Se  Se171  1  0.24794279  0.41555838  0.45205681  1
  Se  Se172  1  0.25584788  0.40836966  0.94136389  1
  Se  Se173  1  0.25993825  0.73648663  0.43631383  1
  Se  Se174  1  0.24489757  0.75510590  0.94960463  1
  Se  Se175  1  0.58491978  0.08324764  0.44408388  1
  Se  Se176  1  0.58115458  0.08430712  0.94410152  1
  Se  Se177  1  0.58499333  0.41847639  0.44428648  1
  Se  Se178  1  0.58397768  0.41560648  0.94873638  1
  Se  Se179  1  0.59147779  0.74483171  0.43512380  1
  Se  Se180  1  0.58270053  0.74026627  0.95079155  1
  Se  Se181  1  0.92952500  0.07620065  0.44073919  1
  Se  Se182  1  0.92629752  0.08741661  0.95076978  1
  Se  Se183  1  0.91552411  0.42030751  0.44255020  1
  Se  Se184  1  0.92784713  0.41465826  0.94172026  1
  Se  Se185  1  0.93207586  0.75161472  0.42615798  1
  Se  Se186  1  0.92322802  0.75179679  0.95379868  1
  Se  Se187  1  0.24629760  0.25136974  0.31664356  1
  Se  Se188  1  0.24530425  0.24163909  0.81311737  1
  Se  Se189  1  0.26482331  0.57850089  0.30982180  1
  Se  Se190  1  0.23838499  0.57701827  0.80173735  1
  Se  Se191  1  0.24934432  0.93374235  0.29841506  1
  Se  Se192  1  0.25092711  0.91575007  0.80594410  1
  Se  Se193  1  0.57878882  0.25606259  0.29940439  1
  Se  Se194  1  0.57816654  0.24016482  0.80408840  1
  Se  Se195  1  0.57898430  0.58520654  0.31219138  1
  Se  Se196  1  0.56862173  0.57525241  0.81032785  1
  Se  Se197  1  0.57805461  0.92398029  0.30863731  1
  Se  Se198  1  0.57584384  0.90096949  0.81062503  1
  Se  Se199  1  0.90605493  0.24531863  0.30138385  1
  Se  Se200  1  0.92496780  0.25659712  0.80750305  1
  Se  Se201  1  0.91478316  0.57481659  0.29884240  1
  Se  Se202  1  0.90932752  0.57939122  0.80281309  1
  Se  Se203  1  0.91185704  0.90858725  0.29734680  1
  Se  Se204  1  0.92710236  0.92667809  0.81009668  1
  Se  Se205  1  0.06142414  0.06113378  0.31297839  1
  Se  Se206  1  0.08992137  0.08805073  0.80514241  1
  Se  Se207  1  0.07189079  0.40102037  0.30154485  1
  Se  Se208  1  0.07652052  0.41617696  0.79370232  1
  Se  Se209  1  0.07832412  0.73018588  0.29051235  1
  Se  Se210  1  0.08509848  0.75767073  0.81240936  1
  Se  Se211  1  0.40764555  0.08737920  0.30242491  1
  Se  Se212  1  0.41668886  0.07708580  0.80434387  1
  Se  Se213  1  0.41595206  0.43657500  0.31934148  1
  Se  Se214  1  0.42113799  0.41389800  0.81208771  1
  Se  Se215  1  0.42152294  0.75622900  0.30220435  1
  Se  Se216  1  0.40535326  0.74235862  0.80928587  1
  Se  Se217  1  0.75171879  0.07860215  0.31225517  1
  Se  Se218  1  0.76162845  0.09324875  0.81315122  1
  Se  Se219  1  0.73877021  0.41498372  0.30154078  1
  Se  Se220  1  0.76008647  0.42191232  0.80464649  1
  Se  Se221  1  0.75637960  0.74342262  0.30681924  1
  Se  Se222  1  0.76128514  0.76381851  0.81183315  1
  Se  Se223  1  0.21920321  0.11743071  0.19795890  1
  Se  Se224  1  0.25298497  0.08258445  0.69159676  1
  Se  Se225  1  0.24114359  0.42544998  0.19119721  1
  Se  Se226  1  0.24606625  0.41732080  0.68530088  1
  Se  Se227  1  0.26805291  0.74484125  0.20685899  1
  Se  Se228  1  0.24327547  0.74189710  0.69543949  1
  Se  Se229  1  0.56934390  0.09442978  0.18889887  1
  Se  Se230  1  0.57754143  0.07941533  0.68757884  1
  Se  Se231  1  0.57954632  0.41975474  0.19965947  1
  Se  Se232  1  0.57070491  0.42291951  0.69244515  1
  Se  Se233  1  0.57426454  0.76586776  0.18833362  1
  Se  Se234  1  0.57228460  0.74655644  0.69420121  1
  Se  Se235  1  0.90783186  0.07414888  0.19622951  1
  Se  Se236  1  0.92931075  0.08115935  0.69980199  1
  Se  Se237  1  0.91765782  0.41142517  0.19471735  1
  Se  Se238  1  0.92050953  0.42154045  0.68830265  1
  Se  Se239  1  0.91655443  0.74410881  0.19028632  1
  Se  Se240  1  0.91043292  0.76269716  0.69267780  1
  Se  Se241  1  0.07580664  0.24307011  0.20542818  1
  Se  Se242  1  0.08616323  0.25278295  0.69572576  1
  Se  Se243  1  0.08710847  0.58491466  0.21558759  1
  Se  Se244  1  0.09163588  0.58428683  0.67774810  1
  Se  Se245  1  0.08184111  0.90678402  0.20536047  1
  Se  Se246  1  0.08424060  0.91587711  0.69679632  1
  Se  Se247  1  0.41286213  0.25459792  0.19035580  1
  Se  Se248  1  0.41426870  0.23389532  0.68378828  1
  Se  Se249  1  0.42191326  0.58905147  0.19507159  1
  Se  Se250  1  0.40317103  0.57415102  0.69596670  1
  Se  Se251  1  0.41270005  0.92762875  0.19556270  1
  Se  Se252  1  0.41262234  0.91435513  0.70450044  1
  Se  Se253  1  0.74459565  0.24763598  0.19755293  1
  Se  Se254  1  0.76740780  0.23958624  0.69175438  1
  Se  Se255  1  0.75761718  0.57404341  0.18627106  1
  Se  Se256  1  0.75026359  0.58524410  0.68736073  1
  Se  Se257  1  0.74856852  0.89818283  0.18386303  1
  Se  Se258  1  0.75880668  0.92054613  0.69484408  1
