# generated using pymatgen
data_In86Cu29Se144
_symmetry_space_group_name_H-M   'P 1'
_cell_length_a   17.56243732
_cell_length_b   17.56126586
_cell_length_c   23.42542441
_cell_angle_alpha   89.99573923
_cell_angle_beta   90.01515312
_cell_angle_gamma   89.98980770
_symmetry_Int_Tables_number   1
_chemical_formula_structural   In86Cu29Se144
_chemical_formula_sum   'In86 Cu29 Se144'
_cell_volume   7224.83693932
_cell_formula_units_Z   1
loop_
 _symmetry_equiv_pos_site_id
 _symmetry_equiv_pos_as_xyz
  1  'x, y, z'
loop_
 _atom_site_type_symbol
 _atom_site_label
 _atom_site_symmetry_multiplicity
 _atom_site_fract_x
 _atom_site_fract_y
 _atom_site_fract_z
 _atom_site_occupancy
  In  In0  1  0.00233531  0.16258156  0.13220374  1
  In  In1  1  -0.00290356  0.16405948  0.62536836  1
  In  In2  1  -0.00292067  0.50462599  0.11948351  1
  In  In3  1  -0.01455035  0.50685396  0.64533968  1
  In  In4  1  0.02437855  0.81931425  0.14958597  1
  In  In5  1  0.00236923  0.83580059  0.62215339  1
  In  In6  1  0.35222671  0.16252892  0.12079555  1
  In  In7  1  0.31576116  0.16067435  0.61895000  1
  In  In8  1  0.32636331  0.50555301  0.11962564  1
  In  In9  1  0.34501241  0.50483762  0.63010346  1
  In  In10  1  0.33195344  0.81740637  0.13492517  1
  In  In11  1  0.32113131  0.83953381  0.63456754  1
  In  In12  1  0.67185872  0.17902424  0.12289758  1
  In  In13  1  0.66836250  0.14952573  0.62692100  1
  In  In14  1  0.66787773  0.50138144  0.12330122  1
  In  In15  1  0.68358193  0.51734640  0.63247425  1
  In  In16  1  0.65735160  0.81479197  0.13046481  1
  In  In17  1  0.67915164  0.82145063  0.63165033  1
  In  In18  1  0.15912132  0.01043338  0.38529544  1
  In  In19  1  0.15916976  -0.00969503  0.86486937  1
  In  In20  1  0.15939493  0.32038979  0.36361463  1
  In  In21  1  0.16420764  0.34487976  0.87820594  1
  In  In22  1  0.16978987  0.67864423  0.36332420  1
  In  In23  1  0.16517319  0.65929366  0.87389327  1
  In  In24  1  0.50022424  -0.00147762  0.37695725  1
  In  In25  1  0.50266057  0.00353339  0.86441610  1
  In  In26  1  0.50877406  0.34135523  0.35961868  1
  In  In27  1  0.49492901  0.34056324  0.88774476  1
  In  In28  1  0.49428541  0.67365279  0.35626434  1
  In  In29  1  0.49197761  0.66605697  0.87129772  1
  In  In30  1  0.84768200  -0.01195239  0.38930070  1
  In  In31  1  0.82576932  0.00248957  0.85569414  1
  In  In32  1  0.83223445  0.33086893  0.37128646  1
  In  In33  1  0.84783026  0.34297101  0.86779018  1
  In  In34  1  0.84128740  0.67525812  0.36861957  1
  In  In35  1  0.83570384  0.65666050  0.87250097  1
  In  In36  1  0.00303430  0.16832730  0.37945111  1
  In  In37  1  -0.01209624  0.16017203  0.86213493  1
  In  In38  1  0.00493912  0.50220878  0.36407874  1
  In  In39  1  0.00893917  0.50649618  0.87799183  1
  In  In40  1  -0.00182265  0.83412555  0.37538910  1
  In  In41  1  -0.00411995  0.82528436  0.86672210  1
  In  In42  1  0.32145541  0.15648558  0.37170834  1
  In  In43  1  0.33912339  0.17184522  0.87794811  1
  In  In44  1  0.33849996  0.50847040  0.35957576  1
  In  In45  1  0.32105857  0.51890314  0.89683377  1
  In  In46  1  0.32911637  0.81737011  0.37081989  1
  In  In47  1  0.32739498  0.82650302  0.86201684  1
  In  In48  1  0.67292389  0.17991523  0.37297941  1
  In  In49  1  0.66718628  0.15755848  0.87054239  1
  In  In50  1  0.67166397  0.50173737  0.36506050  1
  In  In51  1  0.65683849  0.50794594  0.88712977  1
  In  In52  1  0.67271901  0.83547755  0.37463659  1
  In  In53  1  0.65909734  0.83217242  0.85811583  1
  In  In54  1  0.15973336  -0.01753970  0.12932674  1
  In  In55  1  0.16285762  -0.00075042  0.62491314  1
  In  In56  1  0.15091798  0.34984005  0.13449463  1
  In  In57  1  0.15829096  0.31761670  0.61873402  1
  In  In58  1  0.16704006  0.66005982  0.12661450  1
  In  In59  1  0.15333332  0.67653479  0.63136685  1
  In  In60  1  0.49187620  0.00113465  0.11776503  1
  In  In61  1  0.50885809  -0.02348412  0.64700847  1
  In  In62  1  0.50200255  0.33463019  0.12335061  1
  In  In63  1  0.50187901  0.33740526  0.62523251  1
  In  In64  1  0.50737891  0.66476806  0.13068110  1
  In  In65  1  0.49136787  0.68852798  0.65024022  1
  In  In66  1  0.84131061  0.00709666  0.12321390  1
  In  In67  1  0.84331956  0.00257812  0.62427666  1
  In  In68  1  0.82455623  0.33978930  0.12990852  1
  In  In69  1  0.85746309  0.33459046  0.63110289  1
  In  In70  1  0.84563213  0.64904759  0.12874646  1
  In  In71  1  0.82457655  0.67306329  0.63458548  1
  In  In72  1  0.49869939  0.82927237  0.00253910  1
  In  In73  1  0.17215079  0.81941200  0.00793514  1
  In  In74  1  0.83625490  0.49987699  0.50571851  1
  In  In75  1  0.49245654  0.15636783  0.49882697  1
  In  In76  1  0.50368944  0.50407216  0.50269555  1
  In  In77  1  0.83166210  0.17707179  -0.01098650  1
  In  In78  1  0.49779966  0.83161186  0.49861470  1
  In  In79  1  0.16434465  0.49891430  0.49793360  1
  In  In80  1  0.16930030  0.17422784  0.00077499  1
  In  In81  1  0.83619192  0.83110391  -0.01071693  1
  In  In82  1  0.32924973  -0.00086238  0.24576568  1
  In  In83  1  0.67111701  -0.00568544  0.25708583  1
  In  In84  1  0.32660199  0.33608663  0.75077775  1
  In  In85  1  0.66620626  0.33470219  0.75119232  1
  Cu  Cu86  1  0.33606886  0.33526009  0.00686010  1
  Cu  Cu87  1  0.66198428  0.33774141  0.00454444  1
  Cu  Cu88  1  0.49038401  0.16326336  0.75359928  1
  Cu  Cu89  1  0.32651926  0.32747151  0.48629681  1
  Cu  Cu90  1  0.49699376  0.50947828  0.76204206  1
  Cu  Cu91  1  -0.00129877  0.67719628  0.49894312  1
  Cu  Cu92  1  -0.00252269  -0.00932067  0.00071311  1
  Cu  Cu93  1  0.84429747  0.83919881  0.74577540  1
  Cu  Cu94  1  0.67172845  0.66457200  0.00168996  1
  Cu  Cu95  1  0.51028874  0.17059167  0.24405910  1
  Cu  Cu96  1  0.15965756  0.16245861  0.74272700  1
  Cu  Cu97  1  0.49800670  0.49633675  0.23970485  1
  Cu  Cu98  1  0.16858387  0.50103841  0.24596300  1
  Cu  Cu99  1  0.16847011  0.82940256  0.74505342  1
  Cu  Cu100  1  0.00458290  0.33135106  0.50096464  1
  Cu  Cu101  1  0.84440439  0.16344024  0.25328911  1
  Cu  Cu102  1  0.16721310  0.49923318  0.75754486  1
  Cu  Cu103  1  0.00371504  0.00159099  0.50374994  1
  Cu  Cu104  1  0.33688104  0.00031705  -0.00563785  1
  Cu  Cu105  1  0.83126010  0.49644960  0.24533134  1
  Cu  Cu106  1  -0.00133682  0.33779769  -0.00082218  1
  Cu  Cu107  1  0.16841545  0.17239527  0.25043853  1
  Cu  Cu108  1  0.67638953  0.32508448  0.49815251  1
  Cu  Cu109  1  0.32488139  -0.00120399  0.50767740  1
  Cu  Cu110  1  0.66031172  0.00512540  -0.01059229  1
  Cu  Cu111  1  0.32480420  0.66897775  0.49834327  1
  Cu  Cu112  1  0.82860273  0.82866926  0.25352868  1
  Cu  Cu113  1  0.67839308  -0.00420999  0.50541047  1
  Cu  Cu114  1  0.66983938  0.66776582  0.50502067  1
  Se  Se115  1  0.07991535  0.07428904  0.05581360  1
  Se  Se116  1  0.08567110  0.08772903  0.55618144  1
  Se  Se117  1  0.08433960  0.41953988  0.05173142  1
  Se  Se118  1  0.07016411  0.42081792  0.56444673  1
  Se  Se119  1  0.06631211  0.74068541  0.05965360  1
  Se  Se120  1  0.08816364  0.75445276  0.55161370  1
  Se  Se121  1  0.42349804  0.08495946  0.04275944  1
  Se  Se122  1  0.41721054  0.06499171  0.56883170  1
  Se  Se123  1  0.41925690  0.42122642  0.05741526  1
  Se  Se124  1  0.40427017  0.40560820  0.55207322  1
  Se  Se125  1  0.40796423  0.73840022  0.05891861  1
  Se  Se126  1  0.40934739  0.74368759  0.56206430  1
  Se  Se127  1  0.74603766  0.08004917  0.05136937  1
  Se  Se128  1  0.75751685  0.08560627  0.55374435  1
  Se  Se129  1  0.75190349  0.41788352  0.05380879  1
  Se  Se130  1  0.74396646  0.40962480  0.56488787  1
  Se  Se131  1  0.75062565  0.74708619  0.05960764  1
  Se  Se132  1  0.75743962  0.75064287  0.55372463  1
  Se  Se133  1  0.25356552  0.25752381  0.06834834  1
  Se  Se134  1  0.24721026  0.24910896  0.54610290  1
  Se  Se135  1  0.24383799  0.58729858  0.05065230  1
  Se  Se136  1  0.25401519  0.58611980  0.56234276  1
  Se  Se137  1  0.26389638  0.92137327  0.05985504  1
  Se  Se138  1  0.24367641  0.90986142  0.55693410  1
  Se  Se139  1  0.58158007  0.24679239  0.05280669  1
  Se  Se140  1  0.58559134  0.25122386  0.55545988  1
  Se  Se141  1  0.58384077  0.58683181  0.05618638  1
  Se  Se142  1  0.58447821  0.59637990  0.56818439  1
  Se  Se143  1  0.59557024  0.92193691  0.05778237  1
  Se  Se144  1  0.58964738  0.91762424  0.56057289  1
  Se  Se145  1  0.92283206  0.25272920  0.05953251  1
  Se  Se146  1  0.91788748  0.25006350  0.55296613  1
  Se  Se147  1  0.90963490  0.57733110  0.04770762  1
  Se  Se148  1  0.92515646  0.59355855  0.56229076  1
  Se  Se149  1  0.92150256  0.91076844  0.06127630  1
  Se  Se150  1  0.91781344  0.91587795  0.55252469  1
  Se  Se151  1  0.09084063  0.25169791  0.44710963  1
  Se  Se152  1  0.06897965  0.24953083  0.93790672  1
  Se  Se153  1  0.07562113  0.59195263  0.43979220  1
  Se  Se154  1  0.10367283  0.57078111  0.94898964  1
  Se  Se155  1  0.08058076  0.91564992  0.44650416  1
  Se  Se156  1  0.08227482  0.91080856  0.94362327  1
  Se  Se157  1  0.41854637  0.25400487  0.43108233  1
  Se  Se158  1  0.41446785  0.24932189  0.95234656  1
  Se  Se159  1  0.41188086  0.59278055  0.43932926  1
  Se  Se160  1  0.43179625  0.58179272  0.94964074  1
  Se  Se161  1  0.40266178  0.92365579  0.44183762  1
  Se  Se162  1  0.41362523  0.91660467  0.93539915  1
  Se  Se163  1  0.76187195  0.24544895  0.44675732  1
  Se  Se164  1  0.73725457  0.26657015  0.93319534  1
  Se  Se165  1  0.74678299  0.58707078  0.44208027  1
  Se  Se166  1  0.75618458  0.58299399  0.94861094  1
  Se  Se167  1  0.75240387  0.90702325  0.44970388  1
  Se  Se168  1  0.74269939  0.92446369  0.93299822  1
  Se  Se169  1  0.24977122  0.08836748  0.45313373  1
  Se  Se170  1  0.24739590  0.07432284  0.93823159  1
  Se  Se171  1  0.25408275  0.41792317  0.42938034  1
  Se  Se172  1  0.24905048  0.41277823  0.95213596  1
  Se  Se173  1  0.24158044  0.75089593  0.44490822  1
  Se  Se174  1  0.26336772  0.74132287  0.94124145  1
  Se  Se175  1  0.59720618  0.07366315  0.44176067  1
  Se  Se176  1  0.57511497  0.08812345  0.94006954  1
  Se  Se177  1  0.59401060  0.41070415  0.44147098  1
  Se  Se178  1  0.57609348  0.42391750  0.95571514  1
  Se  Se179  1  0.58502674  0.73687869  0.43903618  1
  Se  Se180  1  0.59467747  0.74788219  0.94069622  1
  Se  Se181  1  0.92076396  0.08705872  0.45017776  1
  Se  Se182  1  0.91693358  0.07031579  0.93970882  1
  Se  Se183  1  0.92701921  0.41547874  0.44096177  1
  Se  Se184  1  0.91833653  0.42226416  0.94443282  1
  Se  Se185  1  0.90987601  0.75499718  0.44619113  1
  Se  Se186  1  0.93226635  0.73540479  0.94249422  1
  Se  Se187  1  0.26011810  0.25046637  0.30001697  1
  Se  Se188  1  0.23637034  0.24163842  0.80942758  1
  Se  Se189  1  0.24994115  0.59143449  0.29634016  1
  Se  Se190  1  0.25683706  0.57914887  0.80755496  1
  Se  Se191  1  0.24408102  0.91987913  0.31458428  1
  Se  Se192  1  0.24970334  0.91735360  0.79679026  1
  Se  Se193  1  0.59450203  0.25288530  0.29726071  1
  Se  Se194  1  0.56711704  0.25047729  0.81053181  1
  Se  Se195  1  0.57830221  0.57752025  0.30021914  1
  Se  Se196  1  0.58895417  0.58908948  0.80899377  1
  Se  Se197  1  0.56971143  0.90544972  0.30731285  1
  Se  Se198  1  0.59720229  0.93612217  0.79704612  1
  Se  Se199  1  0.92340388  0.25094243  0.30728598  1
  Se  Se200  1  0.89787970  0.23962410  0.80027304  1
  Se  Se201  1  0.91159021  0.58031026  0.30186236  1
  Se  Se202  1  0.93256354  0.59011502  0.80637252  1
  Se  Se203  1  0.90978309  0.91468521  0.30601364  1
  Se  Se204  1  0.92656322  0.92244796  0.80075070  1
  Se  Se205  1  0.08853946  0.08975637  0.30792948  1
  Se  Se206  1  0.07926027  0.07904624  0.79950674  1
  Se  Se207  1  0.08526805  0.41468333  0.29851578  1
  Se  Se208  1  0.08045187  0.41332603  0.80442294  1
  Se  Se209  1  0.05842624  0.73469054  0.30675940  1
  Se  Se210  1  0.09008826  0.74789081  0.80448731  1
  Se  Se211  1  0.42875146  0.08980467  0.30429191  1
  Se  Se212  1  0.40302022  0.08222492  0.80462969  1
  Se  Se213  1  0.41400359  0.41392838  0.29515254  1
  Se  Se214  1  0.41430337  0.42282839  0.81448025  1
  Se  Se215  1  0.40328092  0.74980458  0.29188208  1
  Se  Se216  1  0.43306761  0.76481199  0.80191405  1
  Se  Se217  1  0.76264052  0.08434359  0.31456759  1
  Se  Se218  1  0.75097941  0.09746799  0.79362661  1
  Se  Se219  1  0.75002945  0.41114028  0.30072417  1
  Se  Se220  1  0.74583636  0.42755614  0.81407711  1
  Se  Se221  1  0.74199290  0.74578981  0.30375766  1
  Se  Se222  1  0.76723091  0.75862828  0.80781864  1
  Se  Se223  1  0.24194986  0.09190542  0.18388930  1
  Se  Se224  1  0.24935625  0.08008572  0.69564398  1
  Se  Se225  1  0.25454733  0.41831549  0.19431008  1
  Se  Se226  1  0.23868390  0.42237666  0.68553618  1
  Se  Se227  1  0.21193455  0.77699479  0.18857714  1
  Se  Se228  1  0.25318456  0.73882915  0.69899831  1
  Se  Se229  1  0.58512051  0.08102631  0.18780189  1
  Se  Se230  1  0.57905805  0.08548859  0.70018548  1
  Se  Se231  1  0.58833443  0.41348300  0.19237999  1
  Se  Se232  1  0.57397597  0.43266248  0.69379895  1
  Se  Se233  1  0.57535214  0.75060081  0.20562577  1
  Se  Se234  1  0.59968813  0.74791317  0.70628580  1
  Se  Se235  1  0.92214364  0.07558109  0.19987014  1
  Se  Se236  1  0.91810541  0.08493545  0.69706131  1
  Se  Se237  1  0.91925182  0.41765884  0.19143695  1
  Se  Se238  1  0.90204747  0.42464053  0.70998160  1
  Se  Se239  1  0.91094326  0.74840477  0.19633889  1
  Se  Se240  1  0.92363630  0.75119924  0.69296953  1
  Se  Se241  1  0.07966175  0.25172284  0.19841644  1
  Se  Se242  1  0.07766719  0.25277916  0.69591882  1
  Se  Se243  1  0.07949913  0.58050645  0.19417204  1
  Se  Se244  1  0.08587721  0.58374812  0.70180304  1
  Se  Se245  1  0.07126103  0.93397033  0.20766031  1
  Se  Se246  1  0.08343886  0.91506535  0.69490544  1
  Se  Se247  1  0.42000699  0.24919011  0.19363114  1
  Se  Se248  1  0.41622982  0.24438919  0.68859860  1
  Se  Se249  1  0.41314392  0.58294713  0.19122247  1
  Se  Se250  1  0.41079006  0.58855152  0.70592699  1
  Se  Se251  1  0.42760492  0.90928129  0.19187248  1
  Se  Se252  1  0.41585181  0.89987855  0.70678334  1
  Se  Se253  1  0.75706390  0.24318444  0.19857191  1
  Se  Se254  1  0.75025811  0.25018089  0.68476769  1
  Se  Se255  1  0.74668745  0.58398914  0.19587378  1
  Se  Se256  1  0.75646791  0.58823652  0.70946233  1
  Se  Se257  1  0.75460949  0.90957302  0.18714836  1
  Se  Se258  1  0.75690198  0.91848859  0.69183814  1
