# generated using pymatgen
data_In86Cu29Se144
_symmetry_space_group_name_H-M   'P 1'
_cell_length_a   17.57216688
_cell_length_b   17.57202374
_cell_length_c   23.43179271
_cell_angle_alpha   89.97628787
_cell_angle_beta   89.99066394
_cell_angle_gamma   89.99485636
_symmetry_Int_Tables_number   1
_chemical_formula_structural   In86Cu29Se144
_chemical_formula_sum   'In86 Cu29 Se144'
_cell_volume   7235.23384697
_cell_formula_units_Z   1
loop_
 _symmetry_equiv_pos_site_id
 _symmetry_equiv_pos_as_xyz
  1  'x, y, z'
loop_
 _atom_site_type_symbol
 _atom_site_label
 _atom_site_symmetry_multiplicity
 _atom_site_fract_x
 _atom_site_fract_y
 _atom_site_fract_z
 _atom_site_occupancy
  In  In0  1  -0.00885373  0.17811314  0.13540683  1
  In  In1  1  -0.01045498  0.15463134  0.61541899  1
  In  In2  1  -0.00475584  0.49200614  0.13017956  1
  In  In3  1  -0.00165457  0.49969284  0.61433658  1
  In  In4  1  0.00916767  0.84203583  0.13049222  1
  In  In5  1  -0.00325402  0.84751241  0.62313419  1
  In  In6  1  0.35950406  0.17656586  0.11697724  1
  In  In7  1  0.32636334  0.16247749  0.61823666  1
  In  In8  1  0.33177253  0.50003431  0.12714801  1
  In  In9  1  0.33068379  0.50951425  0.62431683  1
  In  In10  1  0.33461353  0.83024872  0.12492512  1
  In  In11  1  0.34004797  0.82707958  0.63195972  1
  In  In12  1  0.66636944  0.16498973  0.12520011  1
  In  In13  1  0.66058951  0.16165881  0.61638029  1
  In  In14  1  0.66796240  0.50488141  0.13595292  1
  In  In15  1  0.67310882  0.49895781  0.62281387  1
  In  In16  1  0.66403833  0.83868850  0.12938147  1
  In  In17  1  0.67100974  0.83048980  0.62845415  1
  In  In18  1  0.16890231  0.01527043  0.37562612  1
  In  In19  1  0.16199196  -0.00533372  0.86554392  1
  In  In20  1  0.16198595  0.33306361  0.36897010  1
  In  In21  1  0.17922267  0.33969119  0.87998138  1
  In  In22  1  0.16270840  0.63953915  0.36738845  1
  In  In23  1  0.17190578  0.64799537  0.88433889  1
  In  In24  1  0.51524645  0.00304055  0.37308487  1
  In  In25  1  0.50605733  0.00441039  0.87062449  1
  In  In26  1  0.49568230  0.32677350  0.36793263  1
  In  In27  1  0.50792070  0.32955763  0.89175320  1
  In  In28  1  0.49055171  0.65938446  0.36652353  1
  In  In29  1  0.49630986  0.66423578  0.87311988  1
  In  In30  1  0.83512544  0.00087220  0.37501120  1
  In  In31  1  0.83647006  0.00489664  0.87103628  1
  In  In32  1  0.83257556  0.33382417  0.37001606  1
  In  In33  1  0.81422537  0.32350447  0.88091090  1
  In  In34  1  0.82484324  0.67385404  0.38122295  1
  In  In35  1  0.83407902  0.67961563  0.87437986  1
  In  In36  1  0.00058383  0.16731264  0.37210915  1
  In  In37  1  -0.00032688  0.15458099  0.87330651  1
  In  In38  1  0.00687455  0.48873533  0.37449793  1
  In  In39  1  0.01155619  0.50640146  0.88293472  1
  In  In40  1  -0.01679563  0.82935165  0.37719440  1
  In  In41  1  -0.00819680  0.83762031  0.87286736  1
  In  In42  1  0.32510279  0.17478010  0.38207188  1
  In  In43  1  0.34530400  0.16054225  0.87804381  1
  In  In44  1  0.30421344  0.47605762  0.34536043  1
  In  In45  1  0.33375598  0.51130435  0.89179924  1
  In  In46  1  0.34323636  0.82735812  0.37474790  1
  In  In47  1  0.33273579  0.83165766  0.86794886  1
  In  In48  1  0.67080889  0.16745735  0.37345315  1
  In  In49  1  0.68058844  0.15097062  0.89752880  1
  In  In50  1  0.67995518  0.50830065  0.35657022  1
  In  In51  1  0.64430572  0.50173438  0.88325227  1
  In  In52  1  0.67074510  0.84494903  0.36846039  1
  In  In53  1  0.67278909  0.83649880  0.86715966  1
  In  In54  1  0.16538107  -0.00558460  0.12932609  1
  In  In55  1  0.15926993  0.00287013  0.62991563  1
  In  In56  1  0.15862882  0.34999241  0.14023449  1
  In  In57  1  0.16617215  0.33259391  0.61315220  1
  In  In58  1  0.18127048  0.66318135  0.12367696  1
  In  In59  1  0.17573361  0.66247364  0.62312715  1
  In  In60  1  0.51341651  0.03467773  0.10753965  1
  In  In61  1  0.49649509  0.00734748  0.63323789  1
  In  In62  1  0.50093860  0.32948891  0.12992845  1
  In  In63  1  0.51202199  0.32755073  0.62061266  1
  In  In64  1  0.50787054  0.66133542  0.12542344  1
  In  In65  1  0.49574150  0.66963037  0.63351020  1
  In  In66  1  0.81301333  0.02351510  0.13628592  1
  In  In67  1  0.83140887  0.00280610  0.62316365  1
  In  In68  1  0.84096122  0.33008686  0.13751773  1
  In  In69  1  0.83379034  0.33309270  0.60983501  1
  In  In70  1  0.82316372  0.64925548  0.13217018  1
  In  In71  1  0.82307617  0.66095446  0.61514347  1
  In  In72  1  0.50329541  0.83383988  0.50667880  1
  In  In73  1  0.83342991  0.49285437  0.01070253  1
  In  In74  1  -0.00372797  0.32932159  0.73862525  1
  In  In75  1  0.00415744  0.67249625  0.75208445  1
  In  In76  1  0.33864682  0.00290602  0.23871093  1
  In  In77  1  0.16385880  0.83186007  0.50637202  1
  In  In78  1  0.16815748  0.82735103  0.00002685  1
  In  In79  1  0.66362239  0.33351429  0.75234376  1
  In  In80  1  0.33865210  0.33171395  0.75795680  1
  In  In81  1  0.16792983  0.17166557  -0.00030039  1
  In  In82  1  0.83985600  0.83680905  -0.00336332  1
  In  In83  1  0.49704493  0.49359859  0.49496596  1
  In  In84  1  -0.00059050  0.66779296  0.24986953  1
  In  In85  1  0.50083252  0.83385523  0.00262903  1
  Cu  Cu86  1  0.67138032  0.33230628  0.49052831  1
  Cu  Cu87  1  -0.00878313  0.00851528  0.00289283  1
  Cu  Cu88  1  0.66940625  0.66326436  0.00338291  1
  Cu  Cu89  1  0.83373553  0.16295101  0.25462327  1
  Cu  Cu90  1  0.00255665  0.33093748  0.49092543  1
  Cu  Cu91  1  0.33003404  0.34317221  0.00807538  1
  Cu  Cu92  1  0.16738546  0.83786875  0.25223360  1
  Cu  Cu93  1  -0.00854317  0.66078637  0.49455319  1
  Cu  Cu94  1  0.50123526  0.50025694  0.24507760  1
  Cu  Cu95  1  0.67623892  0.00600479  0.49511631  1
  Cu  Cu96  1  0.17164725  0.83073173  0.74610547  1
  Cu  Cu97  1  -0.00404057  0.33257986  0.00851437  1
  Cu  Cu98  1  -0.00121100  0.00409510  0.49926004  1
  Cu  Cu99  1  0.50372388  0.16372053  0.75240625  1
  Cu  Cu100  1  0.50267648  0.83089684  0.24534063  1
  Cu  Cu101  1  0.16542068  0.17073475  0.25105294  1
  Cu  Cu102  1  0.50351429  0.83476037  0.75322959  1
  Cu  Cu103  1  0.83193940  0.83865248  0.74779724  1
  Cu  Cu104  1  0.33887598  0.00883677  0.50515801  1
  Cu  Cu105  1  0.66277951  0.66824020  0.49545861  1
  Cu  Cu106  1  0.49506172  0.50947045  0.75750977  1
  Cu  Cu107  1  0.16748505  0.15454925  0.74582508  1
  Cu  Cu108  1  0.32180645  0.65396040  0.49355205  1
  Cu  Cu109  1  0.17292174  0.49890375  0.75575777  1
  Cu  Cu110  1  0.82783240  0.16392421  0.74848202  1
  Cu  Cu111  1  0.33210313  0.33206445  0.48891983  1
  Cu  Cu112  1  0.83069266  0.83680410  0.25403182  1
  Cu  Cu113  1  0.82404019  0.50922909  0.74757446  1
  Cu  Cu114  1  0.50419436  0.16508457  0.24832821  1
  Se  Se115  1  0.07771226  0.08337713  0.06208087  1
  Se  Se116  1  0.08862954  0.08162453  0.55244297  1
  Se  Se117  1  0.08040467  0.41582854  0.05879495  1
  Se  Se118  1  0.08203175  0.41636225  0.54813903  1
  Se  Se119  1  0.07644446  0.74389638  0.06284488  1
  Se  Se120  1  0.06936623  0.73777367  0.56153123  1
  Se  Se121  1  0.39308503  0.06615064  0.05009855  1
  Se  Se122  1  0.42664990  0.08904567  0.55655784  1
  Se  Se123  1  0.42142240  0.41711475  0.06101458  1
  Se  Se124  1  0.40657179  0.40528917  0.56018633  1
  Se  Se125  1  0.41112358  0.73825335  0.05597098  1
  Se  Se126  1  0.40457121  0.73439372  0.55296381  1
  Se  Se127  1  0.75031528  0.08879729  0.05174332  1
  Se  Se128  1  0.75687136  0.09011538  0.55145519  1
  Se  Se129  1  0.74268686  0.40557641  0.06858154  1
  Se  Se130  1  0.74612016  0.41964245  0.54802425  1
  Se  Se131  1  0.74979635  0.74586494  0.06012467  1
  Se  Se132  1  0.74338906  0.75259340  0.55073130  1
  Se  Se133  1  0.24905104  0.26047274  0.06675173  1
  Se  Se134  1  0.25152449  0.24959187  0.54814638  1
  Se  Se135  1  0.25554025  0.58163497  0.05267808  1
  Se  Se136  1  0.24071346  0.57229490  0.54965238  1
  Se  Se137  1  0.25603526  0.92387162  0.05609484  1
  Se  Se138  1  0.26127433  0.92009559  0.56178415  1
  Se  Se139  1  0.55305869  0.22029472  0.06483438  1
  Se  Se140  1  0.58649643  0.25117341  0.54593395  1
  Se  Se141  1  0.59048704  0.57786205  0.05707308  1
  Se  Se142  1  0.58066331  0.59067378  0.55708821  1
  Se  Se143  1  0.59619711  0.92784956  0.05315368  1
  Se  Se144  1  0.59358968  0.92985012  0.55924603  1
  Se  Se145  1  0.91226932  0.24965154  0.05884898  1
  Se  Se146  1  0.92010649  0.24863688  0.54736454  1
  Se  Se147  1  0.92361091  0.59250787  0.06053073  1
  Se  Se148  1  0.90780828  0.57715499  0.54926527  1
  Se  Se149  1  0.91800515  0.92613147  0.06548734  1
  Se  Se150  1  0.91367683  0.92021373  0.55103168  1
  Se  Se151  1  0.08816973  0.24660071  0.44116413  1
  Se  Se152  1  0.07343869  0.25991442  0.93888998  1
  Se  Se153  1  0.08055134  0.57940726  0.44647912  1
  Se  Se154  1  0.08485157  0.58258784  0.95698014  1
  Se  Se155  1  0.07980572  0.92027262  0.44017438  1
  Se  Se156  1  0.07297843  0.92540937  0.94539679  1
  Se  Se157  1  0.42316158  0.24806685  0.44559027  1
  Se  Se158  1  0.40372230  0.25689584  0.94890016  1
  Se  Se159  1  0.40329944  0.57595093  0.43390767  1
  Se  Se160  1  0.44359943  0.57099272  0.94849517  1
  Se  Se161  1  0.41421297  0.92539023  0.44405385  1
  Se  Se162  1  0.41309112  0.91883150  0.93759001  1
  Se  Se163  1  0.75722911  0.24654877  0.44259540  1
  Se  Se164  1  0.74578135  0.25245362  0.96012756  1
  Se  Se165  1  0.74169379  0.58033508  0.44267775  1
  Se  Se166  1  0.75209605  0.58652066  0.94152741  1
  Se  Se167  1  0.75264042  0.91448113  0.44437288  1
  Se  Se168  1  0.74428790  0.92500298  0.94200558  1
  Se  Se169  1  0.25015123  0.08477151  0.45134557  1
  Se  Se170  1  0.24771844  0.07488582  0.93832299  1
  Se  Se171  1  0.24890285  0.41723820  0.43784874  1
  Se  Se172  1  0.24540003  0.42426255  0.95409914  1
  Se  Se173  1  0.24693607  0.74482827  0.43809004  1
  Se  Se174  1  0.26386250  0.74066601  0.94345215  1
  Se  Se175  1  0.58616142  0.08677072  0.44598302  1
  Se  Se176  1  0.56254849  0.09520949  0.94630611  1
  Se  Se177  1  0.59033053  0.41388167  0.43220509  1
  Se  Se178  1  0.60490154  0.40025483  0.95505534  1
  Se  Se179  1  0.58100793  0.74665898  0.43594737  1
  Se  Se180  1  0.59581606  0.74732115  0.94109405  1
  Se  Se181  1  0.91742923  0.08588237  0.44285740  1
  Se  Se182  1  0.91060717  0.08900904  0.94606089  1
  Se  Se183  1  0.91529530  0.41471784  0.44198187  1
  Se  Se184  1  0.91980329  0.40822095  0.93919847  1
  Se  Se185  1  0.90848014  0.75324475  0.45276844  1
  Se  Se186  1  0.93419416  0.73840092  0.94619526  1
  Se  Se187  1  0.25329799  0.24957915  0.30402335  1
  Se  Se188  1  0.24038515  0.23752955  0.80920899  1
  Se  Se189  1  0.27027049  0.60510610  0.29922045  1
  Se  Se190  1  0.25658057  0.57889805  0.80976838  1
  Se  Se191  1  0.25286261  0.91722461  0.31011723  1
  Se  Se192  1  0.25199102  0.91685810  0.79991744  1
  Se  Se193  1  0.58688978  0.24774657  0.30281133  1
  Se  Se194  1  0.58027262  0.24297636  0.81483649  1
  Se  Se195  1  0.58170750  0.58757918  0.29837276  1
  Se  Se196  1  0.58853556  0.58847648  0.80451918  1
  Se  Se197  1  0.58200050  0.91847607  0.29826131  1
  Se  Se198  1  0.58790934  0.92065391  0.80208870  1
  Se  Se199  1  0.91929845  0.25021727  0.30255713  1
  Se  Se200  1  0.90719984  0.24750951  0.80747144  1
  Se  Se201  1  0.91423582  0.58462098  0.31642503  1
  Se  Se202  1  0.91357567  0.57648009  0.80972796  1
  Se  Se203  1  0.91882279  0.91794742  0.30387680  1
  Se  Se204  1  0.91723127  0.91989300  0.80118219  1
  Se  Se205  1  0.08421411  0.08292964  0.30171915  1
  Se  Se206  1  0.07715774  0.07855498  0.79887131  1
  Se  Se207  1  0.09793509  0.43064404  0.30026203  1
  Se  Se208  1  0.08571449  0.41574422  0.80686097  1
  Se  Se209  1  0.09014655  0.75682415  0.31423242  1
  Se  Se210  1  0.09709157  0.75512603  0.81555466  1
  Se  Se211  1  0.41915653  0.08781196  0.31010959  1
  Se  Se212  1  0.41468005  0.08080828  0.80110886  1
  Se  Se213  1  0.42015726  0.41303207  0.29714050  1
  Se  Se214  1  0.42675751  0.42044758  0.81859888  1
  Se  Se215  1  0.41591871  0.75171723  0.29818153  1
  Se  Se216  1  0.41838152  0.74818780  0.80253750  1
  Se  Se217  1  0.74829324  0.07807222  0.30492674  1
  Se  Se218  1  0.74482213  0.08873256  0.80878622  1
  Se  Se219  1  0.73820012  0.39878217  0.29950459  1
  Se  Se220  1  0.75208935  0.42738185  0.81183279  1
  Se  Se221  1  0.74806037  0.75025026  0.30497192  1
  Se  Se222  1  0.75260560  0.74937151  0.79920465  1
  Se  Se223  1  0.24651287  0.09827545  0.18516791  1
  Se  Se224  1  0.25702962  0.07779729  0.69316196  1
  Se  Se225  1  0.25905998  0.41706054  0.20213734  1
  Se  Se226  1  0.24551161  0.41505558  0.69260677  1
  Se  Se227  1  0.24730621  0.75690376  0.19529560  1
  Se  Se228  1  0.25169512  0.74254242  0.69564057  1
  Se  Se229  1  0.58592722  0.07780663  0.19754503  1
  Se  Se230  1  0.59079918  0.08660224  0.69649468  1
  Se  Se231  1  0.58546054  0.41224941  0.19796952  1
  Se  Se232  1  0.57135158  0.42823356  0.69376731  1
  Se  Se233  1  0.58861691  0.74645207  0.19455996  1
  Se  Se234  1  0.58412057  0.75105972  0.69670482  1
  Se  Se235  1  0.91988964  0.08052163  0.20015246  1
  Se  Se236  1  0.91514143  0.08411079  0.69501365  1
  Se  Se237  1  0.90297565  0.43308556  0.20194268  1
  Se  Se238  1  0.90257967  0.42720874  0.68825246  1
  Se  Se239  1  0.90678643  0.75758658  0.18906758  1
  Se  Se240  1  0.91045251  0.75345216  0.68791200  1
  Se  Se241  1  0.07851426  0.25667606  0.20250589  1
  Se  Se242  1  0.09161438  0.23862208  0.68526178  1
  Se  Se243  1  0.09155484  0.57993972  0.19170484  1
  Se  Se244  1  0.08787198  0.57255908  0.69320971  1
  Se  Se245  1  0.08242787  0.92387218  0.20465959  1
  Se  Se246  1  0.08277344  0.91306839  0.69793037  1
  Se  Se247  1  0.41498784  0.24960014  0.20233272  1
  Se  Se248  1  0.42510477  0.24548887  0.69172235  1
  Se  Se249  1  0.41833125  0.58599093  0.19361109  1
  Se  Se250  1  0.41026647  0.58412144  0.69852420  1
  Se  Se251  1  0.43343062  0.91626715  0.18081479  1
  Se  Se252  1  0.41859562  0.91541680  0.69774117  1
  Se  Se253  1  0.75062104  0.24240208  0.19717587  1
  Se  Se254  1  0.75528617  0.24996890  0.68753315  1
  Se  Se255  1  0.75423356  0.57545838  0.20951068  1
  Se  Se256  1  0.74223651  0.59046100  0.69310043  1
  Se  Se257  1  0.74768168  0.91891667  0.19814086  1
  Se  Se258  1  0.74841777  0.92188977  0.69404380  1
