# generated using pymatgen
data_In86Cu29Se144
_symmetry_space_group_name_H-M   'P 1'
_cell_length_a   17.58390764
_cell_length_b   17.58599064
_cell_length_c   23.44495062
_cell_angle_alpha   90.00118350
_cell_angle_beta   89.97355927
_cell_angle_gamma   90.01184362
_symmetry_Int_Tables_number   1
_chemical_formula_structural   In86Cu29Se144
_chemical_formula_sum   'In86 Cu29 Se144'
_cell_volume   7249.89135371
_cell_formula_units_Z   1
loop_
 _symmetry_equiv_pos_site_id
 _symmetry_equiv_pos_as_xyz
  1  'x, y, z'
loop_
 _atom_site_type_symbol
 _atom_site_label
 _atom_site_symmetry_multiplicity
 _atom_site_fract_x
 _atom_site_fract_y
 _atom_site_fract_z
 _atom_site_occupancy
  In  In0  1  -0.00634928  0.17309273  0.13360606  1
  In  In1  1  -0.00874409  0.15464142  0.61737777  1
  In  In2  1  0.00050854  0.49102075  0.12137453  1
  In  In3  1  0.01295488  0.50768950  0.62616766  1
  In  In4  1  0.00410091  0.84771427  0.12370810  1
  In  In5  1  0.01066795  0.82936921  0.63242250  1
  In  In6  1  0.33886672  0.15165205  0.13660198  1
  In  In7  1  0.33970119  0.17297329  0.61176420  1
  In  In8  1  0.33312935  0.51591710  0.12364002  1
  In  In9  1  0.34073022  0.49001855  0.63041002  1
  In  In10  1  0.34024302  0.82451820  0.12798365  1
  In  In11  1  0.31304047  0.83675718  0.62332546  1
  In  In12  1  0.66613525  0.15977200  0.13056735  1
  In  In13  1  0.66408605  0.16358731  0.61196513  1
  In  In14  1  0.66589201  0.50425509  0.13593723  1
  In  In15  1  0.65908071  0.51645675  0.62248518  1
  In  In16  1  0.66267540  0.83431652  0.12589447  1
  In  In17  1  0.65809719  0.82287741  0.62259341  1
  In  In18  1  0.16952242  0.00201575  0.37619236  1
  In  In19  1  0.15984337  0.01446666  0.87287075  1
  In  In20  1  0.14834229  0.33300087  0.36585886  1
  In  In21  1  0.18382568  0.33231345  0.87482045  1
  In  In22  1  0.18222981  0.66878378  0.37590219  1
  In  In23  1  0.16067399  0.66306924  0.87555126  1
  In  In24  1  0.50596662  0.01587575  0.35789848  1
  In  In25  1  0.49873259  -0.00316691  0.88762998  1
  In  In26  1  0.50794744  0.32380205  0.37786059  1
  In  In27  1  0.48846541  0.33652533  0.87904891  1
  In  In28  1  0.49805046  0.66546117  0.37447776  1
  In  In29  1  0.50618009  0.67000434  0.86955122  1
  In  In30  1  0.84505240  0.01500549  0.36449530  1
  In  In31  1  0.83849837  -0.00995232  0.88278581  1
  In  In32  1  0.82247290  0.31825023  0.36471791  1
  In  In33  1  0.82491913  0.32921581  0.88065467  1
  In  In34  1  0.82728361  0.67274854  0.37320597  1
  In  In35  1  0.84299877  0.68333466  0.87086794  1
  In  In36  1  0.00212109  0.16083536  0.37278594  1
  In  In37  1  -0.00009406  0.15395469  0.87180235  1
  In  In38  1  0.01760973  0.49189608  0.36805539  1
  In  In39  1  0.00221884  0.52353522  0.88204316  1
  In  In40  1  -0.00006042  0.85197445  0.37358376  1
  In  In41  1  -0.01190535  0.82315608  0.87403790  1
  In  In42  1  0.33851385  0.15208824  0.38116387  1
  In  In43  1  0.33246340  0.17491345  0.87732313  1
  In  In44  1  0.33099899  0.52016201  0.37039416  1
  In  In45  1  0.32637284  0.49493102  0.87210843  1
  In  In46  1  0.33060661  0.82869618  0.37187581  1
  In  In47  1  0.34878425  0.83109184  0.87878881  1
  In  In48  1  0.66649977  0.17058498  0.37104502  1
  In  In49  1  0.66815355  0.16070312  0.88638643  1
  In  In50  1  0.66207324  0.49203029  0.36969125  1
  In  In51  1  0.65345132  0.50427919  0.87588298  1
  In  In52  1  0.65877038  0.83147973  0.36608196  1
  In  In53  1  0.67428576  0.82813303  0.88219800  1
  In  In54  1  0.16421100  0.01488552  0.14598518  1
  In  In55  1  0.16552941  -0.00938645  0.60982877  1
  In  In56  1  0.15637280  0.33289992  0.13379634  1
  In  In57  1  0.17899665  0.34110112  0.62090747  1
  In  In58  1  0.18121170  0.66645326  0.11851859  1
  In  In59  1  0.16375802  0.67362820  0.63347028  1
  In  In60  1  0.50140756  -0.00222282  0.13074565  1
  In  In61  1  0.48639982  0.00662444  0.61553010  1
  In  In62  1  0.51660736  0.32884367  0.13410519  1
  In  In63  1  0.48985654  0.32552363  0.61570945  1
  In  In64  1  0.48668856  0.68088108  0.12999044  1
  In  In65  1  0.50451995  0.65353648  0.62998888  1
  In  In66  1  0.83041431  -0.00108906  0.12548490  1
  In  In67  1  0.83139213  0.01058713  0.62140599  1
  In  In68  1  0.84219255  0.32122994  0.13030821  1
  In  In69  1  0.83784303  0.32593926  0.62225291  1
  In  In70  1  0.82082440  0.66464092  0.12162939  1
  In  In71  1  0.83230317  0.67443109  0.63286318  1
  In  In72  1  0.16944644  0.16985498  0.00947450  1
  In  In73  1  0.66682593  -0.00394665  0.74495675  1
  In  In74  1  0.00103650  0.66721690  0.24233567  1
  In  In75  1  0.33443079  0.32811511  0.25372273  1
  In  In76  1  0.49932336  0.50035718  0.00128976  1
  In  In77  1  0.32917293  -0.00053274  0.74366113  1
  In  In78  1  0.83093475  0.49395873  0.49726577  1
  In  In79  1  0.17186211  0.49875357  0.49918796  1
  In  In80  1  0.00526617  0.33916175  0.74575875  1
  In  In81  1  0.83241705  0.83821666  0.50190964  1
  In  In82  1  0.66039790  0.33618595  0.75474830  1
  In  In83  1  0.49566535  0.83771704  0.49561438  1
  In  In84  1  0.16784777  0.83482214  0.00332934  1
  In  In85  1  0.83512386  0.50082175  -0.00129470  1
  Cu  Cu86  1  0.00529574  0.00382503  0.49305461  1
  Cu  Cu87  1  0.50314019  0.82678842  0.75019164  1
  Cu  Cu88  1  0.66214182  -0.00017573  0.00906380  1
  Cu  Cu89  1  0.16675999  0.16894101  0.74639157  1
  Cu  Cu90  1  0.66331676  0.33192634  0.49225905  1
  Cu  Cu91  1  0.33202208  0.33269710  0.49390519  1
  Cu  Cu92  1  0.67426727  0.32131981  0.01007399  1
  Cu  Cu93  1  0.83469218  0.16239691  0.74731880  1
  Cu  Cu94  1  0.83960246  0.49762964  0.24556357  1
  Cu  Cu95  1  -0.00806127  0.32227678  0.49344570  1
  Cu  Cu96  1  0.49046890  0.17128675  0.74626886  1
  Cu  Cu97  1  0.00546178  0.67409022  0.50718575  1
  Cu  Cu98  1  0.33630508  0.66979639  0.50025480  1
  Cu  Cu99  1  0.16547559  0.83600326  0.75285908  1
  Cu  Cu100  1  0.16717998  0.50628282  0.75214274  1
  Cu  Cu101  1  0.16689173  0.83330634  0.24795825  1
  Cu  Cu102  1  0.83413213  0.51333017  0.75110614  1
  Cu  Cu103  1  0.00349036  0.32721309  0.00545933  1
  Cu  Cu104  1  0.50069636  0.50421363  0.25074208  1
  Cu  Cu105  1  0.83078929  0.16394227  0.24909539  1
  Cu  Cu106  1  0.66796854  0.00325887  0.48761707  1
  Cu  Cu107  1  0.49673585  0.83310030  0.25023482  1
  Cu  Cu108  1  0.34102425  0.32968617  0.00202132  1
  Cu  Cu109  1  0.49330905  0.50061610  0.75142966  1
  Cu  Cu110  1  -0.00796423  0.00025131  0.00043757  1
  Cu  Cu111  1  0.83777104  0.83338656  0.75662764  1
  Cu  Cu112  1  0.82218863  0.83537098  0.24862064  1
  Cu  Cu113  1  0.33628683  -0.00430457  0.01145408  1
  Cu  Cu114  1  0.66272647  0.67323637  0.00005832  1
  Se  Se115  1  0.07734199  0.07486502  0.06168188  1
  Se  Se116  1  0.08610338  0.08720643  0.54951210  1
  Se  Se117  1  0.08828822  0.41084745  0.05417670  1
  Se  Se118  1  0.07084819  0.40727670  0.55294606  1
  Se  Se119  1  0.07527617  0.74484375  0.06029092  1
  Se  Se120  1  0.09171817  0.75530839  0.55729993  1
  Se  Se121  1  0.41940359  0.08333953  0.05972170  1
  Se  Se122  1  0.42122538  0.09118894  0.54293445  1
  Se  Se123  1  0.41768980  0.40855172  0.06636479  1
  Se  Se124  1  0.41196028  0.41762329  0.55016850  1
  Se  Se125  1  0.40672798  0.74268089  0.05108366  1
  Se  Se126  1  0.41305534  0.74942426  0.56404060  1
  Se  Se127  1  0.75004048  0.08437532  0.05654166  1
  Se  Se128  1  0.75146843  0.08254177  0.54619232  1
  Se  Se129  1  0.74729342  0.41438236  0.06381152  1
  Se  Se130  1  0.73839619  0.40755569  0.56132289  1
  Se  Se131  1  0.74747357  0.75420327  0.05369093  1
  Se  Se132  1  0.74355696  0.73869451  0.55331778  1
  Se  Se133  1  0.26344097  0.25474733  0.06857016  1
  Se  Se134  1  0.24598440  0.25364341  0.54846827  1
  Se  Se135  1  0.25119308  0.57933276  0.04661615  1
  Se  Se136  1  0.25557563  0.58928441  0.56299234  1
  Se  Se137  1  0.24608652  0.92759677  0.07034355  1
  Se  Se138  1  0.27695419  0.93724954  0.54974594  1
  Se  Se139  1  0.58315162  0.24381137  0.05915387  1
  Se  Se140  1  0.58030450  0.24929604  0.54880126  1
  Se  Se141  1  0.58825492  0.59010189  0.06189098  1
  Se  Se142  1  0.57351985  0.58181112  0.54944024  1
  Se  Se143  1  0.57663552  0.91327200  0.05662415  1
  Se  Se144  1  0.59357768  0.92723643  0.55562173  1
  Se  Se145  1  0.91774240  0.24394927  0.05393704  1
  Se  Se146  1  0.90971615  0.24271283  0.55041774  1
  Se  Se147  1  0.92361488  0.59127077  0.05782095  1
  Se  Se148  1  0.92082630  0.58943444  0.55899986  1
  Se  Se149  1  0.91187912  0.91500973  0.05375245  1
  Se  Se150  1  0.92838526  0.92421922  0.55942347  1
  Se  Se151  1  0.08334581  0.24773062  0.44192213  1
  Se  Se152  1  0.08170047  0.25134668  0.93817697  1
  Se  Se153  1  0.07775003  0.59106029  0.44261586  1
  Se  Se154  1  0.09579948  0.57975272  0.95336985  1
  Se  Se155  1  0.08836390  0.91376095  0.44774197  1
  Se  Se156  1  0.07827847  0.92545841  0.94029109  1
  Se  Se157  1  0.41675815  0.24783322  0.44382082  1
  Se  Se158  1  0.42128088  0.24377996  0.94959856  1
  Se  Se159  1  0.41599167  0.58525371  0.44676641  1
  Se  Se160  1  0.41449262  0.58562905  0.93690472  1
  Se  Se161  1  0.41915485  0.92637598  0.42896297  1
  Se  Se162  1  0.41691860  0.91305224  0.95539428  1
  Se  Se163  1  0.75112737  0.24741395  0.44536705  1
  Se  Se164  1  0.75615152  0.24244707  0.95218254  1
  Se  Se165  1  0.74322559  0.58712233  0.44097691  1
  Se  Se166  1  0.74234463  0.59054383  0.93958433  1
  Se  Se167  1  0.74890915  0.92070965  0.43210445  1
  Se  Se168  1  0.74507170  0.92016142  0.95017866  1
  Se  Se169  1  0.24372806  0.08461294  0.44931289  1
  Se  Se170  1  0.25802545  0.07552013  0.94746268  1
  Se  Se171  1  0.25374942  0.41193000  0.43207279  1
  Se  Se172  1  0.25657605  0.41206664  0.94961673  1
  Se  Se173  1  0.25165613  0.75345900  0.44978122  1
  Se  Se174  1  0.25570514  0.74750273  0.94135943  1
  Se  Se175  1  0.58113777  0.08589620  0.43848744  1
  Se  Se176  1  0.58008840  0.08343289  0.95289886  1
  Se  Se177  1  0.58030907  0.41985381  0.44497789  1
  Se  Se178  1  0.59474307  0.40256836  0.94777198  1
  Se  Se179  1  0.59138847  0.74574943  0.44424494  1
  Se  Se180  1  0.57765862  0.75237602  0.94487531  1
  Se  Se181  1  0.91436662  0.08529085  0.44610392  1
  Se  Se182  1  0.91412454  0.08750636  0.94581721  1
  Se  Se183  1  0.92111017  0.41006038  0.43330969  1
  Se  Se184  1  0.92843655  0.40844043  0.93967141  1
  Se  Se185  1  0.92491193  0.74645746  0.44189022  1
  Se  Se186  1  0.91153112  0.75333476  0.95160539  1
  Se  Se187  1  0.24560349  0.24135391  0.31493502  1
  Se  Se188  1  0.25283282  0.24651011  0.80079866  1
  Se  Se189  1  0.23828878  0.58167106  0.29965077  1
  Se  Se190  1  0.25110258  0.58752581  0.80628465  1
  Se  Se191  1  0.24781192  0.91391420  0.30562470  1
  Se  Se192  1  0.24610559  0.91444766  0.81474212  1
  Se  Se193  1  0.59481103  0.26265209  0.30260466  1
  Se  Se194  1  0.57479544  0.23900897  0.81230716  1
  Se  Se195  1  0.58476346  0.58638280  0.30550789  1
  Se  Se196  1  0.58340787  0.58200877  0.79939311  1
  Se  Se197  1  0.58410326  0.91861159  0.29724815  1
  Se  Se198  1  0.57677361  0.91300442  0.81002507  1
  Se  Se199  1  0.91944822  0.24492268  0.30195806  1
  Se  Se200  1  0.91016264  0.25016398  0.80511303  1
  Se  Se201  1  0.91501850  0.57833833  0.31009790  1
  Se  Se202  1  0.92022686  0.59054545  0.80541002  1
  Se  Se203  1  0.91168871  0.91485320  0.29910608  1
  Se  Se204  1  0.92007434  0.92080390  0.80597694  1
  Se  Se205  1  0.06440670  0.05725547  0.30964149  1
  Se  Se206  1  0.08130479  0.08438633  0.79538911  1
  Se  Se207  1  0.08244160  0.41536308  0.28978087  1
  Se  Se208  1  0.08897892  0.42353554  0.81380194  1
  Se  Se209  1  0.08470647  0.75462525  0.31033322  1
  Se  Se210  1  0.08358482  0.75271163  0.80776071  1
  Se  Se211  1  0.40026121  0.07929330  0.29611132  1
  Se  Se212  1  0.42082720  0.08363428  0.80919322  1
  Se  Se213  1  0.42172976  0.42459320  0.31270633  1
  Se  Se214  1  0.41385609  0.41274828  0.80408381  1
  Se  Se215  1  0.41586281  0.74672215  0.30459854  1
  Se  Se216  1  0.41494235  0.74774746  0.80212390  1
  Se  Se217  1  0.74451651  0.08217547  0.30136923  1
  Se  Se218  1  0.75328263  0.08521303  0.80897089  1
  Se  Se219  1  0.75432785  0.41873267  0.30199873  1
  Se  Se220  1  0.75803495  0.42848577  0.80983147  1
  Se  Se221  1  0.74501487  0.74628756  0.30076712  1
  Se  Se222  1  0.74605042  0.75159038  0.80352766  1
  Se  Se223  1  0.26088533  0.08095850  0.21303371  1
  Se  Se224  1  0.24534929  0.09112710  0.68255266  1
  Se  Se225  1  0.25224492  0.42192619  0.19081054  1
  Se  Se226  1  0.24696797  0.41834870  0.69930024  1
  Se  Se227  1  0.24854099  0.74795889  0.19572268  1
  Se  Se228  1  0.25141531  0.75329607  0.70149275  1
  Se  Se229  1  0.58858105  0.07422791  0.19939786  1
  Se  Se230  1  0.57319261  0.09054839  0.68928866  1
  Se  Se231  1  0.58724027  0.41835373  0.20402540  1
  Se  Se232  1  0.57381676  0.42001472  0.68899686  1
  Se  Se233  1  0.58214317  0.74957773  0.19680912  1
  Se  Se234  1  0.58586203  0.74328165  0.69692347  1
  Se  Se235  1  0.91416565  0.07994020  0.19590674  1
  Se  Se236  1  0.91762526  0.07856859  0.69585613  1
  Se  Se237  1  0.92206679  0.41269283  0.19451477  1
  Se  Se238  1  0.90734062  0.42929911  0.68884733  1
  Se  Se239  1  0.90706388  0.75923634  0.18759342  1
  Se  Se240  1  0.92108451  0.75156299  0.69911857  1
  Se  Se241  1  0.10015402  0.22853196  0.19663242  1
  Se  Se242  1  0.08719940  0.24622579  0.68318947  1
  Se  Se243  1  0.09138055  0.57797465  0.18559834  1
  Se  Se244  1  0.08063245  0.58887909  0.70171198  1
  Se  Se245  1  0.07927945  0.91848729  0.20188005  1
  Se  Se246  1  0.09314372  0.92262528  0.69328791  1
  Se  Se247  1  0.43104168  0.24020775  0.19913298  1
  Se  Se248  1  0.40890232  0.25272140  0.69156216  1
  Se  Se249  1  0.41587107  0.58641428  0.19830104  1
  Se  Se250  1  0.40985576  0.58483307  0.69850853  1
  Se  Se251  1  0.41201509  0.91488942  0.19675459  1
  Se  Se252  1  0.42546178  0.90779544  0.68872523  1
  Se  Se253  1  0.74846418  0.25036678  0.19673224  1
  Se  Se254  1  0.74859570  0.24225667  0.69218159  1
  Se  Se255  1  0.75417135  0.58635343  0.20059789  1
  Se  Se256  1  0.74625168  0.58670596  0.69494611  1
  Se  Se257  1  0.74280912  0.92051047  0.19456215  1
  Se  Se258  1  0.75966616  0.90437243  0.68700691  1
