# generated using pymatgen
data_In86Cu29Se144
_symmetry_space_group_name_H-M   'P 1'
_cell_length_a   17.67540715
_cell_length_b   17.67157382
_cell_length_c   23.54900898
_cell_angle_alpha   89.99443976
_cell_angle_beta   89.96687785
_cell_angle_gamma   89.99082976
_symmetry_Int_Tables_number   1
_chemical_formula_structural   In86Cu29Se144
_chemical_formula_sum   'In86 Cu29 Se144'
_cell_volume   7355.58487063
_cell_formula_units_Z   1
loop_
 _symmetry_equiv_pos_site_id
 _symmetry_equiv_pos_as_xyz
  1  'x, y, z'
loop_
 _atom_site_type_symbol
 _atom_site_label
 _atom_site_symmetry_multiplicity
 _atom_site_fract_x
 _atom_site_fract_y
 _atom_site_fract_z
 _atom_site_occupancy
  In  In0  1  0.00499982  0.15775317  0.12251657  1
  In  In1  1  0.00338466  0.15528279  0.62351419  1
  In  In2  1  0.00641075  0.49468593  0.13974361  1
  In  In3  1  0.00723505  0.50062038  0.61480053  1
  In  In4  1  0.00365554  0.83929033  0.14168093  1
  In  In5  1  0.04129718  0.86933722  0.55480502  1
  In  In6  1  0.33207047  0.16533636  0.12379827  1
  In  In7  1  0.31331741  0.16132352  0.62515602  1
  In  In8  1  0.34081819  0.49764649  0.13470657  1
  In  In9  1  0.32886443  0.51482431  0.62544903  1
  In  In10  1  0.33616110  0.83081507  0.12940334  1
  In  In11  1  0.33707233  0.83020643  0.62374304  1
  In  In12  1  0.65872634  0.15894987  0.11415733  1
  In  In13  1  0.67573291  0.16975528  0.63317171  1
  In  In14  1  0.66066939  0.50422206  0.11693499  1
  In  In15  1  0.66533753  0.50638411  0.63914580  1
  In  In16  1  0.66527233  0.84858462  0.12648197  1
  In  In17  1  0.65281864  0.83166834  0.61949757  1
  In  In18  1  0.17124240  0.00254377  0.38031772  1
  In  In19  1  0.17452835  0.00187986  0.86929378  1
  In  In20  1  0.16639872  0.32799171  0.37329659  1
  In  In21  1  0.15693650  0.32152703  0.87980040  1
  In  In22  1  0.16375644  0.66839994  0.38781693  1
  In  In23  1  0.17017453  0.66309046  0.86851458  1
  In  In24  1  0.49145947  -0.01381961  0.36525540  1
  In  In25  1  0.48900354  0.00919225  0.88454570  1
  In  In26  1  0.48333787  0.33878403  0.36589427  1
  In  In27  1  0.50836986  0.32481969  0.88635521  1
  In  In28  1  0.49731746  0.67673112  0.37208747  1
  In  In29  1  0.49767401  0.66829765  0.87774233  1
  In  In30  1  0.83332277  0.00107546  0.36803655  1
  In  In31  1  0.84928042  0.00039323  0.87584672  1
  In  In32  1  0.84266696  0.31942709  0.36923683  1
  In  In33  1  0.82706293  0.33107885  0.87758008  1
  In  In34  1  0.87248967  0.67563043  0.38112000  1
  In  In35  1  0.83454206  0.67823112  0.86807547  1
  In  In36  1  0.00185693  0.16914382  0.36670665  1
  In  In37  1  0.02037740  0.15175661  0.89676019  1
  In  In38  1  0.02302081  0.51905827  0.36434914  1
  In  In39  1  -0.00457362  0.50109921  0.87751760  1
  In  In40  1  -0.00056304  0.83666295  0.38668744  1
  In  In41  1  -0.00559743  0.83794552  0.87167650  1
  In  In42  1  0.31147637  0.13905547  0.35731511  1
  In  In43  1  0.33892876  0.16010293  0.88367197  1
  In  In44  1  0.32064340  0.48588353  0.36130551  1
  In  In45  1  0.33091797  0.51589781  0.87607647  1
  In  In46  1  0.33382238  0.83970791  0.37883910  1
  In  In47  1  0.33745434  0.84491749  0.86518403  1
  In  In48  1  0.67966667  0.15951059  0.36591294  1
  In  In49  1  0.65756316  0.17441482  0.88354519  1
  In  In50  1  0.65563311  0.50616594  0.37294473  1
  In  In51  1  0.65848156  0.49288988  0.87248284  1
  In  In52  1  0.65931896  0.83921708  0.38078278  1
  In  In53  1  0.66158758  0.82323660  0.87079528  1
  In  In54  1  0.14793654  0.00924901  0.14477680  1
  In  In55  1  0.16937437  -0.00079323  0.62445088  1
  In  In56  1  0.16836179  0.32653346  0.12989369  1
  In  In57  1  0.16029104  0.32743302  0.61290466  1
  In  In58  1  0.17395173  0.66701171  0.14106761  1
  In  In59  1  0.18438176  0.69501173  0.59344435  1
  In  In60  1  0.49699703  -0.00007726  0.12019147  1
  In  In61  1  0.49606240  -0.01545715  0.62539798  1
  In  In62  1  0.49496071  0.32999126  0.11771344  1
  In  In63  1  0.49950432  0.34429978  0.63257619  1
  In  In64  1  0.48756296  0.66321893  0.11460423  1
  In  In65  1  0.49295104  0.67241816  0.63122710  1
  In  In66  1  0.82544689  0.01512428  0.14441317  1
  In  In67  1  0.86345107  -0.00951478  0.61959796  1
  In  In68  1  0.85558599  0.31737860  0.13064282  1
  In  In69  1  0.83347825  0.32787837  0.63256872  1
  In  In70  1  0.83491650  0.67572704  0.13147419  1
  In  In71  1  0.82214843  0.67730062  0.62740729  1
  In  In72  1  0.83302529  0.83643441  0.00036204  1
  In  In73  1  0.49853555  0.16837307  0.49202929  1
  In  In74  1  0.83915021  0.15912454  0.49560848  1
  In  In75  1  0.66119269  0.33379185  0.23722500  1
  In  In76  1  0.82804352  0.49508282  0.49245247  1
  In  In77  1  0.82958065  0.49592752  -0.00343620  1
  In  In78  1  0.00964391  0.68182527  0.72611239  1
  In  In79  1  0.17442816  0.49233115  0.01364284  1
  In  In80  1  -0.00816667  0.33326231  0.75851833  1
  In  In81  1  0.17043411  0.83198554  0.00875740  1
  In  In82  1  0.66830179  0.67325646  0.25605292  1
  In  In83  1  0.33857490  0.33327868  0.75423206  1
  In  In84  1  0.66587311  0.00055904  0.74892094  1
  In  In85  1  0.49295188  0.50083144  0.50191989  1
  Cu  Cu86  1  0.33849076  0.00117605  0.49467308  1
  Cu  Cu87  1  0.49999575  0.83458744  0.24869821  1
  Cu  Cu88  1  0.66672778  0.00378917  0.50001159  1
  Cu  Cu89  1  0.83122805  0.49357394  0.25325193  1
  Cu  Cu90  1  0.34036316  0.66873015  0.49871715  1
  Cu  Cu91  1  0.83039867  0.16797388  0.75315097  1
  Cu  Cu92  1  0.33144849  0.33367335  0.00578904  1
  Cu  Cu93  1  0.66624828  0.66629531  0.49745977  1
  Cu  Cu94  1  0.00536661  0.65722147  0.00880902  1
  Cu  Cu95  1  0.49408587  0.16369766  0.76124665  1
  Cu  Cu96  1  0.16880822  0.16784512  0.25122593  1
  Cu  Cu97  1  0.00179158  0.33503875  0.49256812  1
  Cu  Cu98  1  0.66404615  0.33409377  0.50444182  1
  Cu  Cu99  1  0.16054915  0.15916829  0.75130224  1
  Cu  Cu100  1  0.33941183  0.67337031  -0.00003522  1
  Cu  Cu101  1  0.16356602  0.50140078  0.25437099  1
  Cu  Cu102  1  0.83348415  0.51086133  0.75397720  1
  Cu  Cu103  1  0.32894504  -0.00007899  0.00095938  1
  Cu  Cu104  1  0.00157509  -0.00514144  0.00919377  1
  Cu  Cu105  1  0.49752159  0.82936113  0.74954758  1
  Cu  Cu106  1  0.50825411  0.50176554  0.75577139  1
  Cu  Cu107  1  0.83478776  0.84204616  0.74733556  1
  Cu  Cu108  1  0.65694701  0.66895446  -0.00441539  1
  Cu  Cu109  1  0.66793625  0.00107575  0.00334546  1
  Cu  Cu110  1  0.50440023  0.16829431  0.23970119  1
  Cu  Cu111  1  0.32611913  0.33050915  0.49196708  1
  Cu  Cu112  1  0.84018197  0.83091118  0.25765094  1
  Cu  Cu113  1  0.66960347  0.33084140  0.00096955  1
  Cu  Cu114  1  0.17522767  0.50179958  0.74708945  1
  Se  Se115  1  0.09402270  0.07538074  0.05535567  1
  Se  Se116  1  0.09560162  0.09172986  0.55642323  1
  Se  Se117  1  0.07183282  0.40866522  0.06217894  1
  Se  Se118  1  0.08494218  0.41685812  0.54609271  1
  Se  Se119  1  0.07784416  0.74193173  0.06784342  1
  Se  Se120  1  0.05701970  0.72165982  0.54705947  1
  Se  Se121  1  0.41367664  0.08396128  0.05267702  1
  Se  Se122  1  0.41435399  0.08209903  0.55985730  1
  Se  Se123  1  0.41178364  0.42176631  0.05589283  1
  Se  Se124  1  0.40249288  0.40566157  0.55884840  1
  Se  Se125  1  0.41682933  0.76261529  0.05167912  1
  Se  Se126  1  0.42341762  0.74970670  0.55395515  1
  Se  Se127  1  0.75653811  0.07587135  0.05733794  1
  Se  Se128  1  0.74819623  0.07692756  0.56279601  1
  Se  Se129  1  0.75036297  0.40574160  0.06439517  1
  Se  Se130  1  0.74266686  0.41283428  0.56432240  1
  Se  Se131  1  0.74147411  0.74308825  0.05757681  1
  Se  Se132  1  0.74120275  0.75159282  0.55382352  1
  Se  Se133  1  0.24808135  0.25024524  0.05631082  1
  Se  Se134  1  0.24899305  0.24605858  0.54958710  1
  Se  Se135  1  0.25680230  0.59780829  0.06160953  1
  Se  Se136  1  0.25420791  0.58050548  0.54571130  1
  Se  Se137  1  0.25151528  0.92867019  0.06679867  1
  Se  Se138  1  0.26163381  0.92226864  0.55717711  1
  Se  Se139  1  0.58025643  0.24956057  0.05024365  1
  Se  Se140  1  0.58499658  0.25347848  0.56326129  1
  Se  Se141  1  0.57789031  0.58385170  0.04926424  1
  Se  Se142  1  0.58961867  0.58562861  0.55992574  1
  Se  Se143  1  0.58278410  0.91658073  0.05174819  1
  Se  Se144  1  0.57981495  0.92063898  0.54949385  1
  Se  Se145  1  0.91894965  0.23688803  0.05446976  1
  Se  Se146  1  0.92178178  0.25951367  0.55691738  1
  Se  Se147  1  0.91694470  0.58239262  0.06461728  1
  Se  Se148  1  0.90566251  0.58336284  0.56016080  1
  Se  Se149  1  0.91963390  0.91705080  0.06760109  1
  Se  Se150  1  0.89738389  0.90423319  0.53678283  1
  Se  Se151  1  0.08038280  0.24642659  0.44086907  1
  Se  Se152  1  0.08237881  0.25541139  0.95771465  1
  Se  Se153  1  0.07548479  0.58356162  0.45284764  1
  Se  Se154  1  0.08526916  0.58291817  0.94625854  1
  Se  Se155  1  0.09577183  0.91245927  0.44991080  1
  Se  Se156  1  0.07787691  0.91640985  0.94467238  1
  Se  Se157  1  0.40307647  0.24969118  0.43247551  1
  Se  Se158  1  0.41380631  0.25076643  0.94967379  1
  Se  Se159  1  0.40934559  0.58388829  0.43501468  1
  Se  Se160  1  0.41721113  0.58376187  0.94842616  1
  Se  Se161  1  0.42499531  0.91598836  0.44818177  1
  Se  Se162  1  0.40869360  0.91583254  0.94579055  1
  Se  Se163  1  0.74244827  0.25505925  0.44361686  1
  Se  Se164  1  0.75216740  0.24729742  0.94876942  1
  Se  Se165  1  0.74555744  0.59384487  0.43324601  1
  Se  Se166  1  0.74694719  0.59565299  0.93739762  1
  Se  Se167  1  0.74742737  0.92671820  0.44073532  1
  Se  Se168  1  0.74327461  0.92286733  0.93666468  1
  Se  Se169  1  0.25247955  0.08874625  0.45015329  1
  Se  Se170  1  0.24523955  0.08126693  0.94583678  1
  Se  Se171  1  0.24588402  0.41757280  0.44100838  1
  Se  Se172  1  0.25623044  0.41068675  0.93896600  1
  Se  Se173  1  0.25482412  0.75407229  0.44861193  1
  Se  Se174  1  0.25352002  0.74547143  0.93983215  1
  Se  Se175  1  0.58947668  0.07862098  0.43472342  1
  Se  Se176  1  0.58269450  0.08247187  0.94926906  1
  Se  Se177  1  0.58327155  0.40724022  0.44175120  1
  Se  Se178  1  0.58693066  0.41734989  0.95036324  1
  Se  Se179  1  0.57987878  0.74779596  0.44554954  1
  Se  Se180  1  0.57730041  0.75714766  0.94563381  1
  Se  Se181  1  0.93058636  0.07246901  0.43931169  1
  Se  Se182  1  0.91769461  0.07672028  0.95409207  1
  Se  Se183  1  0.92271559  0.41296299  0.43186168  1
  Se  Se184  1  0.92695623  0.40509219  0.94497964  1
  Se  Se185  1  0.89793136  0.77561580  0.45688395  1
  Se  Se186  1  0.92812928  0.73979572  0.94620241  1
  Se  Se187  1  0.25347669  0.25249360  0.30201066  1
  Se  Se188  1  0.24274857  0.24236331  0.80878330  1
  Se  Se189  1  0.24000690  0.58814892  0.31050630  1
  Se  Se190  1  0.25565412  0.58778565  0.79814263  1
  Se  Se191  1  0.27622069  0.94547689  0.31553353  1
  Se  Se192  1  0.22887851  0.89911299  0.80446107  1
  Se  Se193  1  0.57847474  0.24619650  0.30762668  1
  Se  Se194  1  0.58014169  0.24935135  0.80755409  1
  Se  Se195  1  0.56833077  0.57899546  0.30152735  1
  Se  Se196  1  0.58627609  0.58925765  0.80904920  1
  Se  Se197  1  0.58852224  0.91413899  0.30102629  1
  Se  Se198  1  0.57298609  0.91593397  0.80998062  1
  Se  Se199  1  0.90021323  0.22642193  0.29899480  1
  Se  Se200  1  0.91476354  0.23485638  0.81816004  1
  Se  Se201  1  0.91089349  0.57771713  0.30679872  1
  Se  Se202  1  0.92523798  0.59030801  0.80372569  1
  Se  Se203  1  0.92432523  0.91465328  0.30915944  1
  Se  Se204  1  0.92083458  0.92187854  0.79944648  1
  Se  Se205  1  0.09052180  0.08154429  0.30689118  1
  Se  Se206  1  0.07727870  0.08236352  0.80915173  1
  Se  Se207  1  0.08245738  0.41143375  0.30407890  1
  Se  Se208  1  0.09336960  0.42599873  0.80873550  1
  Se  Se209  1  0.06162211  0.73293574  0.32438359  1
  Se  Se210  1  0.08643750  0.75598012  0.80671006  1
  Se  Se211  1  0.42846008  0.08927220  0.30264551  1
  Se  Se212  1  0.40863985  0.07874446  0.80729446  1
  Se  Se213  1  0.41841688  0.42412955  0.29388306  1
  Se  Se214  1  0.42526659  0.42255838  0.81592310  1
  Se  Se215  1  0.41460105  0.75838209  0.30543510  1
  Se  Se216  1  0.41608133  0.74829079  0.80593751  1
  Se  Se217  1  0.75678353  0.08228989  0.29524323  1
  Se  Se218  1  0.75228378  0.08692424  0.81405354  1
  Se  Se219  1  0.74618063  0.41638493  0.31065183  1
  Se  Se220  1  0.75817887  0.42311834  0.80924693  1
  Se  Se221  1  0.76127423  0.75228623  0.31933849  1
  Se  Se222  1  0.75263038  0.75769851  0.79884438  1
  Se  Se223  1  0.25264699  0.08544018  0.19711076  1
  Se  Se224  1  0.24775142  0.07823574  0.70070487  1
  Se  Se225  1  0.24266017  0.42176790  0.19422155  1
  Se  Se226  1  0.24607226  0.41276400  0.68767218  1
  Se  Se227  1  0.23790672  0.77223606  0.20069848  1
  Se  Se228  1  0.25146461  0.73955217  0.68340733  1
  Se  Se229  1  0.58394088  0.08045704  0.18892809  1
  Se  Se230  1  0.57144265  0.09070286  0.69179713  1
  Se  Se231  1  0.57050848  0.42930705  0.18699692  1
  Se  Se232  1  0.58712225  0.41392754  0.70298672  1
  Se  Se233  1  0.58037178  0.75354787  0.18809940  1
  Se  Se234  1  0.58413917  0.75068971  0.69643752  1
  Se  Se235  1  0.95189794  0.05157109  0.18978592  1
  Se  Se236  1  0.90812547  0.09009341  0.69240543  1
  Se  Se237  1  0.91676740  0.41181780  0.20194250  1
  Se  Se238  1  0.91344101  0.43022762  0.69308685  1
  Se  Se239  1  0.91959336  0.74785037  0.20203873  1
  Se  Se240  1  0.91255569  0.77238767  0.67984718  1
  Se  Se241  1  0.08241640  0.24358070  0.19455927  1
  Se  Se242  1  0.08587201  0.24966154  0.69483705  1
  Se  Se243  1  0.08092863  0.58860825  0.20290401  1
  Se  Se244  1  0.09653977  0.57581976  0.68342279  1
  Se  Se245  1  0.11687346  0.88658117  0.20123250  1
  Se  Se246  1  0.06326720  0.90807266  0.66001732  1
  Se  Se247  1  0.41770948  0.25038709  0.19057139  1
  Se  Se248  1  0.42111789  0.23936350  0.69077639  1
  Se  Se249  1  0.40073461  0.60747099  0.19160416  1
  Se  Se250  1  0.42294162  0.57528993  0.69635182  1
  Se  Se251  1  0.41986983  0.91789334  0.19339468  1
  Se  Se252  1  0.41377685  0.91372571  0.69808124  1
  Se  Se253  1  0.75043188  0.23896276  0.18581443  1
  Se  Se254  1  0.74824206  0.25550608  0.70468183  1
  Se  Se255  1  0.75233894  0.57502465  0.19290310  1
  Se  Se256  1  0.74999264  0.59258080  0.70121518  1
  Se  Se257  1  0.75502483  0.90874699  0.20052522  1
  Se  Se258  1  0.75344432  0.91797950  0.68331279  1
