# generated using pymatgen
data_In86Cu29Se144
_symmetry_space_group_name_H-M   'P 1'
_cell_length_a   17.57869722
_cell_length_b   17.57947539
_cell_length_c   23.44392178
_cell_angle_alpha   89.97921997
_cell_angle_beta   89.98555157
_cell_angle_gamma   90.00956996
_symmetry_Int_Tables_number   1
_chemical_formula_structural   In86Cu29Se144
_chemical_formula_sum   'In86 Cu29 Se144'
_cell_volume   7244.74012389
_cell_formula_units_Z   1
loop_
 _symmetry_equiv_pos_site_id
 _symmetry_equiv_pos_as_xyz
  1  'x, y, z'
loop_
 _atom_site_type_symbol
 _atom_site_label
 _atom_site_symmetry_multiplicity
 _atom_site_fract_x
 _atom_site_fract_y
 _atom_site_fract_z
 _atom_site_occupancy
  In  In0  1  0.00514873  0.17462800  0.12676860  1
  In  In1  1  -0.01493417  0.16596433  0.62737174  1
  In  In2  1  0.00646342  0.49487525  0.13713783  1
  In  In3  1  0.00437164  0.49941295  0.61584442  1
  In  In4  1  -0.01030799  0.82101295  0.12004166  1
  In  In5  1  0.01422772  0.82900569  0.62657316  1
  In  In6  1  0.34682769  0.16826645  0.12521199  1
  In  In7  1  0.36205015  0.16675223  0.61881512  1
  In  In8  1  0.33577409  0.50293803  0.12599989  1
  In  In9  1  0.33306457  0.49791151  0.62449010  1
  In  In10  1  0.32557564  0.82697086  0.11705403  1
  In  In11  1  0.32298644  0.84078871  0.61988424  1
  In  In12  1  0.66045885  0.17309402  0.12509303  1
  In  In13  1  0.65329327  0.18107108  0.63408941  1
  In  In14  1  0.65605995  0.51100180  0.13329782  1
  In  In15  1  0.65119203  0.51550456  0.64270456  1
  In  In16  1  0.66616052  0.82990759  0.12202634  1
  In  In17  1  0.67126250  0.82954439  0.63546648  1
  In  In18  1  0.15751311  -0.00589189  0.38003433  1
  In  In19  1  0.15541326  -0.00418020  0.87355926  1
  In  In20  1  0.18793444  0.34991907  0.36825477  1
  In  In21  1  0.18058863  0.32895472  0.87629525  1
  In  In22  1  0.16797361  0.66040967  0.37613666  1
  In  In23  1  0.16739703  0.66311489  0.88468948  1
  In  In24  1  0.51312308  -0.00413236  0.37433316  1
  In  In25  1  0.52031275  -0.01260218  0.89519942  1
  In  In26  1  0.49961734  0.33624581  0.37537497  1
  In  In27  1  0.49874441  0.33153521  0.87778694  1
  In  In28  1  0.49143898  0.66514532  0.36820771  1
  In  In29  1  0.51436502  0.65224646  0.88493374  1
  In  In30  1  0.82303001  0.00813218  0.37169559  1
  In  In31  1  0.81721208  -0.01821116  0.87027559  1
  In  In32  1  0.83635399  0.35012485  0.35491967  1
  In  In33  1  0.81231016  0.34846479  0.87531248  1
  In  In34  1  0.82937661  0.65411499  0.35881183  1
  In  In35  1  0.82793203  0.67409323  0.87781006  1
  In  In36  1  -0.01392980  0.16966833  0.37455181  1
  In  In37  1  0.01307848  0.16368704  0.87287952  1
  In  In38  1  0.02085171  0.52167874  0.35972378  1
  In  In39  1  -0.00053792  0.51162127  0.88027380  1
  In  In40  1  0.01279370  0.82134107  0.37826053  1
  In  In41  1  -0.01219958  0.83222376  0.88388881  1
  In  In42  1  0.33488760  0.18179591  0.37617195  1
  In  In43  1  0.34247849  0.18400467  0.86973976  1
  In  In44  1  0.33817790  0.50267953  0.37685388  1
  In  In45  1  0.34656876  0.48549142  0.88404499  1
  In  In46  1  0.33317021  0.81791146  0.37145962  1
  In  In47  1  0.33609080  0.83170282  0.88333396  1
  In  In48  1  0.65905936  0.16617982  0.37138813  1
  In  In49  1  0.65465703  0.15565036  0.87382413  1
  In  In50  1  0.65853819  0.49524567  0.36822063  1
  In  In51  1  0.64536973  0.48145393  0.85276270  1
  In  In52  1  0.65721078  0.82859625  0.36393313  1
  In  In53  1  0.66875533  0.83205300  0.88072064  1
  In  In54  1  0.17372625  -0.00437684  0.12205859  1
  In  In55  1  0.17268321  -0.01650385  0.62589997  1
  In  In56  1  0.16002438  0.34696444  0.13472558  1
  In  In57  1  0.16762009  0.35036191  0.62183217  1
  In  In58  1  0.17170038  0.66584107  0.12715580  1
  In  In59  1  0.16278262  0.66924201  0.61212403  1
  In  In60  1  0.51558986  0.00715971  0.10992833  1
  In  In61  1  0.50014285  0.01092786  0.62577367  1
  In  In62  1  0.49653865  0.33763839  0.12603695  1
  In  In63  1  0.50574685  0.33708420  0.62376510  1
  In  In64  1  0.49920025  0.66588337  0.12406628  1
  In  In65  1  0.51289755  0.65656899  0.62729899  1
  In  In66  1  0.82447881  -0.01768212  0.11732769  1
  In  In67  1  0.82701583  0.00688598  0.63772410  1
  In  In68  1  0.82177759  0.35323295  0.14392437  1
  In  In69  1  0.83083626  0.33444326  0.62560752  1
  In  In70  1  0.82281502  0.66844316  0.14164649  1
  In  In71  1  0.81898596  0.65621438  0.62383922  1
  In  In72  1  0.33862341  0.00568060  0.74596906  1
  In  In73  1  0.17454203  0.16372995  -0.00191905  1
  In  In74  1  0.17045377  0.16688306  0.49699204  1
  In  In75  1  0.83667346  0.16417340  0.00387475  1
  In  In76  1  0.83346972  0.82746810  0.49998072  1
  In  In77  1  0.82927656  0.51265903  0.00395186  1
  In  In78  1  0.49222508  0.83005154  0.49811218  1
  In  In79  1  -0.00488350  0.33488618  0.74750303  1
  In  In80  1  -0.00909479  -0.00034306  0.24795495  1
  In  In81  1  -0.00854770  0.66720805  0.74619095  1
  In  In82  1  0.83187031  0.50135239  0.49434800  1
  In  In83  1  0.82497692  0.17220102  0.49991322  1
  In  In84  1  0.34074338  -0.00090320  0.24515184  1
  In  In85  1  0.33977272  0.66209333  0.74770937  1
  Cu  Cu86  1  0.50474079  0.83262011  0.24251838  1
  Cu  Cu87  1  0.33290538  0.66470328  0.00248351  1
  Cu  Cu88  1  0.49520899  0.50026045  0.25006841  1
  Cu  Cu89  1  0.16715539  0.82601919  0.24780724  1
  Cu  Cu90  1  0.83148242  0.83941338  0.75724756  1
  Cu  Cu91  1  0.50613115  0.83263653  0.75756160  1
  Cu  Cu92  1  0.16567694  0.17704580  0.25280346  1
  Cu  Cu93  1  0.33347250  0.34024481  0.00202302  1
  Cu  Cu94  1  0.66146242  0.33425410  0.49661573  1
  Cu  Cu95  1  0.33526121  -0.00182025  0.00051746  1
  Cu  Cu96  1  0.50374616  0.17339424  0.24728185  1
  Cu  Cu97  1  0.15996865  0.83301987  0.75142417  1
  Cu  Cu98  1  0.50280269  0.17002425  0.75245499  1
  Cu  Cu99  1  0.17280472  0.49780001  0.75115922  1
  Cu  Cu100  1  -0.00147679  0.34141762  0.00998140  1
  Cu  Cu101  1  0.00623443  0.66534911  0.00651968  1
  Cu  Cu102  1  0.01013975  0.34271330  0.49054799  1
  Cu  Cu103  1  0.82982651  0.83311024  0.24762385  1
  Cu  Cu104  1  0.82304196  0.16655192  0.24770859  1
  Cu  Cu105  1  0.33229270  0.66158744  0.49585058  1
  Cu  Cu106  1  0.65744863  0.33590872  0.00060296  1
  Cu  Cu107  1  0.66917833  0.66664044  0.00408738  1
  Cu  Cu108  1  0.17664387  0.50443347  0.25082206  1
  Cu  Cu109  1  0.83677851  0.16321911  0.75682825  1
  Cu  Cu110  1  0.34129452  0.33739980  0.49941637  1
  Cu  Cu111  1  -0.00259156  -0.00787486  -0.00573320  1
  Cu  Cu112  1  0.17037079  0.16606995  0.74958721  1
  Cu  Cu113  1  0.66139127  0.00075330  0.49958647  1
  Cu  Cu114  1  0.00230790  -0.00762341  0.50669977  1
  Se  Se115  1  0.07385656  0.07581871  0.05538498  1
  Se  Se116  1  0.07756166  0.08218877  0.56196102  1
  Se  Se117  1  0.08549008  0.42363811  0.05814927  1
  Se  Se118  1  0.09074421  0.42479876  0.54549877  1
  Se  Se119  1  0.08967191  0.75149293  0.05733561  1
  Se  Se120  1  0.07706666  0.75131838  0.54804877  1
  Se  Se121  1  0.41579155  0.08570751  0.05100067  1
  Se  Se122  1  0.40978628  0.06477772  0.55015208  1
  Se  Se123  1  0.41888126  0.42220667  0.05472909  1
  Se  Se124  1  0.42134412  0.42019464  0.55618768  1
  Se  Se125  1  0.41804244  0.74887401  0.05331052  1
  Se  Se126  1  0.40806280  0.73809319  0.56396588  1
  Se  Se127  1  0.73932398  0.07649292  0.05628068  1
  Se  Se128  1  0.73914499  0.08082706  0.56164313  1
  Se  Se129  1  0.74095193  0.41525591  0.05957162  1
  Se  Se130  1  0.74432016  0.41215744  0.55612091  1
  Se  Se131  1  0.75685804  0.74236073  0.05961306  1
  Se  Se132  1  0.73443520  0.74227172  0.55487263  1
  Se  Se133  1  0.25255265  0.25760740  0.06269650  1
  Se  Se134  1  0.25771492  0.25698184  0.55971724  1
  Se  Se135  1  0.24942196  0.58154644  0.05595505  1
  Se  Se136  1  0.25133935  0.58037175  0.55453455  1
  Se  Se137  1  0.24630134  0.91580819  0.04839791  1
  Se  Se138  1  0.24521964  0.91528113  0.54663074  1
  Se  Se139  1  0.57703208  0.25246766  0.05535092  1
  Se  Se140  1  0.58222731  0.24803318  0.55163499  1
  Se  Se141  1  0.58282942  0.58218030  0.05399611  1
  Se  Se142  1  0.58707154  0.57535983  0.55518909  1
  Se  Se143  1  0.58432825  0.90661166  0.04978638  1
  Se  Se144  1  0.58793801  0.91523425  0.56077418  1
  Se  Se145  1  0.91351377  0.26417499  0.06603872  1
  Se  Se146  1  0.92765073  0.26430521  0.55105673  1
  Se  Se147  1  0.92366879  0.58926460  0.06879339  1
  Se  Se148  1  0.92135975  0.59549265  0.55496343  1
  Se  Se149  1  0.91614422  0.91048805  0.05026522  1
  Se  Se150  1  0.91345695  0.92224189  0.56572719  1
  Se  Se151  1  0.08383519  0.25511085  0.43217848  1
  Se  Se152  1  0.07646415  0.26005752  0.94740051  1
  Se  Se153  1  0.08136446  0.58434284  0.44640282  1
  Se  Se154  1  0.08561608  0.57888600  0.95326736  1
  Se  Se155  1  0.08175187  0.91042802  0.45075935  1
  Se  Se156  1  0.08607252  0.90922892  0.94575560  1
  Se  Se157  1  0.42203937  0.25012298  0.44843502  1
  Se  Se158  1  0.41492070  0.25219878  0.95050003  1
  Se  Se159  1  0.42314463  0.58431565  0.44611429  1
  Se  Se160  1  0.41707312  0.58144098  0.94944048  1
  Se  Se161  1  0.40860756  0.92018484  0.43433287  1
  Se  Se162  1  0.41978226  0.91073792  0.95268878  1
  Se  Se163  1  0.74885513  0.26512766  0.43330766  1
  Se  Se164  1  0.74301271  0.25481555  0.94525227  1
  Se  Se165  1  0.74005002  0.59013981  0.43648218  1
  Se  Se166  1  0.73458529  0.58235230  0.93564900  1
  Se  Se167  1  0.74023531  0.91988929  0.44029526  1
  Se  Se168  1  0.75462285  0.90938087  0.95116663  1
  Se  Se169  1  0.25824519  0.07638313  0.43669592  1
  Se  Se170  1  0.26082714  0.07651751  0.93282887  1
  Se  Se171  1  0.25506151  0.42151687  0.44938286  1
  Se  Se172  1  0.24471509  0.41840635  0.94917559  1
  Se  Se173  1  0.24965523  0.74806512  0.44543141  1
  Se  Se174  1  0.24969913  0.74982332  0.94919959  1
  Se  Se175  1  0.58183328  0.08625414  0.44593297  1
  Se  Se176  1  0.57807232  0.09519601  0.95516160  1
  Se  Se177  1  0.58036686  0.42132860  0.44487783  1
  Se  Se178  1  0.58306749  0.42168874  0.94221748  1
  Se  Se179  1  0.58623108  0.74436599  0.43997680  1
  Se  Se180  1  0.58408491  0.74915698  0.94982204  1
  Se  Se181  1  0.92018122  0.07211366  0.44743009  1
  Se  Se182  1  0.92218757  0.07854420  0.93624674  1
  Se  Se183  1  0.92373126  0.41648556  0.43213567  1
  Se  Se184  1  0.91686937  0.41283037  0.94431824  1
  Se  Se185  1  0.91369985  0.73718705  0.43493923  1
  Se  Se186  1  0.91582852  0.74046368  0.95195199  1
  Se  Se187  1  0.25790376  0.25494503  0.30025111  1
  Se  Se188  1  0.25243008  0.25325895  0.79840746  1
  Se  Se189  1  0.25821715  0.58733366  0.30649977  1
  Se  Se190  1  0.24911737  0.57799507  0.81289890  1
  Se  Se191  1  0.24260229  0.91432797  0.30532240  1
  Se  Se192  1  0.24971344  0.91052525  0.80611522  1
  Se  Se193  1  0.58422344  0.25651452  0.30393703  1
  Se  Se194  1  0.58635719  0.25203630  0.80763381  1
  Se  Se195  1  0.57943717  0.58574520  0.30133716  1
  Se  Se196  1  0.58094053  0.59168331  0.79889511  1
  Se  Se197  1  0.58384501  0.92026367  0.29592726  1
  Se  Se198  1  0.58562832  0.91807767  0.81101826  1
  Se  Se199  1  0.91245309  0.24553888  0.29925421  1
  Se  Se200  1  0.91009975  0.24931297  0.81704459  1
  Se  Se201  1  0.91799825  0.57724529  0.29385758  1
  Se  Se202  1  0.90566321  0.57672733  0.80860697  1
  Se  Se203  1  0.90936118  0.90830755  0.31383038  1
  Se  Se204  1  0.92261840  0.91738017  0.80731169  1
  Se  Se205  1  0.08618203  0.08990214  0.30780165  1
  Se  Se206  1  0.08625103  0.08174143  0.79907670  1
  Se  Se207  1  0.09131321  0.41682181  0.30141421  1
  Se  Se208  1  0.08610591  0.42227471  0.81103430  1
  Se  Se209  1  0.08583955  0.74360562  0.30321038  1
  Se  Se210  1  0.08447652  0.74947854  0.81136506  1
  Se  Se211  1  0.42462299  0.09071215  0.30887489  1
  Se  Se212  1  0.42813866  0.08363745  0.81344978  1
  Se  Se213  1  0.41446484  0.41630280  0.30594139  1
  Se  Se214  1  0.41227812  0.40763855  0.80699949  1
  Se  Se215  1  0.41802139  0.75324655  0.29621570  1
  Se  Se216  1  0.42309246  0.75156417  0.81338742  1
  Se  Se217  1  0.74061623  0.08233842  0.30059158  1
  Se  Se218  1  0.74864732  0.08226299  0.80769142  1
  Se  Se219  1  0.74491416  0.42737780  0.29313535  1
  Se  Se220  1  0.75115388  0.41753873  0.79243879  1
  Se  Se221  1  0.74565159  0.74773122  0.29920907  1
  Se  Se222  1  0.74787331  0.75208131  0.80576864  1
  Se  Se223  1  0.24158835  0.09302926  0.19212589  1
  Se  Se224  1  0.24920464  0.09354512  0.68306013  1
  Se  Se225  1  0.25774299  0.41760348  0.19819187  1
  Se  Se226  1  0.25368626  0.41457215  0.69705592  1
  Se  Se227  1  0.25722825  0.74913036  0.19601424  1
  Se  Se228  1  0.24073398  0.75234043  0.69215874  1
  Se  Se229  1  0.57908155  0.08449814  0.19221079  1
  Se  Se230  1  0.58399840  0.08222151  0.69947666  1
  Se  Se231  1  0.57939627  0.41690659  0.19708728  1
  Se  Se232  1  0.60522713  0.39505087  0.69376514  1
  Se  Se233  1  0.58797650  0.74468068  0.19285592  1
  Se  Se234  1  0.58115636  0.74793195  0.69840638  1
  Se  Se235  1  0.90327501  0.08836429  0.18421718  1
  Se  Se236  1  0.92105260  0.08145408  0.70358993  1
  Se  Se237  1  0.93160476  0.40429010  0.20345574  1
  Se  Se238  1  0.91165481  0.43225969  0.68921665  1
  Se  Se239  1  0.92014326  0.74979220  0.20135877  1
  Se  Se240  1  0.90309452  0.76094341  0.68750789  1
  Se  Se241  1  0.07925484  0.25539072  0.19929540  1
  Se  Se242  1  0.08937259  0.24633690  0.68720518  1
  Se  Se243  1  0.08974675  0.58626354  0.19895124  1
  Se  Se244  1  0.09197516  0.57793406  0.69154835  1
  Se  Se245  1  0.08662737  0.91157808  0.19063787  1
  Se  Se246  1  0.08062486  0.91999392  0.69880553  1
  Se  Se247  1  0.41463785  0.25430449  0.19806808  1
  Se  Se248  1  0.42263817  0.25198165  0.69506693  1
  Se  Se249  1  0.41569457  0.58717309  0.19593667  1
  Se  Se250  1  0.43055775  0.56668387  0.69658777  1
  Se  Se251  1  0.42516903  0.91276245  0.18043336  1
  Se  Se252  1  0.42492789  0.90401105  0.69113945  1
  Se  Se253  1  0.74029220  0.25305072  0.19749338  1
  Se  Se254  1  0.76131700  0.24323638  0.69448902  1
  Se  Se255  1  0.76401227  0.55904896  0.20014469  1
  Se  Se256  1  0.75007566  0.58801617  0.70397017  1
  Se  Se257  1  0.74575090  0.91531831  0.19509763  1
  Se  Se258  1  0.74470221  0.92061854  0.70303428  1
