# generated using pymatgen
data_In86Cu29Se144
_symmetry_space_group_name_H-M   'P 1'
_cell_length_a   17.57605896
_cell_length_b   17.57674669
_cell_length_c   23.43823736
_cell_angle_alpha   90.00120608
_cell_angle_beta   89.97999943
_cell_angle_gamma   90.00300761
_symmetry_Int_Tables_number   1
_chemical_formula_structural   In86Cu29Se144
_chemical_formula_sum   'In86 Cu29 Se144'
_cell_volume   7240.77271719
_cell_formula_units_Z   1
loop_
 _symmetry_equiv_pos_site_id
 _symmetry_equiv_pos_as_xyz
  1  'x, y, z'
loop_
 _atom_site_type_symbol
 _atom_site_label
 _atom_site_symmetry_multiplicity
 _atom_site_fract_x
 _atom_site_fract_y
 _atom_site_fract_z
 _atom_site_occupancy
  In  In0  1  0.03253269  0.17551689  0.11200235  1
  In  In1  1  -0.00710257  0.15793275  0.62537728  1
  In  In2  1  -0.00154100  0.49339898  0.12042002  1
  In  In3  1  0.01601739  0.51373658  0.61632985  1
  In  In4  1  0.00387851  0.83994175  0.12318651  1
  In  In5  1  0.02862255  0.80162244  0.65425220  1
  In  In6  1  0.32766594  0.19445114  0.12302091  1
  In  In7  1  0.34517594  0.15673939  0.62471187  1
  In  In8  1  0.33920827  0.49389519  0.11771922  1
  In  In9  1  0.31241022  0.51587636  0.64840995  1
  In  In10  1  0.33360431  0.81453251  0.12365981  1
  In  In11  1  0.32313169  0.82073825  0.60614985  1
  In  In12  1  0.66852927  0.16618779  0.13266566  1
  In  In13  1  0.64625309  0.16246247  0.61955104  1
  In  In14  1  0.66386188  0.50478237  0.12556344  1
  In  In15  1  0.67091472  0.49284189  0.62395601  1
  In  In16  1  0.65473268  0.84251689  0.13145611  1
  In  In17  1  0.65428191  0.83925778  0.62744423  1
  In  In18  1  0.16366069  -0.00388171  0.38268132  1
  In  In19  1  0.16461614  0.00017313  0.87281561  1
  In  In20  1  0.17532184  0.35406499  0.35955865  1
  In  In21  1  0.17576313  0.33700302  0.87669112  1
  In  In22  1  0.17932838  0.65763963  0.38210981  1
  In  In23  1  0.15843842  0.65020122  0.84854610  1
  In  In24  1  0.50590331  -0.00936641  0.38610752  1
  In  In25  1  0.49514849  -0.01864965  0.87707713  1
  In  In26  1  0.49218408  0.32965371  0.36792881  1
  In  In27  1  0.48362451  0.34840705  0.88329614  1
  In  In28  1  0.50082814  0.66792094  0.37129582  1
  In  In29  1  0.50455728  0.66393865  0.87015439  1
  In  In30  1  0.83500119  0.01237757  0.37534843  1
  In  In31  1  0.82736344  -0.00341087  0.86622779  1
  In  In32  1  0.84716642  0.34521920  0.36425376  1
  In  In33  1  0.84187098  0.34164614  0.87951129  1
  In  In34  1  0.81866651  0.66884470  0.37519646  1
  In  In35  1  0.82775819  0.66010786  0.87089867  1
  In  In36  1  -0.00594726  0.16922792  0.37525679  1
  In  In37  1  0.00943577  0.16675720  0.87414301  1
  In  In38  1  0.00988880  0.49728536  0.38182462  1
  In  In39  1  0.00294017  0.50026133  0.87941224  1
  In  In40  1  0.00770698  0.84264822  0.38212710  1
  In  In41  1  0.00711266  0.82846678  0.85887748  1
  In  In42  1  0.33316380  0.18646867  0.37691594  1
  In  In43  1  0.31600795  0.16573047  0.87831496  1
  In  In44  1  0.32501983  0.49955385  0.36504745  1
  In  In45  1  0.33352085  0.50027040  0.86918446  1
  In  In46  1  0.34840335  0.82111395  0.38968713  1
  In  In47  1  0.33938848  0.83417576  0.87766341  1
  In  In48  1  0.66071772  0.16168493  0.36704161  1
  In  In49  1  0.67116212  0.16504115  0.87332898  1
  In  In50  1  0.67318142  0.50956848  0.36984625  1
  In  In51  1  0.65265326  0.51565082  0.88859993  1
  In  In52  1  0.65259890  0.82560787  0.36975320  1
  In  In53  1  0.65608577  0.82150712  0.86686278  1
  In  In54  1  0.15952291  0.02052071  0.11883954  1
  In  In55  1  0.18079388  -0.04886829  0.63498864  1
  In  In56  1  0.17081940  0.33783097  0.12262304  1
  In  In57  1  0.16868081  0.35103346  0.62849904  1
  In  In58  1  0.18804127  0.65422042  0.13223746  1
  In  In59  1  0.17236388  0.66396545  0.63032900  1
  In  In60  1  0.51019549  0.00243385  0.12211394  1
  In  In61  1  0.49652334  0.00463353  0.61579255  1
  In  In62  1  0.48061903  0.35576399  0.13747258  1
  In  In63  1  0.49296147  0.32526086  0.62676394  1
  In  In64  1  0.49888424  0.66547579  0.12128087  1
  In  In65  1  0.48161358  0.67086648  0.63991989  1
  In  In66  1  0.83129035  -0.00632551  0.12573434  1
  In  In67  1  0.83968431  -0.01294605  0.63251895  1
  In  In68  1  0.82331907  0.34251491  0.13140719  1
  In  In69  1  0.82403948  0.33919530  0.62207723  1
  In  In70  1  0.83565072  0.65387945  0.12210272  1
  In  In71  1  0.83860715  0.65785919  0.62803377  1
  In  In72  1  0.49842718  0.49634907  0.50687452  1
  In  In73  1  0.49701255  0.17233499  0.00498694  1
  In  In74  1  0.17321793  0.82602000  -0.00457402  1
  In  In75  1  0.83113718  0.17128936  0.49747876  1
  In  In76  1  0.16748997  0.16737853  0.50251293  1
  In  In77  1  0.83751305  0.82434206  0.00127947  1
  In  In78  1  0.33867456  -0.00043254  0.25670703  1
  In  In79  1  0.33641204  -0.00546798  0.75049601  1
  In  In80  1  -0.00526861  0.00728721  0.24669587  1
  In  In81  1  0.00096690  0.33511551  0.75541429  1
  In  In82  1  0.83563911  0.83181336  0.50209188  1
  In  In83  1  0.83668287  0.17229424  -0.00419902  1
  In  In84  1  0.00045460  0.66405918  0.24256226  1
  In  In85  1  0.65858095  0.33657872  0.75065846  1
  Cu  Cu86  1  0.16909995  0.82903776  0.25413463  1
  Cu  Cu87  1  0.50513979  0.16716650  0.24964469  1
  Cu  Cu88  1  0.50079424  0.50606478  0.24669182  1
  Cu  Cu89  1  0.83385766  0.16889624  0.24820421  1
  Cu  Cu90  1  0.66211249  0.34445931  0.01053039  1
  Cu  Cu91  1  0.00432395  0.66539228  0.50861945  1
  Cu  Cu92  1  0.82938461  0.50409264  0.24810090  1
  Cu  Cu93  1  0.66107229  0.66691193  0.49715643  1
  Cu  Cu94  1  0.66340516  0.66571832  -0.00252587  1
  Cu  Cu95  1  0.82007532  0.83504549  0.25009852  1
  Cu  Cu96  1  0.66844541  0.33737839  0.49670817  1
  Cu  Cu97  1  0.66369120  -0.00880969  -0.00079941  1
  Cu  Cu98  1  0.50053830  0.16314603  0.74819990  1
  Cu  Cu99  1  0.33825551  0.65861352  -0.00503161  1
  Cu  Cu100  1  0.82450045  0.15820173  0.74731022  1
  Cu  Cu101  1  0.00422256  0.34322867  0.49378024  1
  Cu  Cu102  1  0.33178287  0.34164773  0.49806973  1
  Cu  Cu103  1  0.33074046  -0.00148842  -0.00143405  1
  Cu  Cu104  1  0.66805288  -0.00115341  0.49954052  1
  Cu  Cu105  1  0.82646187  0.82839417  0.74876831  1
  Cu  Cu106  1  0.01216354  -0.01130107  0.51172640  1
  Cu  Cu107  1  0.16849523  0.17828446  0.24761187  1
  Cu  Cu108  1  0.50638493  0.83657825  0.74750637  1
  Cu  Cu109  1  0.16551884  0.16182360  0.75051865  1
  Cu  Cu110  1  0.01477189  0.66398024  -0.00458232  1
  Cu  Cu111  1  0.49833650  0.83237127  0.25436105  1
  Cu  Cu112  1  0.83488811  0.50029324  0.75059908  1
  Cu  Cu113  1  0.33303393  0.66027467  0.50609397  1
  Cu  Cu114  1  0.00346462  0.34146916  -0.00076339  1
  Se  Se115  1  0.07052158  0.07138094  0.04121319  1
  Se  Se116  1  0.09060307  0.07321477  0.56866485  1
  Se  Se117  1  0.09019902  0.42230066  0.05149057  1
  Se  Se118  1  0.09022334  0.41996581  0.55009122  1
  Se  Se119  1  0.08523360  0.74012852  0.06450736  1
  Se  Se120  1  0.08734086  0.74904813  0.56120643  1
  Se  Se121  1  0.40359316  0.08090352  0.06437332  1
  Se  Se122  1  0.42983184  0.09971904  0.54741513  1
  Se  Se123  1  0.42033047  0.41012767  0.04792564  1
  Se  Se124  1  0.40096380  0.41873984  0.56825946  1
  Se  Se125  1  0.41670522  0.74704143  0.04851812  1
  Se  Se126  1  0.42564583  0.74185064  0.55197593  1
  Se  Se127  1  0.74337925  0.07774152  0.05423055  1
  Se  Se128  1  0.74981550  0.07640916  0.56056153  1
  Se  Se129  1  0.75366345  0.42545443  0.05646602  1
  Se  Se130  1  0.75237274  0.42089393  0.54770885  1
  Se  Se131  1  0.74012146  0.74511446  0.06229583  1
  Se  Se132  1  0.74273650  0.74430091  0.56085399  1
  Se  Se133  1  0.21950060  0.22781492  0.05549005  1
  Se  Se134  1  0.25661431  0.25893609  0.56220320  1
  Se  Se135  1  0.25258040  0.58041868  0.05069411  1
  Se  Se136  1  0.25013663  0.57653134  0.55938259  1
  Se  Se137  1  0.25233518  0.92001719  0.06385603  1
  Se  Se138  1  0.27190021  0.93760939  0.55103408  1
  Se  Se139  1  0.58602928  0.25824350  0.06787935  1
  Se  Se140  1  0.58282375  0.25963183  0.55185188  1
  Se  Se141  1  0.58128707  0.58144627  0.05244922  1
  Se  Se142  1  0.58440845  0.59178290  0.56457661  1
  Se  Se143  1  0.57747348  0.91067252  0.05108086  1
  Se  Se144  1  0.58194096  0.91638573  0.55063253  1
  Se  Se145  1  0.92234135  0.26005560  0.06044442  1
  Se  Se146  1  0.92683548  0.26162634  0.55601363  1
  Se  Se147  1  0.92615612  0.58741735  0.05145225  1
  Se  Se148  1  0.91406013  0.58014797  0.55223565  1
  Se  Se149  1  0.92564416  0.92690769  0.05241398  1
  Se  Se150  1  0.93070760  0.90585832  0.56741323  1
  Se  Se151  1  0.08314411  0.25697144  0.43759710  1
  Se  Se152  1  0.08046330  0.25807104  0.94097836  1
  Se  Se153  1  0.08645718  0.58515313  0.44987473  1
  Se  Se154  1  0.09722885  0.58616475  0.93803924  1
  Se  Se155  1  0.09495614  0.90833418  0.45603166  1
  Se  Se156  1  0.07588022  0.91173901  0.93910150  1
  Se  Se157  1  0.41939770  0.25858299  0.44930870  1
  Se  Se158  1  0.39905547  0.25424653  0.94754958  1
  Se  Se159  1  0.41102496  0.58268552  0.44135343  1
  Se  Se160  1  0.42249806  0.57951446  0.93865669  1
  Se  Se161  1  0.41142177  0.92267725  0.45214190  1
  Se  Se162  1  0.41610068  0.91110950  0.95385989  1
  Se  Se163  1  0.74695307  0.25885956  0.43327202  1
  Se  Se164  1  0.73667333  0.26513292  0.94446874  1
  Se  Se165  1  0.74826223  0.58372873  0.44889796  1
  Se  Se166  1  0.75556847  0.58460589  0.95032594  1
  Se  Se167  1  0.74821872  0.92055313  0.43787326  1
  Se  Se168  1  0.74536214  0.91252463  0.94022284  1
  Se  Se169  1  0.25962380  0.08294565  0.43986303  1
  Se  Se170  1  0.24270683  0.07711119  0.94766724  1
  Se  Se171  1  0.24925771  0.42077362  0.44130537  1
  Se  Se172  1  0.24650607  0.42991383  0.94268641  1
  Se  Se173  1  0.25071483  0.74721939  0.45277910  1
  Se  Se174  1  0.25304110  0.73266590  0.93275206  1
  Se  Se175  1  0.58940015  0.08626091  0.44565129  1
  Se  Se176  1  0.58481615  0.07848750  0.94280358  1
  Se  Se177  1  0.58558340  0.41641734  0.43704275  1
  Se  Se178  1  0.57836712  0.41798149  0.95044442  1
  Se  Se179  1  0.57690866  0.74997304  0.44595191  1
  Se  Se180  1  0.58056641  0.74973196  0.94468056  1
  Se  Se181  1  0.93257284  0.07154230  0.45196294  1
  Se  Se182  1  0.91794426  0.07566807  0.93650900  1
  Se  Se183  1  0.91207520  0.42200696  0.44540111  1
  Se  Se184  1  0.91553232  0.42477832  0.95108869  1
  Se  Se185  1  0.92611813  0.73996248  0.44098102  1
  Se  Se186  1  0.93043232  0.74244464  0.93736087  1
  Se  Se187  1  0.25569777  0.25776358  0.30008602  1
  Se  Se188  1  0.24573028  0.24687883  0.80320039  1
  Se  Se189  1  0.24405704  0.58738818  0.30009469  1
  Se  Se190  1  0.27706862  0.59955955  0.79479202  1
  Se  Se191  1  0.24828056  0.90837112  0.31533308  1
  Se  Se192  1  0.24223540  0.90471506  0.80732326  1
  Se  Se193  1  0.58608018  0.25515649  0.30158936  1
  Se  Se194  1  0.57135800  0.24591841  0.81413123  1
  Se  Se195  1  0.58423683  0.58731446  0.30263277  1
  Se  Se196  1  0.59401737  0.58365040  0.80404403  1
  Se  Se197  1  0.57973069  0.92152454  0.30459063  1
  Se  Se198  1  0.58570464  0.92189224  0.80246009  1
  Se  Se199  1  0.92152393  0.24834558  0.30044953  1
  Se  Se200  1  0.90303608  0.24017198  0.80787766  1
  Se  Se201  1  0.91040275  0.58313522  0.30993284  1
  Se  Se202  1  0.91918437  0.57853274  0.80766941  1
  Se  Se203  1  0.90936967  0.90952189  0.30857817  1
  Se  Se204  1  0.91111808  0.91172779  0.80104541  1
  Se  Se205  1  0.09352605  0.09115339  0.30798627  1
  Se  Se206  1  0.08067604  0.07964097  0.80228007  1
  Se  Se207  1  0.06404822  0.41075392  0.30298460  1
  Se  Se208  1  0.09505376  0.42741015  0.80549401  1
  Se  Se209  1  0.08299733  0.75304857  0.31121253  1
  Se  Se210  1  0.08705559  0.75034521  0.78847984  1
  Se  Se211  1  0.42559870  0.09256654  0.31558427  1
  Se  Se212  1  0.42107990  0.08773003  0.81472655  1
  Se  Se213  1  0.41805976  0.42160764  0.30136215  1
  Se  Se214  1  0.40695741  0.40530958  0.80168567  1
  Se  Se215  1  0.41211180  0.74994316  0.30535374  1
  Se  Se216  1  0.42416736  0.75921833  0.80682549  1
  Se  Se217  1  0.75328691  0.08253906  0.30109402  1
  Se  Se218  1  0.73879028  0.07823408  0.80066069  1
  Se  Se219  1  0.74833108  0.41828904  0.30213390  1
  Se  Se220  1  0.75361595  0.42119146  0.81096086  1
  Se  Se221  1  0.74143920  0.74762384  0.30216176  1
  Se  Se222  1  0.74577283  0.74245865  0.80224156  1
  Se  Se223  1  0.24911489  0.08975042  0.19382667  1
  Se  Se224  1  0.24258025  0.08020829  0.68778849  1
  Se  Se225  1  0.26458940  0.40777868  0.18928040  1
  Se  Se226  1  0.26015516  0.40080040  0.70485523  1
  Se  Se227  1  0.25475791  0.74762184  0.20246106  1
  Se  Se228  1  0.24709511  0.76690368  0.68919392  1
  Se  Se229  1  0.58454075  0.07945789  0.19776259  1
  Se  Se230  1  0.57834148  0.07749230  0.69378543  1
  Se  Se231  1  0.58681801  0.41972420  0.19751241  1
  Se  Se232  1  0.56830553  0.42584828  0.69174795  1
  Se  Se233  1  0.57721641  0.74985216  0.19479811  1
  Se  Se234  1  0.58523469  0.74573442  0.69662140  1
  Se  Se235  1  0.91431265  0.09789565  0.18083122  1
  Se  Se236  1  0.91546581  0.07997921  0.69834528  1
  Se  Se237  1  0.91501518  0.42221333  0.19535664  1
  Se  Se238  1  0.91387336  0.42060209  0.68870872  1
  Se  Se239  1  0.90669189  0.76266912  0.18898237  1
  Se  Se240  1  0.91171888  0.73993403  0.70232950  1
  Se  Se241  1  0.08231164  0.25754378  0.19449814  1
  Se  Se242  1  0.08599447  0.24430351  0.68926800  1
  Se  Se243  1  0.09295919  0.56893393  0.19262327  1
  Se  Se244  1  0.08656004  0.57971741  0.69694672  1
  Se  Se245  1  0.09636693  0.91602567  0.19380790  1
  Se  Se246  1  0.06542490  0.93111251  0.69875490  1
  Se  Se247  1  0.41770706  0.24945822  0.19971135  1
  Se  Se248  1  0.41312187  0.24432863  0.69863620  1
  Se  Se249  1  0.41539907  0.58294456  0.18944409  1
  Se  Se250  1  0.40579277  0.59075990  0.71311856  1
  Se  Se251  1  0.42093848  0.91077671  0.18895699  1
  Se  Se252  1  0.42094364  0.90835779  0.68477442  1
  Se  Se253  1  0.74723463  0.25357391  0.19941087  1
  Se  Se254  1  0.74780042  0.24172796  0.68814845  1
  Se  Se255  1  0.74725101  0.58934722  0.19572113  1
  Se  Se256  1  0.74902402  0.57700404  0.69399438  1
  Se  Se257  1  0.74392893  0.92417818  0.19712013  1
  Se  Se258  1  0.74447247  0.91442861  0.69645058  1
