# generated using pymatgen
data_In86Cu29Se144
_symmetry_space_group_name_H-M   'P 1'
_cell_length_a   17.57951825
_cell_length_b   17.57889411
_cell_length_c   23.44230120
_cell_angle_alpha   89.97608844
_cell_angle_beta   90.04448205
_cell_angle_gamma   89.99213566
_symmetry_Int_Tables_number   1
_chemical_formula_structural   In86Cu29Se144
_chemical_formula_sum   'In86 Cu29 Se144'
_cell_volume   7244.33605740
_cell_formula_units_Z   1
loop_
 _symmetry_equiv_pos_site_id
 _symmetry_equiv_pos_as_xyz
  1  'x, y, z'
loop_
 _atom_site_type_symbol
 _atom_site_label
 _atom_site_symmetry_multiplicity
 _atom_site_fract_x
 _atom_site_fract_y
 _atom_site_fract_z
 _atom_site_occupancy
  In  In0  1  0.00662981  0.15741172  0.12123350  1
  In  In1  1  -0.00926574  0.17189889  0.63173612  1
  In  In2  1  -0.00436710  0.52178522  0.12375462  1
  In  In3  1  -0.00957782  0.49264190  0.61942875  1
  In  In4  1  -0.01824128  0.80970979  0.10276501  1
  In  In5  1  -0.00424758  0.84498592  0.63009039  1
  In  In6  1  0.32167838  0.16838602  0.13348357  1
  In  In7  1  0.34746439  0.15606325  0.63186864  1
  In  In8  1  0.32334677  0.49245249  0.12950268  1
  In  In9  1  0.32468733  0.50725032  0.62929194  1
  In  In10  1  0.34071316  0.84679368  0.12420330  1
  In  In11  1  0.34622379  0.82952444  0.63945218  1
  In  In12  1  0.67372596  0.17121512  0.13103908  1
  In  In13  1  0.66963697  0.16784971  0.62065988  1
  In  In14  1  0.67155295  0.49797177  0.12871435  1
  In  In15  1  0.66606321  0.49118467  0.62287829  1
  In  In16  1  0.66260471  0.81223595  0.12602785  1
  In  In17  1  0.67590175  0.83834628  0.61815122  1
  In  In18  1  0.17008746  -0.00644988  0.37067597  1
  In  In19  1  0.16633043  0.00178467  0.87375771  1
  In  In20  1  0.18479911  0.33437806  0.37566799  1
  In  In21  1  0.15913586  0.32655451  0.87052383  1
  In  In22  1  0.14956050  0.67007980  0.36968184  1
  In  In23  1  0.18150096  0.67084282  0.88164058  1
  In  In24  1  0.49603940  0.00548260  0.38717218  1
  In  In25  1  0.49688409  -0.02177385  0.85190698  1
  In  In26  1  0.49509411  0.32729670  0.37330546  1
  In  In27  1  0.49552856  0.32921969  0.86049979  1
  In  In28  1  0.51976418  0.66885991  0.37798896  1
  In  In29  1  0.48895188  0.68202389  0.87256416  1
  In  In30  1  0.83184463  0.00299072  0.38550948  1
  In  In31  1  0.82490320  -0.00906271  0.86601410  1
  In  In32  1  0.82245130  0.34737349  0.38224438  1
  In  In33  1  0.83838877  0.33555317  0.86868666  1
  In  In34  1  0.83142734  0.66885408  0.37767148  1
  In  In35  1  0.83291693  0.66482700  0.90000205  1
  In  In36  1  0.00070505  0.15537540  0.37818865  1
  In  In37  1  0.00941612  0.17601971  0.87034006  1
  In  In38  1  -0.01262968  0.50980923  0.38231523  1
  In  In39  1  -0.00248707  0.49051762  0.87632477  1
  In  In40  1  -0.00060166  0.82356781  0.37155865  1
  In  In41  1  -0.01162218  0.83913097  0.88291495  1
  In  In42  1  0.33930477  0.17711674  0.37215380  1
  In  In43  1  0.32681015  0.15714526  0.86682368  1
  In  In44  1  0.33761500  0.48465060  0.37718657  1
  In  In45  1  0.33645704  0.50378837  0.86612892  1
  In  In46  1  0.33542668  0.84685875  0.37217609  1
  In  In47  1  0.32528408  0.82518447  0.86534899  1
  In  In48  1  0.65762644  0.17520877  0.38424695  1
  In  In49  1  0.66260876  0.16186310  0.86347841  1
  In  In50  1  0.68032888  0.51463167  0.36976012  1
  In  In51  1  0.67853843  0.50019955  0.87179981  1
  In  In52  1  0.67167444  0.82300118  0.38719097  1
  In  In53  1  0.66482044  0.83778642  0.87436668  1
  In  In54  1  0.17185825  -0.00013373  0.11676135  1
  In  In55  1  0.16916047  0.00010220  0.63576217  1
  In  In56  1  0.17697176  0.33322452  0.12682622  1
  In  In57  1  0.15804876  0.33867402  0.63084513  1
  In  In58  1  0.15457101  0.66219423  0.11998311  1
  In  In59  1  0.17870211  0.66774426  0.62569202  1
  In  In60  1  0.48091634  -0.01397403  0.12753820  1
  In  In61  1  0.50046649  0.00011489  0.62406037  1
  In  In62  1  0.49926355  0.33063272  0.13286108  1
  In  In63  1  0.51306768  0.32516662  0.63036700  1
  In  In64  1  0.51320616  0.68124902  0.13212183  1
  In  In65  1  0.49329105  0.66442436  0.62049949  1
  In  In66  1  0.84529744  -0.00261545  0.12341091  1
  In  In67  1  0.82984699  -0.00094926  0.62631915  1
  In  In68  1  0.81746009  0.33704442  0.13046314  1
  In  In69  1  0.83402301  0.33248360  0.62421931  1
  In  In70  1  0.83035763  0.66621336  0.12113932  1
  In  In71  1  0.82465652  0.66496152  0.61004412  1
  In  In72  1  0.84035917  0.16620329  -0.00164312  1
  In  In73  1  0.50362691  0.49891070  0.49951619  1
  In  In74  1  0.33642560  0.66398718  0.24753558  1
  In  In75  1  0.16769272  0.17110523  0.50258550  1
  In  In76  1  0.16487267  0.83277470  0.49781326  1
  In  In77  1  0.50452012  0.50375786  -0.00337061  1
  In  In78  1  0.50047995  0.83061860  -0.00101663  1
  In  In79  1  0.00828789  -0.00315133  0.24813680  1
  In  In80  1  0.66156557  0.66960154  0.75165717  1
  In  In81  1  0.50334381  0.16049282  -0.01211659  1
  In  In82  1  0.00320173  0.33456527  0.24711650  1
  In  In83  1  0.00133995  0.66513739  0.75760603  1
  In  In84  1  0.16293364  0.50184167  0.00180823  1
  In  In85  1  0.65895418  -0.00260187  0.25234018  1
  Cu  Cu86  1  0.16206552  0.83517795  0.24351964  1
  Cu  Cu87  1  0.16743426  0.16951145  0.75074367  1
  Cu  Cu88  1  0.67199620  -0.00868083  -0.00562612  1
  Cu  Cu89  1  0.33784379  0.33164925  0.50174489  1
  Cu  Cu90  1  0.16853009  0.83868383  0.75167956  1
  Cu  Cu91  1  0.67155744  0.33354221  0.50085582  1
  Cu  Cu92  1  0.32871404  0.00304452  -0.00437496  1
  Cu  Cu93  1  0.82945212  0.17627223  0.25681741  1
  Cu  Cu94  1  0.32741347  0.33127256  0.00110627  1
  Cu  Cu95  1  0.16416078  0.49936232  0.75308904  1
  Cu  Cu96  1  0.50649400  0.49602166  0.25501157  1
  Cu  Cu97  1  0.00041461  0.33647627  0.50593786  1
  Cu  Cu98  1  0.49402675  0.16325613  0.25551280  1
  Cu  Cu99  1  -0.00338072  0.33687175  -0.00468999  1
  Cu  Cu100  1  0.33517266  -0.00090906  0.50519990  1
  Cu  Cu101  1  0.66910635  0.33442253  0.00036242  1
  Cu  Cu102  1  0.33147620  0.66744421  0.50266260  1
  Cu  Cu103  1  0.16377734  0.49758688  0.24883253  1
  Cu  Cu104  1  0.00635421  -0.00139353  -0.00413566  1
  Cu  Cu105  1  0.50729048  0.17076476  0.74201619  1
  Cu  Cu106  1  0.83194253  0.82747461  0.24768350  1
  Cu  Cu107  1  0.49500666  0.50083055  0.74335823  1
  Cu  Cu108  1  -0.01041095  0.00186730  0.50648828  1
  Cu  Cu109  1  0.83264673  0.16392222  0.74563445  1
  Cu  Cu110  1  0.83364765  0.82982062  0.75048426  1
  Cu  Cu111  1  -0.00182596  0.66641066  0.49722944  1
  Cu  Cu112  1  0.83128816  0.51174691  0.25402193  1
  Cu  Cu113  1  0.66739787  0.00050875  0.50405299  1
  Cu  Cu114  1  0.83508425  0.49369580  0.74828838  1
  Se  Se115  1  0.08726438  0.08415763  0.04835736  1
  Se  Se116  1  0.07980955  0.07729415  0.56168728  1
  Se  Se117  1  0.07374474  0.41132848  0.06397163  1
  Se  Se118  1  0.08777412  0.41984545  0.55426260  1
  Se  Se119  1  0.09558743  0.75417841  0.04766735  1
  Se  Se120  1  0.07536849  0.74561628  0.56184590  1
  Se  Se121  1  0.41251878  0.08121561  0.05541985  1
  Se  Se122  1  0.42077676  0.08653634  0.55191776  1
  Se  Se123  1  0.41228172  0.41014812  0.05755767  1
  Se  Se124  1  0.41512275  0.41346343  0.56422572  1
  Se  Se125  1  0.41229525  0.74059508  0.06103622  1
  Se  Se126  1  0.40955368  0.75301394  0.55636495  1
  Se  Se127  1  0.74312158  0.07695568  0.05727022  1
  Se  Se128  1  0.75461329  0.08418387  0.55393814  1
  Se  Se129  1  0.74996893  0.41791063  0.05366911  1
  Se  Se130  1  0.75392697  0.41800827  0.55340783  1
  Se  Se131  1  0.75741664  0.76165788  0.05412831  1
  Se  Se132  1  0.74604625  0.75170780  0.54574286  1
  Se  Se133  1  0.24849061  0.24637083  0.05499189  1
  Se  Se134  1  0.25860902  0.25429555  0.56587427  1
  Se  Se135  1  0.26112149  0.58803674  0.05790664  1
  Se  Se136  1  0.24731565  0.58205643  0.55152598  1
  Se  Se137  1  0.25364594  0.91338177  0.04951764  1
  Se  Se138  1  0.25245111  0.91814057  0.56234309  1
  Se  Se139  1  0.58741389  0.25117831  0.05647924  1
  Se  Se140  1  0.58424644  0.25142720  0.55146747  1
  Se  Se141  1  0.58969334  0.59147196  0.06037136  1
  Se  Se142  1  0.59397164  0.59082577  0.55643386  1
  Se  Se143  1  0.58868328  0.92346425  0.06124579  1
  Se  Se144  1  0.58175078  0.91697232  0.55440628  1
  Se  Se145  1  0.92098600  0.25997553  0.06376876  1
  Se  Se146  1  0.91791708  0.24895754  0.55480278  1
  Se  Se147  1  0.91245412  0.58564194  0.04941645  1
  Se  Se148  1  0.91610822  0.58114681  0.55019038  1
  Se  Se149  1  0.91566885  0.92064969  0.04694761  1
  Se  Se150  1  0.91058540  0.91177491  0.55572364  1
  Se  Se151  1  0.07771035  0.25984612  0.44008151  1
  Se  Se152  1  0.08326743  0.25204869  0.94845854  1
  Se  Se153  1  0.08538993  0.58522197  0.44584381  1
  Se  Se154  1  0.07671028  0.58959513  0.93855711  1
  Se  Se155  1  0.07083421  0.92714528  0.44166383  1
  Se  Se156  1  0.08869673  0.91449355  0.94311962  1
  Se  Se157  1  0.41985352  0.24772583  0.44893780  1
  Se  Se158  1  0.40866227  0.25698962  0.93833581  1
  Se  Se159  1  0.41127246  0.58955289  0.43928605  1
  Se  Se160  1  0.40796413  0.59205878  0.94209961  1
  Se  Se161  1  0.41461088  0.91254666  0.45120579  1
  Se  Se162  1  0.41467726  0.92431346  0.93802015  1
  Se  Se163  1  0.75496257  0.24842026  0.44790310  1
  Se  Se164  1  0.74243591  0.24857964  0.93899980  1
  Se  Se165  1  0.75671370  0.58066375  0.44753280  1
  Se  Se166  1  0.73857652  0.57747602  0.95157515  1
  Se  Se167  1  0.75101240  0.91705913  0.45051371  1
  Se  Se168  1  0.75710861  0.90872876  0.94388862  1
  Se  Se169  1  0.25358099  0.07631301  0.44289515  1
  Se  Se170  1  0.24657643  0.08886028  0.94405824  1
  Se  Se171  1  0.25256560  0.41684754  0.45251090  1
  Se  Se172  1  0.25386239  0.41533379  0.93882370  1
  Se  Se173  1  0.25391292  0.74355431  0.43577702  1
  Se  Se174  1  0.26052972  0.75574218  0.94835391  1
  Se  Se175  1  0.58332394  0.08650952  0.45283981  1
  Se  Se176  1  0.58880620  0.06283055  0.93184875  1
  Se  Se177  1  0.59234079  0.41249629  0.43647185  1
  Se  Se178  1  0.58473468  0.40439666  0.93662331  1
  Se  Se179  1  0.57854541  0.75220727  0.45550060  1
  Se  Se180  1  0.59308268  0.73829945  0.94245152  1
  Se  Se181  1  0.91357476  0.09021865  0.45184159  1
  Se  Se182  1  0.92270731  0.07671053  0.93435806  1
  Se  Se183  1  0.91591098  0.41794845  0.45026940  1
  Se  Se184  1  0.90833022  0.41661234  0.94610185  1
  Se  Se185  1  0.91727905  0.75440320  0.44597585  1
  Se  Se186  1  0.92858743  0.74536762  0.95493734  1
  Se  Se187  1  0.24675533  0.24570594  0.30361002  1
  Se  Se188  1  0.25169533  0.25344113  0.80327085  1
  Se  Se189  1  0.24583384  0.57637360  0.31130324  1
  Se  Se190  1  0.24599497  0.58696135  0.80373620  1
  Se  Se191  1  0.24702507  0.91404652  0.29807610  1
  Se  Se192  1  0.25270133  0.92411553  0.80315827  1
  Se  Se193  1  0.58191496  0.24621652  0.30504751  1
  Se  Se194  1  0.58993497  0.25477000  0.79669971  1
  Se  Se195  1  0.58749721  0.58664592  0.30138576  1
  Se  Se196  1  0.57101540  0.57683422  0.81134917  1
  Se  Se197  1  0.58016342  0.91299497  0.32120146  1
  Se  Se198  1  0.59776124  0.90804557  0.79317084  1
  Se  Se199  1  0.91549493  0.25065334  0.31472986  1
  Se  Se200  1  0.91505248  0.24629303  0.80238753  1
  Se  Se201  1  0.91871197  0.59141839  0.30585527  1
  Se  Se202  1  0.90292973  0.57889882  0.81315620  1
  Se  Se203  1  0.90696126  0.91521037  0.30715534  1
  Se  Se204  1  0.91920558  0.91323295  0.80201120  1
  Se  Se205  1  0.09608234  0.09331875  0.30451306  1
  Se  Se206  1  0.08370308  0.08469248  0.80327412  1
  Se  Se207  1  0.08526892  0.42259253  0.31468810  1
  Se  Se208  1  0.07879233  0.41526807  0.80364625  1
  Se  Se209  1  0.07743718  0.75174254  0.29482296  1
  Se  Se210  1  0.09044167  0.75823674  0.81409633  1
  Se  Se211  1  0.41561400  0.07897606  0.31093114  1
  Se  Se212  1  0.42832136  0.09137446  0.80284777  1
  Se  Se213  1  0.41757128  0.41317958  0.30203298  1
  Se  Se214  1  0.41134590  0.41648090  0.79693852  1
  Se  Se215  1  0.42093872  0.74933014  0.31314898  1
  Se  Se216  1  0.42715072  0.76674421  0.79815749  1
  Se  Se217  1  0.75150126  0.08832796  0.31169702  1
  Se  Se218  1  0.74853562  0.07950682  0.79831113  1
  Se  Se219  1  0.75070447  0.41898372  0.30170642  1
  Se  Se220  1  0.74803726  0.41221643  0.80039624  1
  Se  Se221  1  0.74918294  0.75269448  0.30776836  1
  Se  Se222  1  0.76294854  0.74506001  0.81383089  1
  Se  Se223  1  0.25865674  0.06222686  0.19261740  1
  Se  Se224  1  0.25293128  0.08600993  0.69965860  1
  Se  Se225  1  0.25071056  0.41137820  0.20363803  1
  Se  Se226  1  0.24755443  0.41831506  0.69716686  1
  Se  Se227  1  0.24493946  0.75210786  0.18674533  1
  Se  Se228  1  0.24874769  0.75083578  0.69965135  1
  Se  Se229  1  0.57036448  0.08810221  0.18776777  1
  Se  Se230  1  0.58814764  0.08445909  0.69015424  1
  Se  Se231  1  0.58678609  0.41403736  0.19591704  1
  Se  Se232  1  0.58627254  0.41903346  0.69781024  1
  Se  Se233  1  0.57711502  0.76490094  0.20747642  1
  Se  Se234  1  0.57990392  0.75527551  0.68496677  1
  Se  Se235  1  0.90908533  0.09532654  0.19679250  1
  Se  Se236  1  0.91721352  0.07700459  0.69644883  1
  Se  Se237  1  0.90980053  0.42859001  0.19259397  1
  Se  Se238  1  0.91989321  0.41218875  0.69567002  1
  Se  Se239  1  0.91621698  0.74940845  0.19092782  1
  Se  Se240  1  0.90938169  0.74541555  0.69022283  1
  Se  Se241  1  0.09159970  0.23906622  0.19190135  1
  Se  Se242  1  0.08033297  0.25035979  0.69785736  1
  Se  Se243  1  0.08326794  0.58581082  0.19889468  1
  Se  Se244  1  0.08544257  0.57920670  0.69005178  1
  Se  Se245  1  0.07936663  0.90645308  0.17811359  1
  Se  Se246  1  0.08051190  0.91898942  0.70086724  1
  Se  Se247  1  0.41404232  0.24737892  0.19761325  1
  Se  Se248  1  0.41633124  0.25534894  0.69656473  1
  Se  Se249  1  0.42861646  0.57218066  0.18807259  1
  Se  Se250  1  0.41305490  0.58927237  0.69478222  1
  Se  Se251  1  0.42183857  0.90367430  0.20553904  1
  Se  Se252  1  0.40571513  0.93872048  0.69611938  1
  Se  Se253  1  0.74291273  0.25607549  0.20475604  1
  Se  Se254  1  0.75052490  0.24985891  0.69277349  1
  Se  Se255  1  0.74733783  0.58945429  0.19547371  1
  Se  Se256  1  0.75561453  0.57993189  0.69179751  1
  Se  Se257  1  0.75571938  0.91494228  0.18995882  1
  Se  Se258  1  0.75061462  0.91252056  0.69649183  1
