# generated using pymatgen
data_In86Cu29Se144
_symmetry_space_group_name_H-M   'P 1'
_cell_length_a   17.68677584
_cell_length_b   17.67984745
_cell_length_c   23.55157788
_cell_angle_alpha   90.03933789
_cell_angle_beta   90.01762242
_cell_angle_gamma   90.00514192
_symmetry_Int_Tables_number   1
_chemical_formula_structural   In86Cu29Se144
_chemical_formula_sum   'In86 Cu29 Se144'
_cell_volume   7364.56448478
_cell_formula_units_Z   1
loop_
 _symmetry_equiv_pos_site_id
 _symmetry_equiv_pos_as_xyz
  1  'x, y, z'
loop_
 _atom_site_type_symbol
 _atom_site_label
 _atom_site_symmetry_multiplicity
 _atom_site_fract_x
 _atom_site_fract_y
 _atom_site_fract_z
 _atom_site_occupancy
  In  In0  1  -0.00370984  0.16609856  0.12055051  1
  In  In1  1  -0.01638375  0.12246563  0.59342784  1
  In  In2  1  -0.00099887  0.50804898  0.13164917  1
  In  In3  1  0.00029685  0.51632465  0.62449093  1
  In  In4  1  -0.00336325  0.83352823  0.11473284  1
  In  In5  1  -0.00267320  0.84117434  0.62019695  1
  In  In6  1  0.35661233  0.13256555  0.14106561  1
  In  In7  1  0.30536415  0.15106346  0.61068838  1
  In  In8  1  0.35885643  0.50575062  0.11834741  1
  In  In9  1  0.33604757  0.49326358  0.61828078  1
  In  In10  1  0.33298960  0.83844700  0.12601305  1
  In  In11  1  0.34273512  0.84282108  0.62132876  1
  In  In12  1  0.66764386  0.16105726  0.12982538  1
  In  In13  1  0.65698319  0.14679530  0.62530050  1
  In  In14  1  0.64834845  0.51661196  0.14518194  1
  In  In15  1  0.66379436  0.49825425  0.61527644  1
  In  In16  1  0.66908284  0.83802002  0.12379043  1
  In  In17  1  0.66944024  0.83440828  0.61971224  1
  In  In18  1  0.18506595  -0.01563248  0.39851949  1
  In  In19  1  0.15821176  -0.00540192  0.86448258  1
  In  In20  1  0.15967470  0.33711268  0.37474709  1
  In  In21  1  0.16769332  0.32803933  0.87212085  1
  In  In22  1  0.18469715  0.68158347  0.36943152  1
  In  In23  1  0.16270467  0.69100664  0.87682949  1
  In  In24  1  0.48989592  -0.00228147  0.35926316  1
  In  In25  1  0.50127873  -0.00255981  0.87669345  1
  In  In26  1  0.51670829  0.32621965  0.36974372  1
  In  In27  1  0.49086280  0.33485139  0.88573199  1
  In  In28  1  0.50052016  0.67116624  0.37258888  1
  In  In29  1  0.45970765  0.71345641  0.95484703  1
  In  In30  1  0.83067478  0.01145113  0.38962385  1
  In  In31  1  0.82995405  -0.00406127  0.87109022  1
  In  In32  1  0.82832947  0.33101014  0.38173502  1
  In  In33  1  0.81516996  0.33477437  0.87111404  1
  In  In34  1  0.82308652  0.67876112  0.38076314  1
  In  In35  1  0.83601094  0.67775667  0.86816744  1
  In  In36  1  0.00851158  0.15432317  0.39255551  1
  In  In37  1  0.00157808  0.14755078  0.86774924  1
  In  In38  1  -0.00271446  0.49615039  0.38088332  1
  In  In39  1  -0.01528846  0.51405603  0.86866623  1
  In  In40  1  0.00448067  0.84482895  0.38993502  1
  In  In41  1  -0.00490345  0.83920944  0.86765913  1
  In  In42  1  0.34718621  0.15219103  0.37264224  1
  In  In43  1  0.34642291  0.15772605  0.88045538  1
  In  In44  1  0.32773468  0.51928937  0.37163930  1
  In  In45  1  0.34163096  0.51281296  0.88232525  1
  In  In46  1  0.33996366  0.83996512  0.37208227  1
  In  In47  1  0.32020649  0.84866336  0.88716341  1
  In  In48  1  0.66801293  0.16932767  0.36665609  1
  In  In49  1  0.67155033  0.15613078  0.88073336  1
  In  In50  1  0.66868373  0.50009660  0.37170747  1
  In  In51  1  0.64682967  0.51324175  0.88087281  1
  In  In52  1  0.66407347  0.83409100  0.37271923  1
  In  In53  1  0.64309300  0.84364622  0.89628112  1
  In  In54  1  0.18399265  -0.02400236  0.12752625  1
  In  In55  1  0.17468407  -0.00098204  0.62495644  1
  In  In56  1  0.16511958  0.32879295  0.12683896  1
  In  In57  1  0.16824347  0.31679286  0.62064439  1
  In  In58  1  0.18350561  0.69432510  0.11072627  1
  In  In59  1  0.15248880  0.67538297  0.62791812  1
  In  In60  1  0.50618844  0.00068345  0.12005858  1
  In  In61  1  0.50984293  -0.01003500  0.63879531  1
  In  In62  1  0.51380005  0.34192068  0.12300415  1
  In  In63  1  0.48300461  0.33567576  0.61644608  1
  In  In64  1  0.51192335  0.66438316  0.12510009  1
  In  In65  1  0.49900824  0.66652414  0.61763514  1
  In  In66  1  0.82266576  -0.01201372  0.11882963  1
  In  In67  1  0.82481722  -0.00670311  0.62409476  1
  In  In68  1  0.82603405  0.31184013  0.12002081  1
  In  In69  1  0.82938039  0.32572112  0.61732761  1
  In  In70  1  0.81941380  0.66889271  0.12555493  1
  In  In71  1  0.84278438  0.68258373  0.61291977  1
  In  In72  1  0.16809606  0.15754885  0.00629901  1
  In  In73  1  0.33748820  0.67477007  0.76346894  1
  In  In74  1  0.66219625  0.66939002  0.75599318  1
  In  In75  1  -0.00924383  0.33496907  0.26197266  1
  In  In76  1  0.00004202  -0.00307039  0.25643930  1
  In  In77  1  0.00043443  0.67199776  0.26007359  1
  In  In78  1  0.16834728  0.50602601  0.49978228  1
  In  In79  1  0.32967927  0.34064077  0.24816690  1
  In  In80  1  0.66277468  0.33338258  0.75404590  1
  In  In81  1  0.50278567  0.16996002  0.49441513  1
  In  In82  1  0.33256011  0.32522689  0.73845560  1
  In  In83  1  0.16578253  0.49375532  0.00461515  1
  In  In84  1  0.82919813  0.49192075  0.00461953  1
  In  In85  1  -0.00241797  0.33196970  0.74211667  1
  Cu  Cu86  1  0.16655939  0.16331152  0.25271793  1
  Cu  Cu87  1  0.49502452  0.49917135  0.74907118  1
  Cu  Cu88  1  -0.00127513  -0.00239819  -0.00663477  1
  Cu  Cu89  1  0.82883714  0.49216137  0.25229153  1
  Cu  Cu90  1  0.00068350  0.33132220  0.49947529  1
  Cu  Cu91  1  0.50223243  0.50399688  0.25177758  1
  Cu  Cu92  1  0.66905360  0.32313380  0.00306567  1
  Cu  Cu93  1  0.67094842  0.33142057  0.49382995  1
  Cu  Cu94  1  -0.00339263  0.67293782  -0.00701738  1
  Cu  Cu95  1  0.34457552  -0.00117958  0.49883898  1
  Cu  Cu96  1  0.49473813  0.82835894  0.76242646  1
  Cu  Cu97  1  0.17075874  0.51798298  0.24293787  1
  Cu  Cu98  1  0.49799363  0.16041371  0.75356761  1
  Cu  Cu99  1  0.00121378  0.67097668  0.50129946  1
  Cu  Cu100  1  0.82920193  0.83399451  0.25197398  1
  Cu  Cu101  1  0.83192933  0.83653911  0.74190379  1
  Cu  Cu102  1  0.82977806  0.15867317  0.25177210  1
  Cu  Cu103  1  0.82909081  0.51488898  0.74219796  1
  Cu  Cu104  1  0.33368564  0.32257529  0.00592966  1
  Cu  Cu105  1  -0.00779057  0.32441233  -0.00286979  1
  Cu  Cu106  1  0.16721123  0.83640714  0.74747122  1
  Cu  Cu107  1  0.66292080  0.66241108  0.49416561  1
  Cu  Cu108  1  0.66184090  -0.00514805  0.49927282  1
  Cu  Cu109  1  0.66563368  0.00590166  0.00311035  1
  Cu  Cu110  1  0.16320026  0.50523563  0.75026247  1
  Cu  Cu111  1  0.83512583  0.16009764  0.74628011  1
  Cu  Cu112  1  0.50420586  0.83012010  0.24503219  1
  Cu  Cu113  1  0.33544544  0.67672297  0.49675176  1
  Cu  Cu114  1  0.17096387  0.15470080  0.74525299  1
  Se  Se115  1  0.07741771  0.06522074  0.06357503  1
  Se  Se116  1  0.12461648  0.11547082  0.56634183  1
  Se  Se117  1  0.06592559  0.40461162  0.06032558  1
  Se  Se118  1  0.07849858  0.41340401  0.56115418  1
  Se  Se119  1  0.08139172  0.75428750  0.04577523  1
  Se  Se120  1  0.08432040  0.75613536  0.55275697  1
  Se  Se121  1  0.41369992  0.07527392  0.05238194  1
  Se  Se122  1  0.42329672  0.07832471  0.56210241  1
  Se  Se123  1  0.42231485  0.40963870  0.05094039  1
  Se  Se124  1  0.42996500  0.43486814  0.54810816  1
  Se  Se125  1  0.41989233  0.74476638  0.06060128  1
  Se  Se126  1  0.41977099  0.75530630  0.55308741  1
  Se  Se127  1  0.75202848  0.08636063  0.05588604  1
  Se  Se128  1  0.74324825  0.07967358  0.55376294  1
  Se  Se129  1  0.73798132  0.40992321  0.06639962  1
  Se  Se130  1  0.75041129  0.41404598  0.55178786  1
  Se  Se131  1  0.76078918  0.76238930  0.05682576  1
  Se  Se132  1  0.74222892  0.74744500  0.54938762  1
  Se  Se133  1  0.25732635  0.24451961  0.06779432  1
  Se  Se134  1  0.28776225  0.28177809  0.56461598  1
  Se  Se135  1  0.25990669  0.58506250  0.05519495  1
  Se  Se136  1  0.25532090  0.59927818  0.56105581  1
  Se  Se137  1  0.25003800  0.90500849  0.04783498  1
  Se  Se138  1  0.25655906  0.91908895  0.55239163  1
  Se  Se139  1  0.58582290  0.24486300  0.05960011  1
  Se  Se140  1  0.59183068  0.25712721  0.56088408  1
  Se  Se141  1  0.59057377  0.57626102  0.05764357  1
  Se  Se142  1  0.57980400  0.58201797  0.55043902  1
  Se  Se143  1  0.58594447  0.91393634  0.05103502  1
  Se  Se144  1  0.57877163  0.91774726  0.55767665  1
  Se  Se145  1  0.91192824  0.23938298  0.04874323  1
  Se  Se146  1  0.92187999  0.24744493  0.55506854  1
  Se  Se147  1  0.92399267  0.58979284  0.05651567  1
  Se  Se148  1  0.91738823  0.58441164  0.54983630  1
  Se  Se149  1  0.91459916  0.91833122  0.04968792  1
  Se  Se150  1  0.89818702  0.90520261  0.55526172  1
  Se  Se151  1  0.08991236  0.25406106  0.44806649  1
  Se  Se152  1  0.07864019  0.24811952  0.94006572  1
  Se  Se153  1  0.08294459  0.59685326  0.43672820  1
  Se  Se154  1  0.07782137  0.58492369  0.94073345  1
  Se  Se155  1  0.06792859  0.94352358  0.45521385  1
  Se  Se156  1  0.08159946  0.91657210  0.93819877  1
  Se  Se157  1  0.41210335  0.25999586  0.43621400  1
  Se  Se158  1  0.41772317  0.24239396  0.95202727  1
  Se  Se159  1  0.41372380  0.59105519  0.44250612  1
  Se  Se160  1  0.43882784  0.56434608  0.95112648  1
  Se  Se161  1  0.42666398  0.92064497  0.44094915  1
  Se  Se162  1  0.43278591  0.90250161  0.94497860  1
  Se  Se163  1  0.74800934  0.23962802  0.44462009  1
  Se  Se164  1  0.75268863  0.24751427  0.94473176  1
  Se  Se165  1  0.75033813  0.58111053  0.44315696  1
  Se  Se166  1  0.75627131  0.58455218  0.93769767  1
  Se  Se167  1  0.74571218  0.91508078  0.44442848  1
  Se  Se168  1  0.74683917  0.92383011  0.94633352  1
  Se  Se169  1  0.26348033  0.08979045  0.45020480  1
  Se  Se170  1  0.24917040  0.07329629  0.93819353  1
  Se  Se171  1  0.25528986  0.41755272  0.43810670  1
  Se  Se172  1  0.25730079  0.40316333  0.94266550  1
  Se  Se173  1  0.25377225  0.76130241  0.44463712  1
  Se  Se174  1  0.27018756  0.72980091  0.94251069  1
  Se  Se175  1  0.58599736  0.07498060  0.43563871  1
  Se  Se176  1  0.57991072  0.08407288  0.94705388  1
  Se  Se177  1  0.58770380  0.41323794  0.44047446  1
  Se  Se178  1  0.59311595  0.40621333  0.94404452  1
  Se  Se179  1  0.58332246  0.75084215  0.44276606  1
  Se  Se180  1  0.60392690  0.71358190  0.93293713  1
  Se  Se181  1  0.92031354  0.08195792  0.46007006  1
  Se  Se182  1  0.91619857  0.08001283  0.93974847  1
  Se  Se183  1  0.91633754  0.41373231  0.44758132  1
  Se  Se184  1  0.92064511  0.40902752  0.93664016  1
  Se  Se185  1  0.91815838  0.75096242  0.44570159  1
  Se  Se186  1  0.91536891  0.75618945  0.93968475  1
  Se  Se187  1  0.24483785  0.24741017  0.31005693  1
  Se  Se188  1  0.24685115  0.23787250  0.80623570  1
  Se  Se189  1  0.25517330  0.59758781  0.29584178  1
  Se  Se190  1  0.24016400  0.57909595  0.81484354  1
  Se  Se191  1  0.25210096  0.92842157  0.31229339  1
  Se  Se192  1  0.25186011  0.91473610  0.80254681  1
  Se  Se193  1  0.57402161  0.23512832  0.29799702  1
  Se  Se194  1  0.57189970  0.24594606  0.81375051  1
  Se  Se195  1  0.58570849  0.58596667  0.30599084  1
  Se  Se196  1  0.56264611  0.58625471  0.80921533  1
  Se  Se197  1  0.58370363  0.91441271  0.30097970  1
  Se  Se198  1  0.58449818  0.91159426  0.80948812  1
  Se  Se199  1  0.91376604  0.23168810  0.31671768  1
  Se  Se200  1  0.90775339  0.24719217  0.80697197  1
  Se  Se201  1  0.90876066  0.57483722  0.31161111  1
  Se  Se202  1  0.91347149  0.59522311  0.79552977  1
  Se  Se203  1  0.90700256  0.91065623  0.31586831  1
  Se  Se204  1  0.91383671  0.92097962  0.79792326  1
  Se  Se205  1  0.09136478  0.08477259  0.31529448  1
  Se  Se206  1  0.07941633  0.07601325  0.79278097  1
  Se  Se207  1  0.09277041  0.43547936  0.30271688  1
  Se  Se208  1  0.08407097  0.42268710  0.80946256  1
  Se  Se209  1  0.08775366  0.76911557  0.31239346  1
  Se  Se210  1  0.08167866  0.75465998  0.79995630  1
  Se  Se211  1  0.41716391  0.08831844  0.29163184  1
  Se  Se212  1  0.41536912  0.07637781  0.80553351  1
  Se  Se213  1  0.41962952  0.42563455  0.31148772  1
  Se  Se214  1  0.41323736  0.41738742  0.80640031  1
  Se  Se215  1  0.41940285  0.75407399  0.30350389  1
  Se  Se216  1  0.42410455  0.75381293  0.82883707  1
  Se  Se217  1  0.75321503  0.07470398  0.30843867  1
  Se  Se218  1  0.74985399  0.08538862  0.80389600  1
  Se  Se219  1  0.75084597  0.40806691  0.30760348  1
  Se  Se220  1  0.74907805  0.43797158  0.80525401  1
  Se  Se221  1  0.74648815  0.74846721  0.30336265  1
  Se  Se222  1  0.74890164  0.76873498  0.80781270  1
  Se  Se223  1  0.24057906  0.07937112  0.19482416  1
  Se  Se224  1  0.26268853  0.07463145  0.69794658  1
  Se  Se225  1  0.24389438  0.43225469  0.18325371  1
  Se  Se226  1  0.23839951  0.42524683  0.68986697  1
  Se  Se227  1  0.25059842  0.75523787  0.19407312  1
  Se  Se228  1  0.25133825  0.75379672  0.69246375  1
  Se  Se229  1  0.58673359  0.07466198  0.19418666  1
  Se  Se230  1  0.58781707  0.07814616  0.70654329  1
  Se  Se231  1  0.58336687  0.41191974  0.20537824  1
  Se  Se232  1  0.57371226  0.41983376  0.69016960  1
  Se  Se233  1  0.59128672  0.74984774  0.19322998  1
  Se  Se234  1  0.57061026  0.75563614  0.69255167  1
  Se  Se235  1  0.91268662  0.08315054  0.19103221  1
  Se  Se236  1  0.91457229  0.08202926  0.68602040  1
  Se  Se237  1  0.90822184  0.41683654  0.18929579  1
  Se  Se238  1  0.90450207  0.42561343  0.68707030  1
  Se  Se239  1  0.91280714  0.75550074  0.19320304  1
  Se  Se240  1  0.91747106  0.75423049  0.69080894  1
  Se  Se241  1  0.08174734  0.24421800  0.19795337  1
  Se  Se242  1  0.08622872  0.23662399  0.69019640  1
  Se  Se243  1  0.09090934  0.59928753  0.18567910  1
  Se  Se244  1  0.08023712  0.58854175  0.69902630  1
  Se  Se245  1  0.08126056  0.90466801  0.19241257  1
  Se  Se246  1  0.08744848  0.91626533  0.68884294  1
  Se  Se247  1  0.41771951  0.25547208  0.18670873  1
  Se  Se248  1  0.42435367  0.23240954  0.68497067  1
  Se  Se249  1  0.42260264  0.58681250  0.19564069  1
  Se  Se250  1  0.41384069  0.58197650  0.69213273  1
  Se  Se251  1  0.42415802  0.91490197  0.19035692  1
  Se  Se252  1  0.41770291  0.91026249  0.70184399  1
  Se  Se253  1  0.75136627  0.24621273  0.19971028  1
  Se  Se254  1  0.75008924  0.24191156  0.69146567  1
  Se  Se255  1  0.75444950  0.58500643  0.20172039  1
  Se  Se256  1  0.74723923  0.58999925  0.68186503  1
  Se  Se257  1  0.74913617  0.91824962  0.19804989  1
  Se  Se258  1  0.73961033  0.91641039  0.69526758  1
