# generated using pymatgen
data_In86Cu29Se144
_symmetry_space_group_name_H-M   'P 1'
_cell_length_a   17.57591067
_cell_length_b   17.58633028
_cell_length_c   23.44254418
_cell_angle_alpha   89.99670805
_cell_angle_beta   89.99874703
_cell_angle_gamma   90.00116348
_symmetry_Int_Tables_number   1
_chemical_formula_structural   In86Cu29Se144
_chemical_formula_sum   'In86 Cu29 Se144'
_cell_volume   7245.99122527
_cell_formula_units_Z   1
loop_
 _symmetry_equiv_pos_site_id
 _symmetry_equiv_pos_as_xyz
  1  'x, y, z'
loop_
 _atom_site_type_symbol
 _atom_site_label
 _atom_site_symmetry_multiplicity
 _atom_site_fract_x
 _atom_site_fract_y
 _atom_site_fract_z
 _atom_site_occupancy
  In  In0  1  0.01809383  0.16050085  0.11827410  1
  In  In1  1  -0.01967108  0.17187337  0.63603869  1
  In  In2  1  -0.00606926  0.50785577  0.14447533  1
  In  In3  1  -0.00855750  0.49235378  0.61796546  1
  In  In4  1  -0.01737201  0.83770997  0.12093086  1
  In  In5  1  -0.01158752  0.85430215  0.63941319  1
  In  In6  1  0.32557764  0.17504008  0.13303598  1
  In  In7  1  0.35032521  0.16524404  0.62077668  1
  In  In8  1  0.32062977  0.48883371  0.13083172  1
  In  In9  1  0.32337829  0.49201528  0.61451704  1
  In  In10  1  0.35257282  0.83458470  0.12366042  1
  In  In11  1  0.33857627  0.82567241  0.62461739  1
  In  In12  1  0.66209197  0.17241330  0.13198839  1
  In  In13  1  0.66128355  0.15985957  0.62070128  1
  In  In14  1  0.67957006  0.48587878  0.12884146  1
  In  In15  1  0.67761408  0.50870619  0.61712793  1
  In  In16  1  0.68047254  0.84097042  0.11912013  1
  In  In17  1  0.66374157  0.83033614  0.62862937  1
  In  In18  1  0.17065930  -0.01496813  0.37110655  1
  In  In19  1  0.16385654  0.01868325  0.88211656  1
  In  In20  1  0.17819501  0.34847267  0.36091650  1
  In  In21  1  0.15319190  0.32547841  0.86888533  1
  In  In22  1  0.14892852  0.66493863  0.37070452  1
  In  In23  1  0.15536179  0.65863574  0.87652087  1
  In  In24  1  0.50661338  0.00254331  0.37574052  1
  In  In25  1  0.51621775  -0.01471672  0.86689654  1
  In  In26  1  0.50404499  0.32855558  0.37718253  1
  In  In27  1  0.49524198  0.34783024  0.86855978  1
  In  In28  1  0.49893450  0.66519619  0.38501672  1
  In  In29  1  0.52261238  0.67652027  0.86602748  1
  In  In30  1  0.82225216  0.01067120  0.38416614  1
  In  In31  1  0.82278565  0.00100578  0.85780829  1
  In  In32  1  0.83306924  0.33494953  0.37351454  1
  In  In33  1  0.84710510  0.32065420  0.87456384  1
  In  In34  1  0.84407778  0.65977178  0.38432319  1
  In  In35  1  0.82221101  0.67849147  0.89080254  1
  In  In36  1  -0.01775474  0.17032107  0.37907438  1
  In  In37  1  -0.00073480  0.17709313  0.86743563  1
  In  In38  1  0.00063143  0.49791099  0.37554312  1
  In  In39  1  -0.00052596  0.49148233  0.87738410  1
  In  In40  1  0.00010470  0.82354174  0.37608570  1
  In  In41  1  -0.04346768  0.84148059  0.88153322  1
  In  In42  1  0.34397123  0.17503427  0.36978731  1
  In  In43  1  0.32012568  0.16862601  0.87579562  1
  In  In44  1  0.34290167  0.49049693  0.38287327  1
  In  In45  1  0.34492507  0.49534011  0.87149815  1
  In  In46  1  0.33876035  0.84383057  0.37173271  1
  In  In47  1  0.34474677  0.83520886  0.87798746  1
  In  In48  1  0.66862844  0.16689508  0.37499587  1
  In  In49  1  0.68355629  0.15565864  0.87105635  1
  In  In50  1  0.67773075  0.49086874  0.38405868  1
  In  In51  1  0.66548479  0.51076930  0.87381559  1
  In  In52  1  0.65905261  0.84271079  0.38275174  1
  In  In53  1  0.67834305  0.83538016  0.86921861  1
  In  In54  1  0.16091708  0.01870052  0.12169913  1
  In  In55  1  0.16178712  -0.00842786  0.62676474  1
  In  In56  1  0.17264390  0.32930057  0.13653709  1
  In  In57  1  0.15274298  0.33655982  0.62452755  1
  In  In58  1  0.15586183  0.65189294  0.12731955  1
  In  In59  1  0.17365550  0.66364340  0.62245264  1
  In  In60  1  0.51421129  -0.00646747  0.13057347  1
  In  In61  1  0.51049276  0.00276667  0.62028819  1
  In  In62  1  0.50233616  0.32943250  0.13324954  1
  In  In63  1  0.49441105  0.32307195  0.61645098  1
  In  In64  1  0.49585724  0.67692947  0.12227355  1
  In  In65  1  0.51449797  0.67748446  0.61137315  1
  In  In66  1  0.83512805  -0.01141954  0.12317889  1
  In  In67  1  0.82069025  -0.00547488  0.63057924  1
  In  In68  1  0.82392648  0.34818369  0.13055349  1
  In  In69  1  0.83819617  0.33914452  0.61845732  1
  In  In70  1  0.84507012  0.66959898  0.11737485  1
  In  In71  1  0.82717671  0.66321573  0.62527994  1
  In  In72  1  0.83712936  0.16523855  -0.00372682  1
  In  In73  1  0.16440562  0.82515678  0.50068260  1
  In  In74  1  -0.00872809  0.66908028  0.75100964  1
  In  In75  1  -0.00277192  0.00100097  0.24546399  1
  In  In76  1  0.33469654  0.00459860  0.74451642  1
  In  In77  1  0.16199998  0.49504214  0.00313562  1
  In  In78  1  0.66843134  0.66616374  0.26103264  1
  In  In79  1  0.33087449  0.66092656  0.24715115  1
  In  In80  1  0.66565352  0.33168121  0.74647090  1
  In  In81  1  0.50530668  0.50656801  0.00085096  1
  In  In82  1  0.16281009  0.16657455  0.49605166  1
  In  In83  1  0.34142671  0.66418413  0.75218568  1
  In  In84  1  0.50082607  0.17008426  0.00842722  1
  In  In85  1  0.16094007  0.83823458  0.00608459  1
  Cu  Cu86  1  0.66920475  -0.00474143  -0.00261835  1
  Cu  Cu87  1  0.16258849  0.49118324  0.74624803  1
  Cu  Cu88  1  0.83396167  0.49747861  0.74560310  1
  Cu  Cu89  1  -0.00286711  0.66783734  0.50347509  1
  Cu  Cu90  1  -0.00180751  0.33729941  0.49784915  1
  Cu  Cu91  1  0.66888272  0.33013916  0.49841619  1
  Cu  Cu92  1  0.83427922  0.49966210  0.25798994  1
  Cu  Cu93  1  0.49904173  0.16310311  0.25371083  1
  Cu  Cu94  1  0.00231027  0.32989393  0.00063381  1
  Cu  Cu95  1  0.33460270  0.33065063  0.49448049  1
  Cu  Cu96  1  0.49740903  0.48913624  0.25488114  1
  Cu  Cu97  1  0.33882251  0.67508063  -0.00042562  1
  Cu  Cu98  1  0.34367529  0.00061175  0.49553074  1
  Cu  Cu99  1  -0.01271351  0.00032885  0.50781148  1
  Cu  Cu100  1  0.66882328  -0.00335221  0.50292208  1
  Cu  Cu101  1  0.32613075  0.32896678  0.00430464  1
  Cu  Cu102  1  0.50659159  0.84029913  0.25177383  1
  Cu  Cu103  1  0.16412371  0.83744236  0.75934313  1
  Cu  Cu104  1  0.67058431  0.67288154  -0.00234282  1
  Cu  Cu105  1  0.83189685  0.83474052  0.24908064  1
  Cu  Cu106  1  0.49506382  0.49927018  0.74026199  1
  Cu  Cu107  1  0.82916274  0.17064702  0.25194062  1
  Cu  Cu108  1  0.16830532  0.83001404  0.24898706  1
  Cu  Cu109  1  0.66719186  0.66912682  0.50119041  1
  Cu  Cu110  1  0.33214351  0.66233714  0.49983818  1
  Cu  Cu111  1  0.16482967  0.16234327  0.25112769  1
  Cu  Cu112  1  0.49299677  0.17338049  0.74772557  1
  Cu  Cu113  1  0.16547667  0.17604207  0.75155174  1
  Cu  Cu114  1  0.34163707  0.00184725  -0.00465508  1
  Se  Se115  1  0.07059342  0.06627449  0.04373923  1
  Se  Se116  1  0.07636248  0.07938025  0.56127932  1
  Se  Se117  1  0.07740091  0.40756550  0.06677081  1
  Se  Se118  1  0.08413837  0.42037175  0.54911551  1
  Se  Se119  1  0.07456900  0.74084855  0.06088509  1
  Se  Se120  1  0.07058052  0.74991299  0.56865682  1
  Se  Se121  1  0.41245072  0.07799850  0.06586502  1
  Se  Se122  1  0.42569876  0.08317196  0.54967678  1
  Se  Se123  1  0.41107042  0.41226001  0.05837484  1
  Se  Se124  1  0.41616065  0.41411656  0.55024268  1
  Se  Se125  1  0.42668548  0.75868216  0.04602383  1
  Se  Se126  1  0.41411007  0.75108231  0.54917967  1
  Se  Se127  1  0.74128034  0.08124444  0.05942703  1
  Se  Se128  1  0.75186866  0.08189660  0.55520393  1
  Se  Se129  1  0.75649279  0.42178582  0.04954324  1
  Se  Se130  1  0.75203532  0.41703845  0.54982111  1
  Se  Se131  1  0.75778939  0.75280216  0.05228103  1
  Se  Se132  1  0.74862005  0.75087562  0.55753650  1
  Se  Se133  1  0.24327718  0.24792022  0.05825032  1
  Se  Se134  1  0.25450986  0.25231045  0.55812090  1
  Se  Se135  1  0.26139145  0.58958938  0.05651905  1
  Se  Se136  1  0.24230227  0.58143350  0.54767444  1
  Se  Se137  1  0.26099531  0.92481852  0.06037449  1
  Se  Se138  1  0.25920533  0.92238925  0.55499640  1
  Se  Se139  1  0.59508193  0.26586157  0.05661167  1
  Se  Se140  1  0.58409017  0.24585424  0.55038592  1
  Se  Se141  1  0.59585112  0.59367001  0.06411278  1
  Se  Se142  1  0.58338090  0.57763264  0.54810360  1
  Se  Se143  1  0.58524708  0.91472022  0.05301025  1
  Se  Se144  1  0.58403093  0.91087000  0.55351546  1
  Se  Se145  1  0.92007638  0.25352448  0.06360316  1
  Se  Se146  1  0.92004392  0.24992041  0.55257588  1
  Se  Se147  1  0.91519500  0.56393427  0.06224577  1
  Se  Se148  1  0.91167759  0.58383896  0.55516207  1
  Se  Se149  1  0.92124315  0.92741927  0.04816570  1
  Se  Se150  1  0.90745050  0.91302889  0.55897644  1
  Se  Se151  1  0.07891724  0.25950555  0.43555565  1
  Se  Se152  1  0.08287536  0.24602769  0.94570883  1
  Se  Se153  1  0.07878125  0.58604082  0.44721029  1
  Se  Se154  1  0.06808919  0.58886977  0.95021545  1
  Se  Se155  1  0.07305662  0.92467823  0.44669630  1
  Se  Se156  1  0.07942700  0.91267279  0.93177893  1
  Se  Se157  1  0.42098946  0.24460022  0.44783629  1
  Se  Se158  1  0.41319116  0.25824701  0.94193582  1
  Se  Se159  1  0.41955929  0.57820769  0.45140493  1
  Se  Se160  1  0.41733230  0.59670101  0.93605925  1
  Se  Se161  1  0.42454540  0.91339799  0.44389849  1
  Se  Se162  1  0.42673672  0.92201369  0.94263202  1
  Se  Se163  1  0.75350326  0.24915560  0.44340795  1
  Se  Se164  1  0.74089481  0.25671448  0.94173073  1
  Se  Se165  1  0.75147095  0.58422167  0.44947688  1
  Se  Se166  1  0.74764826  0.57772164  0.95059744  1
  Se  Se167  1  0.75375381  0.91321282  0.45007950  1
  Se  Se168  1  0.75615558  0.92286667  0.93902118  1
  Se  Se169  1  0.25498794  0.07442542  0.43793914  1
  Se  Se170  1  0.25243538  0.08901609  0.95375274  1
  Se  Se171  1  0.24616148  0.41373714  0.44618097  1
  Se  Se172  1  0.25462229  0.41152516  0.93901240  1
  Se  Se173  1  0.25573856  0.74313541  0.43477898  1
  Se  Se174  1  0.25079633  0.74543563  0.93974231  1
  Se  Se175  1  0.58920290  0.08229766  0.44640795  1
  Se  Se176  1  0.58815371  0.08104587  0.94189002  1
  Se  Se177  1  0.58308831  0.41414170  0.44724991  1
  Se  Se178  1  0.58903533  0.41112624  0.94145538  1
  Se  Se179  1  0.58194130  0.75171793  0.44885613  1
  Se  Se180  1  0.59125595  0.75709643  0.94199136  1
  Se  Se181  1  0.91098987  0.08749206  0.45281298  1
  Se  Se182  1  0.91824463  0.07870813  0.93019624  1
  Se  Se183  1  0.91269888  0.41949558  0.44443964  1
  Se  Se184  1  0.91719301  0.40922607  0.94635989  1
  Se  Se185  1  0.91658903  0.75519508  0.45121994  1
  Se  Se186  1  0.92607477  0.73918049  0.95417604  1
  Se  Se187  1  0.25035393  0.24558872  0.30254764  1
  Se  Se188  1  0.25266542  0.25653442  0.80312742  1
  Se  Se189  1  0.24982149  0.57811646  0.31583518  1
  Se  Se190  1  0.24132192  0.57307028  0.80697744  1
  Se  Se191  1  0.25412339  0.91421365  0.29718035  1
  Se  Se192  1  0.25013306  0.91835941  0.81426162  1
  Se  Se193  1  0.58420279  0.24796565  0.30506887  1
  Se  Se194  1  0.57700196  0.24407074  0.81238284  1
  Se  Se195  1  0.57473660  0.57234987  0.31394367  1
  Se  Se196  1  0.58004954  0.57608043  0.79750398  1
  Se  Se197  1  0.59110959  0.92171659  0.30441882  1
  Se  Se198  1  0.60809883  0.92535346  0.79454080  1
  Se  Se199  1  0.91590950  0.25183857  0.30250332  1
  Se  Se200  1  0.91373774  0.24858857  0.79494406  1
  Se  Se201  1  0.91864834  0.58655124  0.30674126  1
  Se  Se202  1  0.90782106  0.57620573  0.81233821  1
  Se  Se203  1  0.91131369  0.91576538  0.31204313  1
  Se  Se204  1  0.91469071  0.91770495  0.79564437  1
  Se  Se205  1  0.08464636  0.08536633  0.31401968  1
  Se  Se206  1  0.08727843  0.08819240  0.80446465  1
  Se  Se207  1  0.06919547  0.40811757  0.30387988  1
  Se  Se208  1  0.07567131  0.41479667  0.80179031  1
  Se  Se209  1  0.07831046  0.75210972  0.29857067  1
  Se  Se210  1  0.08022993  0.75739348  0.81491408  1
  Se  Se211  1  0.41637046  0.07778051  0.30599870  1
  Se  Se212  1  0.42252769  0.08892193  0.81307462  1
  Se  Se213  1  0.41412463  0.40762985  0.30810964  1
  Se  Se214  1  0.41148361  0.41599663  0.79308274  1
  Se  Se215  1  0.42663290  0.75079570  0.30499922  1
  Se  Se216  1  0.43080691  0.76443869  0.80155696  1
  Se  Se217  1  0.75050290  0.08230564  0.30403108  1
  Se  Se218  1  0.75714743  0.09728839  0.78944515  1
  Se  Se219  1  0.74535001  0.41518390  0.30393454  1
  Se  Se220  1  0.75468337  0.41881424  0.80991602  1
  Se  Se221  1  0.75915366  0.75826594  0.31708937  1
  Se  Se222  1  0.75141833  0.73678329  0.80688958  1
  Se  Se223  1  0.24868887  0.08000024  0.19767387  1
  Se  Se224  1  0.24180347  0.09639564  0.68649934  1
  Se  Se225  1  0.25035933  0.41363979  0.20638004  1
  Se  Se226  1  0.24673298  0.41397581  0.68970996  1
  Se  Se227  1  0.24647623  0.75449867  0.18385780  1
  Se  Se228  1  0.24155712  0.75758224  0.69813383  1
  Se  Se229  1  0.58636897  0.08368162  0.19954834  1
  Se  Se230  1  0.57619740  0.08971866  0.69562979  1
  Se  Se231  1  0.58571344  0.41681121  0.19719327  1
  Se  Se232  1  0.57930609  0.42015905  0.68207085  1
  Se  Se233  1  0.58504624  0.75561618  0.19298197  1
  Se  Se234  1  0.58190394  0.74088404  0.69430633  1
  Se  Se235  1  0.90822872  0.09382552  0.18679223  1
  Se  Se236  1  0.92800623  0.05805840  0.69167138  1
  Se  Se237  1  0.91447986  0.41231762  0.20439758  1
  Se  Se238  1  0.91812928  0.41454062  0.69459654  1
  Se  Se239  1  0.91437317  0.75189729  0.19542012  1
  Se  Se240  1  0.89856458  0.76075178  0.69680620  1
  Se  Se241  1  0.08048644  0.24295781  0.19688087  1
  Se  Se242  1  0.07769512  0.25155663  0.69531234  1
  Se  Se243  1  0.09785688  0.57240987  0.20633677  1
  Se  Se244  1  0.08576215  0.57997410  0.69050407  1
  Se  Se245  1  0.08943066  0.91059823  0.18579152  1
  Se  Se246  1  0.08528024  0.92331351  0.70576267  1
  Se  Se247  1  0.41701064  0.24942237  0.20004480  1
  Se  Se248  1  0.41147710  0.25611287  0.69512906  1
  Se  Se249  1  0.42810944  0.57223914  0.18876587  1
  Se  Se250  1  0.41707618  0.58052260  0.67953361  1
  Se  Se251  1  0.41978818  0.91966639  0.19810500  1
  Se  Se252  1  0.42522875  0.91107221  0.69047025  1
  Se  Se253  1  0.74791784  0.25528138  0.19703718  1
  Se  Se254  1  0.75451562  0.24663475  0.68477410  1
  Se  Se255  1  0.75772762  0.58341214  0.19551666  1
  Se  Se256  1  0.74766583  0.58190982  0.69770342  1
  Se  Se257  1  0.74943017  0.91983341  0.19788963  1
  Se  Se258  1  0.72111022  0.93107576  0.69993752  1
