# generated using pymatgen
data_In86Cu29Se144
_symmetry_space_group_name_H-M   'P 1'
_cell_length_a   17.57863662
_cell_length_b   17.57903680
_cell_length_c   23.43993196
_cell_angle_alpha   89.99001122
_cell_angle_beta   90.00500155
_cell_angle_gamma   90.01491260
_symmetry_Int_Tables_number   1
_chemical_formula_structural   In86Cu29Se144
_chemical_formula_sum   'In86 Cu29 Se144'
_cell_volume   7243.30191182
_cell_formula_units_Z   1
loop_
 _symmetry_equiv_pos_site_id
 _symmetry_equiv_pos_as_xyz
  1  'x, y, z'
loop_
 _atom_site_type_symbol
 _atom_site_label
 _atom_site_symmetry_multiplicity
 _atom_site_fract_x
 _atom_site_fract_y
 _atom_site_fract_z
 _atom_site_occupancy
  In  In0  1  0.01134446  0.17325373  0.12982184  1
  In  In1  1  0.01712209  0.16048508  0.61340414  1
  In  In2  1  -0.00822637  0.50944422  0.13525521  1
  In  In3  1  0.00442168  0.51698594  0.62512254  1
  In  In4  1  -0.00275518  0.82023146  0.12584279  1
  In  In5  1  -0.01406040  0.82845935  0.60994757  1
  In  In6  1  0.33919601  0.15740582  0.13161941  1
  In  In7  1  0.31458564  0.17970381  0.64253308  1
  In  In8  1  0.33660859  0.48623810  0.12684966  1
  In  In9  1  0.33140950  0.48092881  0.62335902  1
  In  In10  1  0.34537504  0.83808476  0.11898988  1
  In  In11  1  0.33321199  0.84934849  0.62729814  1
  In  In12  1  0.65650216  0.17599155  0.13403345  1
  In  In13  1  0.65426009  0.16536915  0.62585248  1
  In  In14  1  0.66565456  0.49915396  0.12491611  1
  In  In15  1  0.68194097  0.52379278  0.60135624  1
  In  In16  1  0.65484777  0.84180952  0.13657134  1
  In  In17  1  0.67134208  0.82820207  0.62863770  1
  In  In18  1  0.17192671  -0.00825232  0.38350263  1
  In  In19  1  0.16559933  -0.00823200  0.86997688  1
  In  In20  1  0.15965681  0.32650024  0.37677034  1
  In  In21  1  0.17253968  0.32222495  0.86884458  1
  In  In22  1  0.16212009  0.68392759  0.37772865  1
  In  In23  1  0.17327513  0.67684131  0.86917734  1
  In  In24  1  0.50339484  0.00554086  0.36853663  1
  In  In25  1  0.50048539  -0.00159232  0.87738781  1
  In  In26  1  0.50481952  0.33701197  0.36483807  1
  In  In27  1  0.49346324  0.34047888  0.88086819  1
  In  In28  1  0.50590504  0.65164227  0.37692481  1
  In  In29  1  0.51324883  0.65802849  0.88180334  1
  In  In30  1  0.81568770  -0.00651778  0.38356700  1
  In  In31  1  0.82916586  0.00421875  0.86948852  1
  In  In32  1  0.84081080  0.34566075  0.37128636  1
  In  In33  1  0.84330400  0.34189300  0.87859856  1
  In  In34  1  0.82940878  0.66128989  0.37455723  1
  In  In35  1  0.82163244  0.66103512  0.86941654  1
  In  In36  1  0.00150232  0.18646737  0.38406865  1
  In  In37  1  0.00772864  0.16259067  0.86990385  1
  In  In38  1  -0.01644764  0.48850283  0.37170942  1
  In  In39  1  -0.01760295  0.50171957  0.87535954  1
  In  In40  1  0.00689563  0.82878795  0.38107329  1
  In  In41  1  0.01748952  0.83138854  0.87405068  1
  In  In42  1  0.32954983  0.16481361  0.36972706  1
  In  In43  1  0.34218558  0.17873915  0.86589517  1
  In  In44  1  0.34757625  0.49633517  0.37752513  1
  In  In45  1  0.34894554  0.50151091  0.87149703  1
  In  In46  1  0.31960263  0.83911495  0.37799039  1
  In  In47  1  0.32832181  0.83991197  0.87964228  1
  In  In48  1  0.65894764  0.16105027  0.36812681  1
  In  In49  1  0.66747965  0.14786430  0.87314375  1
  In  In50  1  0.67028356  0.50383350  0.37169987  1
  In  In51  1  0.66207261  0.50657988  0.88183480  1
  In  In52  1  0.67455155  0.83393999  0.37672600  1
  In  In53  1  0.66097194  0.82495811  0.87045661  1
  In  In54  1  0.18340990  0.00207267  0.12536174  1
  In  In55  1  0.17351161  0.00729043  0.61192003  1
  In  In56  1  0.16959066  0.33210120  0.13796495  1
  In  In57  1  0.18275179  0.33324014  0.61973495  1
  In  In58  1  0.15566458  0.66700430  0.12653055  1
  In  In59  1  0.14335746  0.65887602  0.62603081  1
  In  In60  1  0.49736467  0.00016296  0.12615104  1
  In  In61  1  0.49528285  -0.00163023  0.63537628  1
  In  In62  1  0.50055091  0.33214902  0.12319778  1
  In  In63  1  0.48486755  0.33813166  0.62148869  1
  In  In64  1  0.51031650  0.67501211  0.11924021  1
  In  In65  1  0.51529523  0.66513440  0.62445252  1
  In  In66  1  0.82622672  -0.01189740  0.13101197  1
  In  In67  1  0.83215590  -0.01508172  0.61747745  1
  In  In68  1  0.81930969  0.34530830  0.13700215  1
  In  In69  1  0.82216084  0.34040111  0.61509462  1
  In  In70  1  0.83836394  0.65787694  0.13280336  1
  In  In71  1  0.83049386  0.67393427  0.61999170  1
  In  In72  1  0.49761108  0.16423591  0.49440411  1
  In  In73  1  0.00421214  -0.00371314  0.74382509  1
  In  In74  1  -0.00262219  0.00330476  0.25651372  1
  In  In75  1  0.16474851  0.49923441  0.50130621  1
  In  In76  1  0.65705356  0.33804902  0.74595582  1
  In  In77  1  0.50673187  0.82883922  0.50059004  1
  In  In78  1  0.83605534  0.16672260  0.49900971  1
  In  In79  1  0.00731777  0.33927128  0.73952542  1
  In  In80  1  0.17181484  0.50340728  0.00021838  1
  In  In81  1  0.17261408  0.16618290  -0.00672639  1
  In  In82  1  0.82987188  0.82766332  0.00071898  1
  In  In83  1  0.82512286  0.17325064  0.00465659  1
  In  In84  1  0.33319523  0.66912933  0.25436026  1
  In  In85  1  0.33486747  0.66493510  0.75354663  1
  Cu  Cu86  1  -0.00833134  0.66433884  0.49764123  1
  Cu  Cu87  1  0.33759183  0.66735700  -0.00598134  1
  Cu  Cu88  1  0.83495053  0.82862493  0.74264895  1
  Cu  Cu89  1  0.49613625  0.16747882  0.24760437  1
  Cu  Cu90  1  0.00195286  0.66800398  0.00386931  1
  Cu  Cu91  1  0.33063894  0.66919747  0.49897440  1
  Cu  Cu92  1  -0.00332208  0.34469147  0.00632615  1
  Cu  Cu93  1  0.50335423  0.83485866  0.75256135  1
  Cu  Cu94  1  0.16539490  0.83903154  0.25386389  1
  Cu  Cu95  1  0.82943270  0.49966139  0.25166658  1
  Cu  Cu96  1  0.83215935  0.16595860  0.26057648  1
  Cu  Cu97  1  0.33500823  0.00683172  0.50231288  1
  Cu  Cu98  1  0.16310495  0.82991199  0.74555138  1
  Cu  Cu99  1  0.82580393  0.51069061  0.74592367  1
  Cu  Cu100  1  0.82775708  0.82631785  0.25250249  1
  Cu  Cu101  1  0.16606590  0.17304327  0.25492321  1
  Cu  Cu102  1  0.66380136  0.33412769  0.00624387  1
  Cu  Cu103  1  0.34088564  -0.00282616  0.00138681  1
  Cu  Cu104  1  0.66387167  0.34029165  0.48882623  1
  Cu  Cu105  1  0.66946606  0.66472711  0.00242505  1
  Cu  Cu106  1  0.34037572  0.32989179  0.00085677  1
  Cu  Cu107  1  0.50361619  0.49739165  0.24848651  1
  Cu  Cu108  1  0.50631982  0.49781072  0.74977776  1
  Cu  Cu109  1  0.65565369  -0.00338793  0.00346981  1
  Cu  Cu110  1  0.16314428  0.50127160  0.25474068  1
  Cu  Cu111  1  0.49875597  0.16127685  0.75114743  1
  Cu  Cu112  1  0.49760035  0.83614740  0.24970561  1
  Cu  Cu113  1  0.00440750  -0.00319132  -0.00615119  1
  Cu  Cu114  1  0.83631733  0.16260128  0.74720758  1
  Se  Se115  1  0.07993857  0.07832083  0.05675973  1
  Se  Se116  1  0.07722205  0.06946908  0.54182222  1
  Se  Se117  1  0.08432532  0.41650945  0.06523156  1
  Se  Se118  1  0.07569497  0.41147494  0.56305503  1
  Se  Se119  1  0.08646314  0.75377982  0.05243324  1
  Se  Se120  1  0.08038136  0.74428984  0.54976129  1
  Se  Se121  1  0.41776492  0.08545862  0.05520364  1
  Se  Se122  1  0.41255979  0.08404070  0.56479316  1
  Se  Se123  1  0.42043941  0.41805489  0.05213488  1
  Se  Se124  1  0.41241288  0.41594801  0.54665160  1
  Se  Se125  1  0.42005716  0.74943924  0.05073615  1
  Se  Se126  1  0.41054653  0.74664409  0.56343142  1
  Se  Se127  1  0.74124645  0.07505651  0.06224698  1
  Se  Se128  1  0.74072483  0.08157153  0.55861753  1
  Se  Se129  1  0.75137130  0.41689875  0.05502160  1
  Se  Se130  1  0.75191869  0.42135454  0.54014753  1
  Se  Se131  1  0.74269207  0.74592602  0.06730842  1
  Se  Se132  1  0.75611251  0.76513279  0.55179886  1
  Se  Se133  1  0.25388636  0.25563934  0.06026527  1
  Se  Se134  1  0.25574658  0.24228506  0.55392203  1
  Se  Se135  1  0.26122442  0.59245787  0.06241892  1
  Se  Se136  1  0.25370519  0.59041814  0.56360940  1
  Se  Se137  1  0.25265603  0.91636976  0.05287801  1
  Se  Se138  1  0.25359228  0.91380488  0.54821935  1
  Se  Se139  1  0.58182713  0.24530267  0.05398322  1
  Se  Se140  1  0.58841614  0.26101814  0.55339925  1
  Se  Se141  1  0.58334766  0.58050092  0.05361345  1
  Se  Se142  1  0.56967227  0.58039312  0.54539787  1
  Se  Se143  1  0.57741071  0.91083385  0.05788674  1
  Se  Se144  1  0.58509145  0.92369504  0.56362771  1
  Se  Se145  1  0.91986480  0.25867760  0.06453423  1
  Se  Se146  1  0.92391238  0.25799903  0.55961771  1
  Se  Se147  1  0.91889794  0.58493009  0.05665249  1
  Se  Se148  1  0.91236072  0.58254465  0.55453349  1
  Se  Se149  1  0.92317820  0.92335796  0.05724979  1
  Se  Se150  1  0.92095921  0.92608802  0.54359030  1
  Se  Se151  1  0.09165765  0.24957029  0.45576055  1
  Se  Se152  1  0.07168246  0.26178158  0.94414805  1
  Se  Se153  1  0.07596669  0.58700956  0.43741745  1
  Se  Se154  1  0.07931623  0.58969755  0.93905256  1
  Se  Se155  1  0.08231911  0.91659614  0.44880174  1
  Se  Se156  1  0.09204650  0.91387694  0.94694032  1
  Se  Se157  1  0.41364932  0.25747925  0.43565854  1
  Se  Se158  1  0.41988570  0.24453704  0.94629409  1
  Se  Se159  1  0.41546441  0.58557901  0.44962059  1
  Se  Se160  1  0.42130786  0.57902866  0.94736710  1
  Se  Se161  1  0.41522598  0.92448269  0.44249888  1
  Se  Se162  1  0.42148910  0.91165362  0.94708286  1
  Se  Se163  1  0.74309840  0.25152550  0.43546935  1
  Se  Se164  1  0.73952311  0.25889547  0.93678966  1
  Se  Se165  1  0.75936207  0.57034628  0.44470865  1
  Se  Se166  1  0.75405912  0.58301814  0.94878164  1
  Se  Se167  1  0.75135711  0.90369932  0.45601963  1
  Se  Se168  1  0.74428852  0.92473776  0.94288577  1
  Se  Se169  1  0.25304356  0.08631737  0.44467847  1
  Se  Se170  1  0.26161948  0.07451054  0.93629127  1
  Se  Se171  1  0.25575161  0.41241100  0.44136693  1
  Se  Se172  1  0.25778166  0.40818365  0.94020862  1
  Se  Se173  1  0.24673587  0.75527804  0.45133789  1
  Se  Se174  1  0.24873559  0.74945686  0.94621764  1
  Se  Se175  1  0.59441884  0.07002928  0.44596441  1
  Se  Se176  1  0.58066612  0.08484287  0.94816804  1
  Se  Se177  1  0.57846970  0.42169058  0.43710560  1
  Se  Se178  1  0.58349525  0.41712906  0.94759186  1
  Se  Se179  1  0.59408999  0.73623768  0.44332737  1
  Se  Se180  1  0.58773562  0.75082182  0.94917039  1
  Se  Se181  1  0.92124338  0.07722514  0.43596349  1
  Se  Se182  1  0.92076570  0.08181950  0.94256816  1
  Se  Se183  1  0.92151507  0.40739024  0.45042638  1
  Se  Se184  1  0.91101126  0.42504797  0.95416226  1
  Se  Se185  1  0.91272692  0.74847299  0.44188233  1
  Se  Se186  1  0.92315583  0.74472788  0.93839968  1
  Se  Se187  1  0.25149797  0.25742557  0.30483611  1
  Se  Se188  1  0.25052038  0.24743782  0.79681994  1
  Se  Se189  1  0.24347348  0.58046995  0.31656022  1
  Se  Se190  1  0.24364565  0.57034645  0.80863371  1
  Se  Se191  1  0.25057658  0.92327252  0.30307397  1
  Se  Se192  1  0.24743332  0.90888276  0.80149530  1
  Se  Se193  1  0.58440555  0.24835923  0.29860265  1
  Se  Se194  1  0.57937623  0.24362809  0.81157016  1
  Se  Se195  1  0.58560234  0.58351745  0.29943492  1
  Se  Se196  1  0.58764438  0.58222851  0.80394627  1
  Se  Se197  1  0.58398623  0.91168247  0.30817905  1
  Se  Se198  1  0.58638263  0.91961828  0.80635801  1
  Se  Se199  1  0.91896810  0.25170573  0.30629700  1
  Se  Se200  1  0.91342871  0.24595392  0.80557289  1
  Se  Se201  1  0.91574885  0.58300663  0.30306216  1
  Se  Se202  1  0.91384802  0.58698355  0.80121216  1
  Se  Se203  1  0.90769471  0.90965639  0.31228869  1
  Se  Se204  1  0.91337711  0.90675281  0.80849016  1
  Se  Se205  1  0.08764847  0.09161837  0.31596090  1
  Se  Se206  1  0.09745922  0.09085998  0.79933104  1
  Se  Se207  1  0.08235128  0.41591081  0.30851121  1
  Se  Se208  1  0.08340162  0.42130343  0.81444873  1
  Se  Se209  1  0.08016271  0.75307191  0.30139016  1
  Se  Se210  1  0.08112779  0.74534664  0.79816865  1
  Se  Se211  1  0.41477746  0.08264735  0.30178575  1
  Se  Se212  1  0.41695541  0.07858418  0.80630055  1
  Se  Se213  1  0.41421699  0.41747036  0.29833802  1
  Se  Se214  1  0.42137100  0.41350558  0.80031346  1
  Se  Se215  1  0.42249366  0.75803397  0.31671330  1
  Se  Se216  1  0.42565376  0.75242675  0.81490823  1
  Se  Se217  1  0.74881564  0.07619477  0.30617537  1
  Se  Se218  1  0.74958337  0.07935102  0.79619799  1
  Se  Se219  1  0.74638934  0.41332265  0.30242340  1
  Se  Se220  1  0.75466853  0.42159072  0.80712203  1
  Se  Se221  1  0.74400437  0.74342858  0.30517049  1
  Se  Se222  1  0.74946603  0.75120261  0.80074986  1
  Se  Se223  1  0.24665651  0.08684987  0.20130244  1
  Se  Se224  1  0.25708147  0.06319998  0.69230534  1
  Se  Se225  1  0.25040685  0.42151768  0.20218932  1
  Se  Se226  1  0.24304344  0.41911070  0.69659625  1
  Se  Se227  1  0.24525648  0.75821144  0.19121541  1
  Se  Se228  1  0.24684591  0.74949632  0.68690442  1
  Se  Se229  1  0.58088721  0.08024021  0.19698306  1
  Se  Se230  1  0.58567927  0.08074683  0.69975123  1
  Se  Se231  1  0.58484717  0.41279430  0.19305541  1
  Se  Se232  1  0.58273121  0.42923644  0.67838342  1
  Se  Se233  1  0.57957314  0.74663417  0.20111513  1
  Se  Se234  1  0.58442771  0.75050138  0.69845548  1
  Se  Se235  1  0.90826901  0.09200176  0.19065332  1
  Se  Se236  1  0.91551267  0.08811502  0.68345976  1
  Se  Se237  1  0.91803946  0.41577767  0.20082250  1
  Se  Se238  1  0.90325900  0.42471855  0.68852570  1
  Se  Se239  1  0.91672806  0.74811579  0.19987058  1
  Se  Se240  1  0.92097186  0.74913827  0.69020751  1
  Se  Se241  1  0.07881281  0.25573825  0.20503960  1
  Se  Se242  1  0.09394165  0.23962542  0.68930223  1
  Se  Se243  1  0.08303892  0.58740691  0.20136957  1
  Se  Se244  1  0.08321364  0.57798647  0.70513145  1
  Se  Se245  1  0.08510058  0.91671037  0.18977540  1
  Se  Se246  1  0.08724543  0.90716349  0.68019503  1
  Se  Se247  1  0.41466360  0.25342614  0.19392176  1
  Se  Se248  1  0.42254361  0.25065674  0.69741996  1
  Se  Se249  1  0.42134961  0.58212628  0.19032606  1
  Se  Se250  1  0.42265052  0.57767154  0.68975617  1
  Se  Se251  1  0.41293854  0.91799697  0.19694095  1
  Se  Se252  1  0.41355364  0.91638363  0.70516472  1
  Se  Se253  1  0.75074046  0.24642721  0.20112639  1
  Se  Se254  1  0.75523714  0.24613577  0.69051782  1
  Se  Se255  1  0.74560892  0.58199360  0.19689829  1
  Se  Se256  1  0.74381159  0.58977427  0.68848840  1
  Se  Se257  1  0.74565290  0.91669590  0.20503870  1
  Se  Se258  1  0.75211233  0.91799095  0.69572869  1
