# generated using pymatgen
data_In86Cu29Se144
_symmetry_space_group_name_H-M   'P 1'
_cell_length_a   17.53076807
_cell_length_b   17.53145047
_cell_length_c   23.37650656
_cell_angle_alpha   89.99374055
_cell_angle_beta   90.01531844
_cell_angle_gamma   89.96651178
_symmetry_Int_Tables_number   1
_chemical_formula_structural   In86Cu29Se144
_chemical_formula_sum   'In86 Cu29 Se144'
_cell_volume   7184.52913877
_cell_formula_units_Z   1
loop_
 _symmetry_equiv_pos_site_id
 _symmetry_equiv_pos_as_xyz
  1  'x, y, z'
loop_
 _atom_site_type_symbol
 _atom_site_label
 _atom_site_symmetry_multiplicity
 _atom_site_fract_x
 _atom_site_fract_y
 _atom_site_fract_z
 _atom_site_occupancy
  In  In0  1  -0.01508929  0.16686933  0.13417283  1
  In  In1  1  0.01588196  0.19795465  0.59315808  1
  In  In2  1  0.01907440  0.49923786  0.12664264  1
  In  In3  1  0.02309290  0.48597575  0.63764263  1
  In  In4  1  0.00871198  0.82384651  0.13780817  1
  In  In5  1  -0.00590115  0.82193610  0.62075521  1
  In  In6  1  0.35169165  0.16274235  0.13153580  1
  In  In7  1  0.35017484  0.17801063  0.60618422  1
  In  In8  1  0.32555819  0.50681335  0.13628965  1
  In  In9  1  0.31628038  0.48240207  0.61660127  1
  In  In10  1  0.31810064  0.83170308  0.13196842  1
  In  In11  1  0.33800976  0.83959394  0.60624019  1
  In  In12  1  0.66193665  0.17130746  0.13835179  1
  In  In13  1  0.68368825  0.17814051  0.59505523  1
  In  In14  1  0.66463225  0.49934874  0.13902943  1
  In  In15  1  0.65025317  0.49598028  0.61450658  1
  In  In16  1  0.66070618  0.84008192  0.14012997  1
  In  In17  1  0.67844467  0.84854591  0.59993122  1
  In  In18  1  0.16724558  0.01241533  0.38786798  1
  In  In19  1  0.15508837  -0.01096123  0.87553393  1
  In  In20  1  0.17541650  0.31910628  0.39014128  1
  In  In21  1  0.17950047  0.34592734  0.85778922  1
  In  In22  1  0.16799713  0.66541705  0.37748470  1
  In  In23  1  0.16298867  0.67095502  0.87869737  1
  In  In24  1  0.52170597  -0.01505125  0.40279581  1
  In  In25  1  0.51781793  0.01611500  0.87411824  1
  In  In26  1  0.50247885  0.33994538  0.38522295  1
  In  In27  1  0.49194433  0.32304691  0.86647082  1
  In  In28  1  0.49878417  0.66307738  0.37292369  1
  In  In29  1  0.49720534  0.67280754  0.87020367  1
  In  In30  1  0.82524255  -0.00606632  0.38407418  1
  In  In31  1  0.83414153  -0.00369248  0.87441673  1
  In  In32  1  0.82102251  0.33350262  0.38317609  1
  In  In33  1  0.83428328  0.33125427  0.85787476  1
  In  In34  1  0.84526451  0.67685914  0.37096335  1
  In  In35  1  0.83183203  0.65855158  0.86972704  1
  In  In36  1  0.01283822  0.16150521  0.38677928  1
  In  In37  1  -0.01096245  0.16639598  0.86931737  1
  In  In38  1  -0.00149499  0.50840687  0.37926627  1
  In  In39  1  0.01613137  0.51632649  0.85567375  1
  In  In40  1  -0.00302062  0.83280294  0.37896849  1
  In  In41  1  0.00862133  0.84075192  0.87211660  1
  In  In42  1  0.32786639  0.16862232  0.38350488  1
  In  In43  1  0.33691708  0.18077580  0.87339863  1
  In  In44  1  0.33487450  0.49849719  0.37596112  1
  In  In45  1  0.33240546  0.48708764  0.87341090  1
  In  In46  1  0.34449961  0.83155519  0.38619487  1
  In  In47  1  0.32806229  0.81829057  0.87276548  1
  In  In48  1  0.66599184  0.16877804  0.38684140  1
  In  In49  1  0.65323373  0.16058020  0.87194800  1
  In  In50  1  0.65417831  0.48467612  0.37494955  1
  In  In51  1  0.68138534  0.49722385  0.86985752  1
  In  In52  1  0.67126815  0.83655916  0.38020293  1
  In  In53  1  0.67135362  0.83554755  0.87462848  1
  In  In54  1  0.17269328  -0.01856351  0.13233256  1
  In  In55  1  0.17266948  -0.00020069  0.60724323  1
  In  In56  1  0.16664009  0.34941388  0.12745190  1
  In  In57  1  0.16561480  0.34434559  0.62237250  1
  In  In58  1  0.16498972  0.66461397  0.13341152  1
  In  In59  1  0.15479049  0.65584865  0.61635427  1
  In  In60  1  0.50328779  0.01410161  0.12906106  1
  In  In61  1  0.51632106  0.02346952  0.58472988  1
  In  In62  1  0.50215318  0.32388856  0.13740134  1
  In  In63  1  0.50372082  0.33132360  0.61874006  1
  In  In64  1  0.49842216  0.66799428  0.14364903  1
  In  In65  1  0.50351753  0.66857547  0.61144198  1
  In  In66  1  0.83326672  0.00363714  0.14146102  1
  In  In67  1  0.83119808  0.00271119  0.61356600  1
  In  In68  1  0.82578125  0.32146674  0.13202830  1
  In  In69  1  0.83582544  0.32891499  0.61858399  1
  In  In70  1  0.82992666  0.67211780  0.13988275  1
  In  In71  1  0.84822824  0.68243411  0.62288726  1
  In  In72  1  0.67021825  0.00874585  0.73018327  1
  In  In73  1  0.83779191  0.50132741  0.50102076  1
  In  In74  1  -0.00357824  0.33784971  0.25203259  1
  In  In75  1  0.83113735  0.16917046  0.00448525  1
  In  In76  1  0.66715837  0.65870547  0.74492604  1
  In  In77  1  0.34043720  -0.00063369  0.25860762  1
  In  In78  1  0.83779946  0.50062514  -0.00198836  1
  In  In79  1  0.49412531  0.49759650  -0.00284918  1
  In  In80  1  0.32826485  0.65874478  0.74237026  1
  In  In81  1  0.17018688  0.16260970  0.00007281  1
  In  In82  1  -0.00234372  0.00596088  0.74318720  1
  In  In83  1  0.33504299  0.00052415  0.73162930  1
  In  In84  1  0.48468174  0.84493500  0.01632586  1
  In  In85  1  0.83405544  0.83813222  -0.00664566  1
  Cu  Cu86  1  0.82930018  0.50270649  0.25974205  1
  Cu  Cu87  1  -0.00345333  -0.00680613  0.49689167  1
  Cu  Cu88  1  0.65442685  0.67945721  0.00969774  1
  Cu  Cu89  1  0.16310860  0.83112593  0.25984255  1
  Cu  Cu90  1  0.16933832  0.49850001  0.25700945  1
  Cu  Cu91  1  0.66121881  0.32860295  0.00357260  1
  Cu  Cu92  1  0.16618855  0.17702753  0.73778434  1
  Cu  Cu93  1  0.50345330  0.16793219  0.26592934  1
  Cu  Cu94  1  0.49888788  0.49318240  0.25722236  1
  Cu  Cu95  1  0.82967261  0.16106207  0.26399496  1
  Cu  Cu96  1  0.49492974  0.48889832  0.74010419  1
  Cu  Cu97  1  0.50324577  0.83592342  0.26270228  1
  Cu  Cu98  1  0.66917881  0.66485474  0.49047560  1
  Cu  Cu99  1  0.83193645  0.49499661  0.73880692  1
  Cu  Cu100  1  0.83091921  0.83942656  0.25919809  1
  Cu  Cu101  1  0.31462247  0.66219227  0.00619061  1
  Cu  Cu102  1  0.00688741  -0.00886953  0.01029894  1
  Cu  Cu103  1  0.33273839  0.34433601  0.50079984  1
  Cu  Cu104  1  0.00724525  0.66698623  0.00479194  1
  Cu  Cu105  1  0.16817901  0.16670508  0.26074841  1
  Cu  Cu106  1  0.16646266  0.82948300  0.74225435  1
  Cu  Cu107  1  0.49956814  0.17531489  0.74078986  1
  Cu  Cu108  1  0.00990854  0.34173028  -0.01045108  1
  Cu  Cu109  1  0.33860790  -0.00495219  0.00020835  1
  Cu  Cu110  1  0.00782783  0.66669926  0.49873090  1
  Cu  Cu111  1  0.33685433  0.66445735  0.49508881  1
  Cu  Cu112  1  0.33432591  0.33261399  -0.00078908  1
  Cu  Cu113  1  0.83256726  0.16658631  0.73354764  1
  Cu  Cu114  1  0.50942931  0.84226341  0.73194896  1
  Se  Se115  1  0.07972880  0.08042266  0.06854445  1
  Se  Se116  1  0.08132045  0.08217798  0.54431479  1
  Se  Se117  1  0.08955828  0.42086693  0.04889505  1
  Se  Se118  1  0.08241913  0.42217993  0.54979507  1
  Se  Se119  1  0.08644754  0.75049190  0.06119214  1
  Se  Se120  1  0.08892668  0.75608480  0.55039048  1
  Se  Se121  1  0.41807414  0.08183713  0.05305816  1
  Se  Se122  1  0.38255246  0.05942281  0.54331563  1
  Se  Se123  1  0.41127014  0.41110955  0.06458154  1
  Se  Se124  1  0.42299844  0.42286819  0.55328373  1
  Se  Se125  1  0.40401916  0.73543928  0.06502928  1
  Se  Se126  1  0.42264829  0.75220432  0.54279888  1
  Se  Se127  1  0.74570598  0.08027936  0.06708146  1
  Se  Se128  1  0.72260334  0.05107021  0.54742566  1
  Se  Se129  1  0.74343495  0.41187511  0.06036428  1
  Se  Se130  1  0.74037670  0.40910311  0.55147883  1
  Se  Se131  1  0.74578847  0.75400445  0.06322134  1
  Se  Se132  1  0.75409365  0.74050788  0.54887074  1
  Se  Se133  1  0.25751633  0.25233391  0.06418581  1
  Se  Se134  1  0.24863295  0.25863765  0.55266263  1
  Se  Se135  1  0.23956056  0.57474056  0.06116362  1
  Se  Se136  1  0.25240422  0.58469768  0.55186764  1
  Se  Se137  1  0.25281650  0.91420600  0.05339224  1
  Se  Se138  1  0.24160144  0.90658506  0.54000967  1
  Se  Se139  1  0.58252203  0.24822051  0.06232610  1
  Se  Se140  1  0.55831260  0.22693528  0.54828521  1
  Se  Se141  1  0.58118598  0.58759780  0.06401842  1
  Se  Se142  1  0.58243381  0.58340420  0.54170759  1
  Se  Se143  1  0.59307382  0.92675711  0.06126088  1
  Se  Se144  1  0.56975717  0.90219680  0.53762029  1
  Se  Se145  1  0.92928949  0.26645597  0.05593929  1
  Se  Se146  1  0.88733224  0.23095010  0.54349042  1
  Se  Se147  1  0.92063757  0.59261699  0.06444467  1
  Se  Se148  1  0.93070850  0.58480143  0.56203151  1
  Se  Se149  1  0.91735887  0.91743497  0.06711238  1
  Se  Se150  1  0.91594566  0.91110479  0.55326749  1
  Se  Se151  1  0.07953659  0.25292505  0.45814756  1
  Se  Se152  1  0.08234491  0.24883814  0.93480817  1
  Se  Se153  1  0.08928952  0.57911699  0.44906591  1
  Se  Se154  1  0.08039789  0.58130783  0.94397741  1
  Se  Se155  1  0.08564025  0.91394746  0.44548614  1
  Se  Se156  1  0.08558884  0.90888354  0.95280378  1
  Se  Se157  1  0.41196845  0.25570438  0.44869424  1
  Se  Se158  1  0.42145170  0.24965528  0.94847930  1
  Se  Se159  1  0.42154056  0.57872168  0.44505646  1
  Se  Se160  1  0.40249519  0.59537463  0.94079682  1
  Se  Se161  1  0.39745140  0.93884530  0.45156234  1
  Se  Se162  1  0.41499663  0.92055615  0.93089554  1
  Se  Se163  1  0.75923545  0.24186476  0.45667481  1
  Se  Se164  1  0.74688895  0.25850791  0.93862676  1
  Se  Se165  1  0.75098873  0.58335184  0.43234156  1
  Se  Se166  1  0.73598705  0.59783289  0.94778905  1
  Se  Se167  1  0.75218487  0.90819733  0.45680657  1
  Se  Se168  1  0.73476490  0.93545782  0.94699810  1
  Se  Se169  1  0.25013860  0.09063044  0.45871004  1
  Se  Se170  1  0.25887039  0.07257606  0.93508412  1
  Se  Se171  1  0.24585487  0.42479988  0.44768623  1
  Se  Se172  1  0.24783008  0.41111465  0.94478140  1
  Se  Se173  1  0.25025914  0.74918473  0.44670485  1
  Se  Se174  1  0.24374694  0.75442181  0.94991852  1
  Se  Se175  1  0.56686266  0.10685694  0.45769132  1
  Se  Se176  1  0.58785658  0.08800907  0.95327554  1
  Se  Se177  1  0.58968709  0.41363584  0.45701747  1
  Se  Se178  1  0.59060561  0.41177344  0.93792878  1
  Se  Se179  1  0.58124522  0.74861678  0.44136714  1
  Se  Se180  1  0.57697120  0.75719604  0.94619310  1
  Se  Se181  1  0.91541440  0.08108049  0.44598388  1
  Se  Se182  1  0.92723086  0.07121161  0.94780212  1
  Se  Se183  1  0.92679268  0.40618735  0.44387667  1
  Se  Se184  1  0.92080827  0.41405580  0.93081567  1
  Se  Se185  1  0.91690596  0.74910427  0.45153166  1
  Se  Se186  1  0.92466321  0.73945732  0.93944379  1
  Se  Se187  1  0.25217075  0.25148080  0.30890415  1
  Se  Se188  1  0.25621090  0.24838690  0.79617524  1
  Se  Se189  1  0.25289885  0.58491673  0.30728125  1
  Se  Se190  1  0.24223593  0.57563110  0.80900298  1
  Se  Se191  1  0.24512553  0.91328538  0.31701772  1
  Se  Se192  1  0.24821587  0.91252261  0.80180651  1
  Se  Se193  1  0.58699022  0.25472245  0.31606031  1
  Se  Se194  1  0.58673308  0.24994619  0.79927487  1
  Se  Se195  1  0.58505434  0.57916425  0.30580923  1
  Se  Se196  1  0.57058250  0.57046391  0.80637178  1
  Se  Se197  1  0.58374458  0.92294557  0.31367359  1
  Se  Se198  1  0.58380910  0.91674103  0.80044151  1
  Se  Se199  1  0.91483533  0.24557102  0.31692062  1
  Se  Se200  1  0.91727539  0.24391712  0.79238063  1
  Se  Se201  1  0.92160284  0.58436915  0.30342512  1
  Se  Se202  1  0.90925712  0.58273602  0.79559530  1
  Se  Se203  1  0.91558944  0.92119454  0.31229214  1
  Se  Se204  1  0.90877156  0.91065896  0.80160749  1
  Se  Se205  1  0.08509469  0.08143506  0.30950165  1
  Se  Se206  1  0.09563533  0.09320653  0.80357599  1
  Se  Se207  1  0.09072448  0.41598845  0.31654785  1
  Se  Se208  1  0.06316544  0.39661659  0.80353908  1
  Se  Se209  1  0.07814541  0.74581464  0.30993152  1
  Se  Se210  1  0.08728348  0.75314116  0.80417812  1
  Se  Se211  1  0.42803878  0.08120744  0.32478912  1
  Se  Se212  1  0.42324708  0.08711963  0.80044126  1
  Se  Se213  1  0.41567293  0.40939852  0.30949228  1
  Se  Se214  1  0.41229745  0.41179601  0.79940726  1
  Se  Se215  1  0.41352124  0.75230756  0.30775874  1
  Se  Se216  1  0.42690116  0.76156540  0.79326622  1
  Se  Se217  1  0.74274580  0.08073395  0.31625021  1
  Se  Se218  1  0.75941539  0.09005079  0.80320164  1
  Se  Se219  1  0.74843649  0.41177332  0.30608204  1
  Se  Se220  1  0.74513910  0.41415011  0.79272002  1
  Se  Se221  1  0.74777750  0.75134831  0.30784446  1
  Se  Se222  1  0.75549244  0.75743433  0.80282177  1
  Se  Se223  1  0.24688244  0.08720621  0.19566207  1
  Se  Se224  1  0.24416067  0.09626286  0.67801505  1
  Se  Se225  1  0.25228503  0.41203888  0.20393608  1
  Se  Se226  1  0.24464177  0.41918985  0.69871722  1
  Se  Se227  1  0.24753873  0.74767272  0.20480200  1
  Se  Se228  1  0.25071043  0.75725679  0.68052943  1
  Se  Se229  1  0.58204173  0.08348954  0.20664728  1
  Se  Se230  1  0.57421371  0.09597468  0.67560573  1
  Se  Se231  1  0.58472379  0.41034508  0.20337139  1
  Se  Se232  1  0.58657805  0.41135733  0.69175071  1
  Se  Se233  1  0.58578296  0.75034599  0.20765639  1
  Se  Se234  1  0.59179931  0.75569221  0.67982423  1
  Se  Se235  1  0.91950679  0.08285526  0.21038560  1
  Se  Se236  1  0.91972331  0.09478002  0.67422716  1
  Se  Se237  1  0.90634117  0.42814382  0.18905324  1
  Se  Se238  1  0.91649526  0.40902239  0.69005849  1
  Se  Se239  1  0.91514784  0.75398190  0.20574131  1
  Se  Se240  1  0.92193739  0.75248293  0.70174627  1
  Se  Se241  1  0.09028377  0.24489654  0.19415523  1
  Se  Se242  1  0.07659995  0.25449133  0.68564558  1
  Se  Se243  1  0.08194544  0.58176464  0.20442056  1
  Se  Se244  1  0.08419864  0.59123963  0.69927573  1
  Se  Se245  1  0.08232785  0.91839887  0.20531764  1
  Se  Se246  1  0.09202108  0.91800346  0.68522231  1
  Se  Se247  1  0.41625747  0.24626891  0.20861354  1
  Se  Se248  1  0.41179700  0.25493376  0.68882646  1
  Se  Se249  1  0.41456348  0.58041661  0.20589568  1
  Se  Se250  1  0.42306749  0.57654773  0.68108686  1
  Se  Se251  1  0.42600703  0.90808520  0.19228173  1
  Se  Se252  1  0.43446609  0.92288134  0.67073737  1
  Se  Se253  1  0.74939380  0.24887506  0.20870145  1
  Se  Se254  1  0.74277329  0.24565021  0.68290321  1
  Se  Se255  1  0.74530318  0.58672934  0.20472902  1
  Se  Se256  1  0.75466763  0.57585320  0.67744494  1
  Se  Se257  1  0.74512786  0.92297739  0.20706575  1
  Se  Se258  1  0.76034203  0.90528331  0.68694770  1
