# generated using pymatgen
data_In86Cu29Se144
_symmetry_space_group_name_H-M   'P 1'
_cell_length_a   17.58050843
_cell_length_b   17.58014180
_cell_length_c   23.43492200
_cell_angle_alpha   89.99490383
_cell_angle_beta   89.98804612
_cell_angle_gamma   89.99637824
_symmetry_Int_Tables_number   1
_chemical_formula_structural   In86Cu29Se144
_chemical_formula_sum   'In86 Cu29 Se144'
_cell_volume   7242.98031394
_cell_formula_units_Z   1
loop_
 _symmetry_equiv_pos_site_id
 _symmetry_equiv_pos_as_xyz
  1  'x, y, z'
loop_
 _atom_site_type_symbol
 _atom_site_label
 _atom_site_symmetry_multiplicity
 _atom_site_fract_x
 _atom_site_fract_y
 _atom_site_fract_z
 _atom_site_occupancy
  In  In0  1  -0.00104165  0.17940248  0.12341185  1
  In  In1  1  0.00911727  0.18740868  0.60177910  1
  In  In2  1  0.01232656  0.50140872  0.12829847  1
  In  In3  1  0.00737217  0.48510797  0.61856328  1
  In  In4  1  0.00242063  0.82192127  0.13246040  1
  In  In5  1  0.00861153  0.82926713  0.60903802  1
  In  In6  1  0.32782585  0.16997617  0.14216011  1
  In  In7  1  0.34399072  0.17624118  0.62173242  1
  In  In8  1  0.34358122  0.49447974  0.13175387  1
  In  In9  1  0.32355721  0.49965670  0.63438690  1
  In  In10  1  0.32488556  0.84236187  0.13504792  1
  In  In11  1  0.32401331  0.82077408  0.61578292  1
  In  In12  1  0.66756750  0.15553072  0.12556920  1
  In  In13  1  0.66512815  0.16086017  0.62636204  1
  In  In14  1  0.66612072  0.51234437  0.12244451  1
  In  In15  1  0.65902087  0.50365408  0.63398794  1
  In  In16  1  0.66642797  0.83740941  0.13483477  1
  In  In17  1  0.66363168  0.83463026  0.62199385  1
  In  In18  1  0.17315027  -0.00225654  0.37997274  1
  In  In19  1  0.16523668  -0.00340706  0.87535910  1
  In  In20  1  0.18461980  0.32193442  0.39678456  1
  In  In21  1  0.18052030  0.36143405  0.84355194  1
  In  In22  1  0.17126911  0.66217581  0.37873263  1
  In  In23  1  0.17817092  0.66983475  0.87005355  1
  In  In24  1  0.49890605  -0.00023335  0.37763515  1
  In  In25  1  0.50186244  -0.00913194  0.86823604  1
  In  In26  1  0.48209784  0.33328194  0.37801181  1
  In  In27  1  0.50684150  0.33677701  0.87051472  1
  In  In28  1  0.50963584  0.67708542  0.36803313  1
  In  In29  1  0.48456923  0.65517565  0.86524772  1
  In  In30  1  0.82764312  0.00036673  0.37752867  1
  In  In31  1  0.83593606  0.01367704  0.87214631  1
  In  In32  1  0.83267862  0.32335158  0.38470832  1
  In  In33  1  0.82804345  0.32651093  0.86424226  1
  In  In34  1  0.84277222  0.68122206  0.37217450  1
  In  In35  1  0.83063236  0.67827355  0.86991956  1
  In  In36  1  0.01019792  0.16602382  0.39040695  1
  In  In37  1  -0.00690335  0.16667886  0.87199916  1
  In  In38  1  0.00663324  0.51979601  0.38061339  1
  In  In39  1  0.02257069  0.49614226  0.86471823  1
  In  In40  1  0.01928664  0.80568944  0.39921677  1
  In  In41  1  0.00312318  0.83764392  0.87634819  1
  In  In42  1  0.33301696  0.16839465  0.37790447  1
  In  In43  1  0.33287049  0.17271574  0.86956358  1
  In  In44  1  0.32544780  0.49007509  0.36934108  1
  In  In45  1  0.33653296  0.50422837  0.87634760  1
  In  In46  1  0.33613717  0.83532161  0.37611556  1
  In  In47  1  0.33443488  0.82684038  0.87334055  1
  In  In48  1  0.67591797  0.15098313  0.38243691  1
  In  In49  1  0.67378632  0.17925136  0.85982532  1
  In  In50  1  0.65359819  0.50379786  0.37533080  1
  In  In51  1  0.65415870  0.48888524  0.86532642  1
  In  In52  1  0.66447086  0.83673817  0.37680691  1
  In  In53  1  0.66322904  0.83325000  0.86205269  1
  In  In54  1  0.18350638  -0.00053048  0.13302931  1
  In  In55  1  0.16054889  -0.00575555  0.61262460  1
  In  In56  1  0.17278041  0.33966147  0.12674437  1
  In  In57  1  0.16870971  0.33294143  0.62280272  1
  In  In58  1  0.16123937  0.67262915  0.13425167  1
  In  In59  1  0.17803703  0.67289680  0.61679434  1
  In  In60  1  0.50131020  0.00199085  0.13590252  1
  In  In61  1  0.51162550  0.00996062  0.61830692  1
  In  In62  1  0.48423472  0.33516858  0.11907368  1
  In  In63  1  0.50762013  0.31377747  0.64336151  1
  In  In64  1  0.50558747  0.66141870  0.12896308  1
  In  In65  1  0.48700881  0.66990298  0.62781979  1
  In  In66  1  0.82481422  0.00405861  0.12866008  1
  In  In67  1  0.82581323  -0.00546866  0.61762691  1
  In  In68  1  0.84875342  0.32774679  0.11880613  1
  In  In69  1  0.84145631  0.32082806  0.62721895  1
  In  In70  1  0.82733060  0.67520724  0.13629039  1
  In  In71  1  0.82239788  0.66358596  0.62120418  1
  In  In72  1  0.16216863  0.17367046  0.00139618  1
  In  In73  1  0.83539242  0.50015638  0.50394311  1
  In  In74  1  0.00210348  0.65986097  0.74001472  1
  In  In75  1  0.17213653  0.49907317  -0.00602064  1
  In  In76  1  0.82995938  0.83626804  0.01104512  1
  In  In77  1  0.49960534  0.83106415  0.00431612  1
  In  In78  1  0.01010730  0.34021858  0.25334066  1
  In  In79  1  0.66464136  0.33450197  0.25210187  1
  In  In80  1  0.50365733  0.16632456  -0.00457019  1
  In  In81  1  -0.00437880  -0.00263853  0.73096839  1
  In  In82  1  0.33721042  -0.00000115  0.74597020  1
  In  In83  1  0.49050109  0.49955776  0.50542242  1
  In  In84  1  0.00179428  -0.00092706  0.26960309  1
  In  In85  1  0.83107961  0.49877827  -0.00389253  1
  Cu  Cu86  1  0.83070700  0.50144038  0.74514952  1
  Cu  Cu87  1  0.83565938  0.16421641  0.25566169  1
  Cu  Cu88  1  -0.00889766  0.00205684  0.49700093  1
  Cu  Cu89  1  0.33435229  -0.00055020  0.49981001  1
  Cu  Cu90  1  0.16647907  0.83165066  0.26131362  1
  Cu  Cu91  1  0.00734341  -0.00237238  -0.00268137  1
  Cu  Cu92  1  0.66150742  -0.00139735  0.50057334  1
  Cu  Cu93  1  0.66250864  0.32676594  0.50936581  1
  Cu  Cu94  1  0.33059203  0.00165051  0.01067336  1
  Cu  Cu95  1  0.83004570  0.50823215  0.25446206  1
  Cu  Cu96  1  0.49842308  0.83623610  0.25477085  1
  Cu  Cu97  1  0.50145113  0.16538411  0.25591904  1
  Cu  Cu98  1  0.33695688  0.66642408  0.49713200  1
  Cu  Cu99  1  0.83141389  0.16429653  0.74323306  1
  Cu  Cu100  1  0.00154262  0.66756181  0.01044868  1
  Cu  Cu101  1  0.66793198  0.67554326  0.49681907  1
  Cu  Cu102  1  0.65332545  0.65912619  -0.00365062  1
  Cu  Cu103  1  0.16873355  0.50723072  0.25311233  1
  Cu  Cu104  1  -0.00157418  0.32533351  -0.01158464  1
  Cu  Cu105  1  0.49659353  0.50092205  0.74940316  1
  Cu  Cu106  1  0.50032686  0.83214687  0.74269118  1
  Cu  Cu107  1  0.15911448  0.16392355  0.73911535  1
  Cu  Cu108  1  0.33460164  0.33060963  0.50634445  1
  Cu  Cu109  1  0.67557264  0.00655748  -0.00169460  1
  Cu  Cu110  1  0.82722191  0.83533230  0.74266695  1
  Cu  Cu111  1  0.83314073  0.83449841  0.25789844  1
  Cu  Cu112  1  0.66915038  0.32928669  -0.01097286  1
  Cu  Cu113  1  0.49678169  0.50603691  0.25134396  1
  Cu  Cu114  1  0.32890820  0.66683176  -0.00145973  1
  Se  Se115  1  0.08136447  0.07655563  0.06406971  1
  Se  Se116  1  0.08261864  0.08273294  0.54568530  1
  Se  Se117  1  0.07440567  0.40594858  0.05251768  1
  Se  Se118  1  0.08402800  0.40445621  0.54753322  1
  Se  Se119  1  0.08696037  0.75293759  0.05785599  1
  Se  Se120  1  0.08771371  0.74089167  0.54512883  1
  Se  Se121  1  0.41384129  0.08401170  0.06419673  1
  Se  Se122  1  0.41621518  0.08375731  0.55365933  1
  Se  Se123  1  0.41126577  0.42192016  0.05086459  1
  Se  Se124  1  0.41597634  0.40561873  0.57066387  1
  Se  Se125  1  0.40652816  0.74523706  0.06338860  1
  Se  Se126  1  0.42121532  0.74997294  0.54883306  1
  Se  Se127  1  0.75748577  0.08871688  0.05245573  1
  Se  Se128  1  0.74605576  0.08383512  0.55181076  1
  Se  Se129  1  0.74359349  0.40638441  0.05836505  1
  Se  Se130  1  0.73981154  0.41469364  0.56373702  1
  Se  Se131  1  0.73263348  0.73924958  0.05817757  1
  Se  Se132  1  0.75169752  0.75498412  0.55240312  1
  Se  Se133  1  0.26095599  0.25517430  0.06025421  1
  Se  Se134  1  0.24819457  0.24364347  0.55393820  1
  Se  Se135  1  0.25065269  0.58818378  0.06250714  1
  Se  Se136  1  0.26013165  0.58014150  0.55362694  1
  Se  Se137  1  0.24651857  0.91342712  0.05631553  1
  Se  Se138  1  0.24886954  0.91221835  0.54831249  1
  Se  Se139  1  0.59283548  0.25655435  0.05936378  1
  Se  Se140  1  0.57619151  0.24487288  0.55983216  1
  Se  Se141  1  0.57311991  0.57735153  0.05147850  1
  Se  Se142  1  0.58889358  0.59160035  0.55632765  1
  Se  Se143  1  0.59271968  0.92800973  0.05844228  1
  Se  Se144  1  0.57847323  0.91238451  0.55113394  1
  Se  Se145  1  0.91714882  0.24330339  0.04408263  1
  Se  Se146  1  0.90267172  0.25134234  0.54264088  1
  Se  Se147  1  0.91623604  0.58778234  0.06453850  1
  Se  Se148  1  0.92671932  0.59088625  0.56076921  1
  Se  Se149  1  0.92752742  0.92555516  0.06496553  1
  Se  Se150  1  0.91505316  0.91449612  0.55159323  1
  Se  Se151  1  0.07406685  0.26544874  0.45518386  1
  Se  Se152  1  0.08821636  0.25861812  0.92802011  1
  Se  Se153  1  0.08551249  0.59343457  0.45417126  1
  Se  Se154  1  0.07575877  0.59338596  0.94198092  1
  Se  Se155  1  0.08290327  0.92143009  0.44815300  1
  Se  Se156  1  0.08861061  0.91265326  0.94692252  1
  Se  Se157  1  0.41693724  0.24721732  0.45205803  1
  Se  Se158  1  0.41082470  0.25706926  0.94160013  1
  Se  Se159  1  0.41592867  0.58732672  0.43398165  1
  Se  Se160  1  0.41592717  0.58535039  0.94808758  1
  Se  Se161  1  0.41847929  0.91555408  0.44730963  1
  Se  Se162  1  0.40945240  0.92567064  0.94537461  1
  Se  Se163  1  0.74417031  0.24718646  0.45094572  1
  Se  Se164  1  0.75376842  0.24535286  0.93960660  1
  Se  Se165  1  0.74422269  0.58696700  0.44017454  1
  Se  Se166  1  0.74228602  0.58950238  0.93578803  1
  Se  Se167  1  0.74777938  0.91687232  0.44745459  1
  Se  Se168  1  0.74701392  0.91779392  0.93828304  1
  Se  Se169  1  0.25056369  0.08557336  0.44838681  1
  Se  Se170  1  0.25678303  0.07985388  0.94396944  1
  Se  Se171  1  0.25893834  0.42432703  0.45518573  1
  Se  Se172  1  0.25420000  0.40059073  0.93794449  1
  Se  Se173  1  0.25369243  0.75131061  0.44472089  1
  Se  Se174  1  0.24927308  0.75243074  0.94547154  1
  Se  Se175  1  0.57842299  0.08482819  0.44890363  1
  Se  Se176  1  0.59217871  0.07688264  0.93454048  1
  Se  Se177  1  0.58567251  0.40750973  0.44657814  1
  Se  Se178  1  0.58265029  0.41722372  0.94596217  1
  Se  Se179  1  0.57882955  0.75485472  0.44621533  1
  Se  Se180  1  0.58243427  0.74607339  0.93523293  1
  Se  Se181  1  0.90893711  0.08720243  0.44520153  1
  Se  Se182  1  0.92265920  0.08074589  0.94599174  1
  Se  Se183  1  0.92401159  0.41567700  0.43959365  1
  Se  Se184  1  0.92429997  0.41664928  0.93271892  1
  Se  Se185  1  0.90563146  0.75105541  0.45565939  1
  Se  Se186  1  0.92041715  0.74612687  0.94850984  1
  Se  Se187  1  0.25632763  0.26274763  0.31303991  1
  Se  Se188  1  0.24165710  0.23995817  0.79942289  1
  Se  Se189  1  0.25581220  0.58835964  0.30463639  1
  Se  Se190  1  0.22640146  0.55623851  0.81261343  1
  Se  Se191  1  0.25174679  0.91896323  0.30677347  1
  Se  Se192  1  0.24388003  0.91035424  0.80467643  1
  Se  Se193  1  0.58132998  0.24576575  0.31676321  1
  Se  Se194  1  0.57631218  0.24957324  0.79909874  1
  Se  Se195  1  0.58652826  0.58632623  0.29969001  1
  Se  Se196  1  0.58331380  0.58648016  0.80067643  1
  Se  Se197  1  0.58354884  0.92011940  0.30623699  1
  Se  Se198  1  0.58297522  0.91813983  0.79417815  1
  Se  Se199  1  0.91871386  0.24510626  0.31089038  1
  Se  Se200  1  0.91648385  0.24548491  0.79818473  1
  Se  Se201  1  0.91757950  0.58648131  0.30705550  1
  Se  Se202  1  0.91145888  0.57745096  0.80948665  1
  Se  Se203  1  0.91833315  0.90012725  0.32371210  1
  Se  Se204  1  0.91083547  0.91177434  0.80389340  1
  Se  Se205  1  0.09595566  0.09868017  0.31290772  1
  Se  Se206  1  0.08400381  0.08087768  0.80182628  1
  Se  Se207  1  0.09485628  0.42610938  0.31763545  1
  Se  Se208  1  0.06288305  0.40318626  0.78700225  1
  Se  Se209  1  0.08278760  0.74539131  0.31053082  1
  Se  Se210  1  0.08425604  0.75406175  0.80534232  1
  Se  Se211  1  0.41601134  0.08417076  0.30880731  1
  Se  Se212  1  0.42657488  0.09118119  0.80568810  1
  Se  Se213  1  0.41700328  0.41576732  0.30076842  1
  Se  Se214  1  0.41641142  0.41971912  0.80737542  1
  Se  Se215  1  0.41397670  0.75063211  0.30376222  1
  Se  Se216  1  0.41517233  0.75300463  0.79971315  1
  Se  Se217  1  0.74920401  0.07917887  0.30235214  1
  Se  Se218  1  0.75050836  0.08044107  0.79851739  1
  Se  Se219  1  0.75775738  0.42195207  0.31431473  1
  Se  Se220  1  0.74912296  0.41676849  0.79987400  1
  Se  Se221  1  0.74488015  0.74992686  0.30667548  1
  Se  Se222  1  0.74754820  0.74848142  0.79627806  1
  Se  Se223  1  0.25176180  0.08089929  0.20669626  1
  Se  Se224  1  0.24169525  0.08234352  0.68372409  1
  Se  Se225  1  0.24834201  0.42108672  0.19791940  1
  Se  Se226  1  0.25665089  0.39894198  0.69735834  1
  Se  Se227  1  0.24821283  0.75178403  0.20174323  1
  Se  Se228  1  0.25759791  0.74192096  0.69431286  1
  Se  Se229  1  0.58789557  0.08512780  0.20136343  1
  Se  Se230  1  0.58288641  0.08133941  0.69740433  1
  Se  Se231  1  0.57722748  0.42361843  0.18960219  1
  Se  Se232  1  0.58322717  0.41546171  0.70174054  1
  Se  Se233  1  0.57974251  0.75330549  0.19687441  1
  Se  Se234  1  0.58321777  0.74656670  0.69058976  1
  Se  Se235  1  0.92029352  0.08722827  0.19535238  1
  Se  Se236  1  0.91280234  0.09567876  0.67615690  1
  Se  Se237  1  0.90879909  0.42604825  0.19360650  1
  Se  Se238  1  0.91284918  0.42078650  0.68957466  1
  Se  Se239  1  0.91634387  0.75043238  0.20394218  1
  Se  Se240  1  0.91261844  0.75817975  0.68537494  1
  Se  Se241  1  0.09561738  0.24310003  0.19434557  1
  Se  Se242  1  0.07677062  0.24874831  0.68810478  1
  Se  Se243  1  0.07876875  0.58647854  0.20214443  1
  Se  Se244  1  0.09545918  0.57413900  0.68341917  1
  Se  Se245  1  0.08669178  0.91353045  0.19905211  1
  Se  Se246  1  0.09360280  0.90077300  0.68827446  1
  Se  Se247  1  0.42521764  0.25180920  0.19879490  1
  Se  Se248  1  0.40228645  0.25149473  0.70482432  1
  Se  Se249  1  0.41346981  0.59009170  0.19822954  1
  Se  Se250  1  0.41132785  0.58438716  0.69837331  1
  Se  Se251  1  0.41539726  0.92030506  0.20059296  1
  Se  Se252  1  0.41989857  0.91068277  0.68115724  1
  Se  Se253  1  0.76168083  0.24753090  0.19219650  1
  Se  Se254  1  0.74633861  0.25093686  0.69386610  1
  Se  Se255  1  0.74438144  0.58521429  0.19851801  1
  Se  Se256  1  0.74677244  0.58861047  0.69774424  1
  Se  Se257  1  0.75357752  0.91861312  0.20087198  1
  Se  Se258  1  0.74432893  0.92070936  0.69226291  1
