# generated using pymatgen
data_In86Cu29Se144
_symmetry_space_group_name_H-M   'P 1'
_cell_length_a   17.58146821
_cell_length_b   17.58108426
_cell_length_c   23.44517759
_cell_angle_alpha   89.96222435
_cell_angle_beta   90.01634140
_cell_angle_gamma   89.98936366
_symmetry_Int_Tables_number   1
_chemical_formula_structural   In86Cu29Se144
_chemical_formula_sum   'In86 Cu29 Se144'
_cell_volume   7246.93226867
_cell_formula_units_Z   1
loop_
 _symmetry_equiv_pos_site_id
 _symmetry_equiv_pos_as_xyz
  1  'x, y, z'
loop_
 _atom_site_type_symbol
 _atom_site_label
 _atom_site_symmetry_multiplicity
 _atom_site_fract_x
 _atom_site_fract_y
 _atom_site_fract_z
 _atom_site_occupancy
  In  In0  1  0.00012688  0.14760965  0.12810498  1
  In  In1  1  0.01170086  0.17318842  0.61354874  1
  In  In2  1  0.01435183  0.51182672  0.11571619  1
  In  In3  1  0.00340590  0.48482827  0.63102296  1
  In  In4  1  -0.00576763  0.82685571  0.12565662  1
  In  In5  1  -0.00310460  0.84442400  0.62572624  1
  In  In6  1  0.32750195  0.18027778  0.12861057  1
  In  In7  1  0.34198663  0.18051758  0.62247246  1
  In  In8  1  0.32917039  0.50258768  0.12378797  1
  In  In9  1  0.32424285  0.50329604  0.63291466  1
  In  In10  1  0.31649942  0.82492101  0.12203802  1
  In  In11  1  0.33857638  0.81784806  0.63076580  1
  In  In12  1  0.68885714  0.17537910  0.12967533  1
  In  In13  1  0.65997312  0.15683218  0.62092181  1
  In  In14  1  0.65839754  0.49602819  0.11216626  1
  In  In15  1  0.67853163  0.50429157  0.63265619  1
  In  In16  1  0.68064789  0.81953796  0.11953087  1
  In  In17  1  0.66891545  0.83610372  0.62579976  1
  In  In18  1  0.16034638  0.01187002  0.37336502  1
  In  In19  1  0.16199816  0.00331692  0.89124282  1
  In  In20  1  0.17772417  0.32405772  0.37891925  1
  In  In21  1  0.16196740  0.34144624  0.87006343  1
  In  In22  1  0.16013393  0.66057129  0.36882646  1
  In  In23  1  0.20313163  0.64093730  0.90487253  1
  In  In24  1  0.50243204  -0.00308196  0.38499361  1
  In  In25  1  0.51040201  -0.00694756  0.86940885  1
  In  In26  1  0.48749796  0.32712601  0.37251523  1
  In  In27  1  0.50685237  0.35098155  0.87326793  1
  In  In28  1  0.49987261  0.67885557  0.37460568  1
  In  In29  1  0.48616869  0.65653334  0.86492473  1
  In  In30  1  0.83915753  -0.00454674  0.37845770  1
  In  In31  1  0.82711903  0.00817611  0.87256507  1
  In  In32  1  0.82110931  0.33426785  0.37147087  1
  In  In33  1  0.84290877  0.33243124  0.87012177  1
  In  In34  1  0.84411425  0.66791557  0.37357158  1
  In  In35  1  0.82010821  0.67352996  0.88769943  1
  In  In36  1  0.00616640  0.16076837  0.37616229  1
  In  In37  1  -0.00597734  0.18002160  0.87290131  1
  In  In38  1  0.00231596  0.51613617  0.37087790  1
  In  In39  1  0.00794305  0.49033951  0.88057904  1
  In  In40  1  -0.01131671  0.82631703  0.36722278  1
  In  In41  1  0.00857698  0.83340742  0.89033922  1
  In  In42  1  0.32831932  0.17085647  0.38162098  1
  In  In43  1  0.31849051  0.17022555  0.87075796  1
  In  In44  1  0.32391851  0.49026018  0.36891846  1
  In  In45  1  0.33332822  0.50139327  0.87249059  1
  In  In46  1  0.33980809  0.83179675  0.37302973  1
  In  In47  1  0.33351354  0.81315597  0.87796221  1
  In  In48  1  0.65888363  0.17248383  0.38370074  1
  In  In49  1  0.68389359  0.16090534  0.86151359  1
  In  In50  1  0.67991151  0.49863111  0.37103105  1
  In  In51  1  0.64647207  0.51794793  0.89280483  1
  In  In52  1  0.66446371  0.83826421  0.38160357  1
  In  In53  1  0.67344195  0.84034832  0.86774861  1
  In  In54  1  0.13868776  -0.02005062  0.10492577  1
  In  In55  1  0.15446623  0.00487760  0.62572576  1
  In  In56  1  0.17612075  0.34620521  0.11720978  1
  In  In57  1  0.16910303  0.33527904  0.62478061  1
  In  In58  1  0.16734140  0.66049645  0.12618574  1
  In  In59  1  0.18135984  0.66022978  0.63346092  1
  In  In60  1  0.50168108  -0.00500530  0.12732545  1
  In  In61  1  0.51619781  0.01668771  0.61886138  1
  In  In62  1  0.48811530  0.34124944  0.13255349  1
  In  In63  1  0.49268090  0.31133264  0.62938528  1
  In  In64  1  0.49746200  0.64603901  0.11504017  1
  In  In65  1  0.49530739  0.67446879  0.62948775  1
  In  In66  1  0.86526713  0.00084932  0.12435921  1
  In  In67  1  0.82719493  -0.00582543  0.61717922  1
  In  In68  1  0.81946518  0.32627986  0.12883331  1
  In  In69  1  0.84809249  0.33313283  0.62505262  1
  In  In70  1  0.83716080  0.67766219  0.10916178  1
  In  In71  1  0.82210723  0.66593664  0.62902127  1
  In  In72  1  0.00184300  0.33582636  0.24765944  1
  In  In73  1  0.49825044  0.49842139  0.50091428  1
  In  In74  1  -0.00712701  0.00607875  0.75133004  1
  In  In75  1  0.16776178  0.83505927  0.50617046  1
  In  In76  1  0.66661568  0.33579292  0.74946283  1
  In  In77  1  0.66659262  0.00123760  0.25556130  1
  In  In78  1  0.32216238  0.00853625  0.25599290  1
  In  In79  1  0.66340324  0.66188865  0.24340393  1
  In  In80  1  0.01084422  0.66203290  0.76064234  1
  In  In81  1  0.83983932  0.16760935  -0.00247178  1
  In  In82  1  0.49961439  0.17248228  -0.00349748  1
  In  In83  1  0.84093070  0.50083856  0.50011074  1
  In  In84  1  0.33898181  0.00318022  0.75071005  1
  In  In85  1  0.49699336  0.82509234  -0.00136654  1
  Cu  Cu86  1  0.33537218  -0.00045835  0.49991240  1
  Cu  Cu87  1  0.50537987  0.17478817  0.25376190  1
  Cu  Cu88  1  0.66365974  0.32731078  0.50003536  1
  Cu  Cu89  1  0.83356861  0.82984322  0.75163190  1
  Cu  Cu90  1  0.33328528  0.00449866  -0.00088675  1
  Cu  Cu91  1  0.33278910  0.34220609  0.00065879  1
  Cu  Cu92  1  0.33311056  0.66392062  0.50537904  1
  Cu  Cu93  1  0.66435098  0.67821091  0.50422423  1
  Cu  Cu94  1  0.49799812  0.49504270  0.24321903  1
  Cu  Cu95  1  0.83407346  0.83376836  0.24702453  1
  Cu  Cu96  1  0.67036734  -0.00010443  0.50047689  1
  Cu  Cu97  1  0.16626441  0.16495366  0.24855031  1
  Cu  Cu98  1  0.33015121  0.33040803  0.50012193  1
  Cu  Cu99  1  0.67479318  -0.00466025  -0.00465268  1
  Cu  Cu100  1  -0.00275198  0.00027459  0.49958493  1
  Cu  Cu101  1  0.15488717  0.83017276  0.24293800  1
  Cu  Cu102  1  0.48682702  0.82410262  0.24671020  1
  Cu  Cu103  1  0.00447318  0.33111013  -0.00237641  1
  Cu  Cu104  1  0.51014702  0.83434870  0.74885637  1
  Cu  Cu105  1  0.00082640  0.66611066  0.00147668  1
  Cu  Cu106  1  0.17303784  0.82956577  0.76251771  1
  Cu  Cu107  1  0.16212587  0.17750701  0.74739675  1
  Cu  Cu108  1  0.17144860  0.50016757  0.24444828  1
  Cu  Cu109  1  0.00741257  0.33249734  0.49829935  1
  Cu  Cu110  1  0.83568945  0.50184543  0.24492338  1
  Cu  Cu111  1  0.66340769  0.33636784  0.00203651  1
  Cu  Cu112  1  0.83040606  0.50266771  0.75784427  1
  Cu  Cu113  1  0.00289188  0.67011703  0.49684036  1
  Cu  Cu114  1  0.49625491  0.50519230  0.75002350  1
  Se  Se115  1  0.08754518  0.09609784  0.05020966  1
  Se  Se116  1  0.08826484  0.08160662  0.54636680  1
  Se  Se117  1  0.08698693  0.41898814  0.04803813  1
  Se  Se118  1  0.08474387  0.41826233  0.55389352  1
  Se  Se119  1  0.08307143  0.74638551  0.05944862  1
  Se  Se120  1  0.08003485  0.74184227  0.56661070  1
  Se  Se121  1  0.41429171  0.08019813  0.06104530  1
  Se  Se122  1  0.41378396  0.08448035  0.55636457  1
  Se  Se123  1  0.41825021  0.42064992  0.05580937  1
  Se  Se124  1  0.41152436  0.40845822  0.56206020  1
  Se  Se125  1  0.40324093  0.73735744  0.05552902  1
  Se  Se126  1  0.41849381  0.74996360  0.55228617  1
  Se  Se127  1  0.75035084  0.07515996  0.05932663  1
  Se  Se128  1  0.75249144  0.08724904  0.55086509  1
  Se  Se129  1  0.75461436  0.41238491  0.05360050  1
  Se  Se130  1  0.74445680  0.41115745  0.55746285  1
  Se  Se131  1  0.73857890  0.73980421  0.04057080  1
  Se  Se132  1  0.75526114  0.75391673  0.55617315  1
  Se  Se133  1  0.25247324  0.25275775  0.05085588  1
  Se  Se134  1  0.24607367  0.24705576  0.55392246  1
  Se  Se135  1  0.23742663  0.57204580  0.05464599  1
  Se  Se136  1  0.24875149  0.58014228  0.55523416  1
  Se  Se137  1  0.25299844  0.91838235  0.05173821  1
  Se  Se138  1  0.25952881  0.92310892  0.56714321  1
  Se  Se139  1  0.58882151  0.25269127  0.06434350  1
  Se  Se140  1  0.57942761  0.24699607  0.55397763  1
  Se  Se141  1  0.60066812  0.60002525  0.04694531  1
  Se  Se142  1  0.59237324  0.58676355  0.56056221  1
  Se  Se143  1  0.59115077  0.92069575  0.05608965  1
  Se  Se144  1  0.58557540  0.91747676  0.55500992  1
  Se  Se145  1  0.92535974  0.25627583  0.06308881  1
  Se  Se146  1  0.91828196  0.25270319  0.54882980  1
  Se  Se147  1  0.91540111  0.57898143  0.05014403  1
  Se  Se148  1  0.92641420  0.59079039  0.56378341  1
  Se  Se149  1  0.90723297  0.90133746  0.05336589  1
  Se  Se150  1  0.91603182  0.91258579  0.55003757  1
  Se  Se151  1  0.08748894  0.24572082  0.44411911  1
  Se  Se152  1  0.08580709  0.25112942  0.94084747  1
  Se  Se153  1  0.08540231  0.58417667  0.44702183  1
  Se  Se154  1  0.08241066  0.58008590  0.94956488  1
  Se  Se155  1  0.07772518  0.91649743  0.43958513  1
  Se  Se156  1  0.07946614  0.92435757  0.95885966  1
  Se  Se157  1  0.41793532  0.24740602  0.44985604  1
  Se  Se158  1  0.40975679  0.26151818  0.93686518  1
  Se  Se159  1  0.41030716  0.58761378  0.43894942  1
  Se  Se160  1  0.41091110  0.58813631  0.94255767  1
  Se  Se161  1  0.41373032  0.91206862  0.44719561  1
  Se  Se162  1  0.41195653  0.92462216  0.93865461  1
  Se  Se163  1  0.75410917  0.25104870  0.44760599  1
  Se  Se164  1  0.74057958  0.25464281  0.94050830  1
  Se  Se165  1  0.74410084  0.59503228  0.44468159  1
  Se  Se166  1  0.76349637  0.56362117  0.94763034  1
  Se  Se167  1  0.75322986  0.91541816  0.44709045  1
  Se  Se168  1  0.75717342  0.91505907  0.94120407  1
  Se  Se169  1  0.24948300  0.07849240  0.44568597  1
  Se  Se170  1  0.25149332  0.09240505  0.94983106  1
  Se  Se171  1  0.24928186  0.41744941  0.44745456  1
  Se  Se172  1  0.24868795  0.41763000  0.94122308  1
  Se  Se173  1  0.25254818  0.74434555  0.44276341  1
  Se  Se174  1  0.23661562  0.76910906  0.95204621  1
  Se  Se175  1  0.58153207  0.08354584  0.45118332  1
  Se  Se176  1  0.59512681  0.08091463  0.94009195  1
  Se  Se177  1  0.59154295  0.41359514  0.43890543  1
  Se  Se178  1  0.57336914  0.42002351  0.95660510  1
  Se  Se179  1  0.57900084  0.75510235  0.44801496  1
  Se  Se180  1  0.58085172  0.74846804  0.92780566  1
  Se  Se181  1  0.91681566  0.08540620  0.44540937  1
  Se  Se182  1  0.92900884  0.07463062  0.94072079  1
  Se  Se183  1  0.92704576  0.41201743  0.43573092  1
  Se  Se184  1  0.91581572  0.41046795  0.94618415  1
  Se  Se185  1  0.91577815  0.75160010  0.44711942  1
  Se  Se186  1  0.91622918  0.74994937  0.95015038  1
  Se  Se187  1  0.25186340  0.24402354  0.30327158  1
  Se  Se188  1  0.24760145  0.25802947  0.80034531  1
  Se  Se189  1  0.25121116  0.58397410  0.30239629  1
  Se  Se190  1  0.24891616  0.59042756  0.80898589  1
  Se  Se191  1  0.23418949  0.90636220  0.30947797  1
  Se  Se192  1  0.24860513  0.92019350  0.81729580  1
  Se  Se193  1  0.58701567  0.25640981  0.30893300  1
  Se  Se194  1  0.57818759  0.24518118  0.81082658  1
  Se  Se195  1  0.57456113  0.57398783  0.30910185  1
  Se  Se196  1  0.58617360  0.58159168  0.80334486  1
  Se  Se197  1  0.56872027  0.90497213  0.30562842  1
  Se  Se198  1  0.59338282  0.92258416  0.79584506  1
  Se  Se199  1  0.91560353  0.24842733  0.31065225  1
  Se  Se200  1  0.89592935  0.23144691  0.80155039  1
  Se  Se201  1  0.91558334  0.58714719  0.29832076  1
  Se  Se202  1  0.91121362  0.58148284  0.81836295  1
  Se  Se203  1  0.91467012  0.91948650  0.30063201  1
  Se  Se204  1  0.91677735  0.90555078  0.81250395  1
  Se  Se205  1  0.07889546  0.08198703  0.29762389  1
  Se  Se206  1  0.09215468  0.08899299  0.80917670  1
  Se  Se207  1  0.09311809  0.42204828  0.31014977  1
  Se  Se208  1  0.06585980  0.40738569  0.80126829  1
  Se  Se209  1  0.07714573  0.74587681  0.30228918  1
  Se  Se210  1  0.09598128  0.75035980  0.82331186  1
  Se  Se211  1  0.42684805  0.08813479  0.31167117  1
  Se  Se212  1  0.42542485  0.09275966  0.81294780  1
  Se  Se213  1  0.41574367  0.41555136  0.30220082  1
  Se  Se214  1  0.41695263  0.41823024  0.80222679  1
  Se  Se215  1  0.40727968  0.74073491  0.30124897  1
  Se  Se216  1  0.41841452  0.75587204  0.79852534  1
  Se  Se217  1  0.75225370  0.09030326  0.31596377  1
  Se  Se218  1  0.75941529  0.07873487  0.79169413  1
  Se  Se219  1  0.75128126  0.41889293  0.29624340  1
  Se  Se220  1  0.74520845  0.42562821  0.81690427  1
  Se  Se221  1  0.74933415  0.75553866  0.30718842  1
  Se  Se222  1  0.75155636  0.74524372  0.80449086  1
  Se  Se223  1  0.23755470  0.08172182  0.18271601  1
  Se  Se224  1  0.24196471  0.08952212  0.69154545  1
  Se  Se225  1  0.25515159  0.41333616  0.19608668  1
  Se  Se226  1  0.25922334  0.40367773  0.69617751  1
  Se  Se227  1  0.24562024  0.74715302  0.19839505  1
  Se  Se228  1  0.25257486  0.74885201  0.70440895  1
  Se  Se229  1  0.57889904  0.09311412  0.19108023  1
  Se  Se230  1  0.58143967  0.08987414  0.69966608  1
  Se  Se231  1  0.58816500  0.41842976  0.19131901  1
  Se  Se232  1  0.57291284  0.42356124  0.68678241  1
  Se  Se233  1  0.57250326  0.75473655  0.18423866  1
  Se  Se234  1  0.59008178  0.74776959  0.69466175  1
  Se  Se235  1  0.89560697  0.10298459  0.19795453  1
  Se  Se236  1  0.91674725  0.08804818  0.67893807  1
  Se  Se237  1  0.91663893  0.42459468  0.18306191  1
  Se  Se238  1  0.91033559  0.41971883  0.70193598  1
  Se  Se239  1  0.90865370  0.74312401  0.19339687  1
  Se  Se240  1  0.91937470  0.75112803  0.69476823  1
  Se  Se241  1  0.09165110  0.24845845  0.18544893  1
  Se  Se242  1  0.07691991  0.25495816  0.69163877  1
  Se  Se243  1  0.08109505  0.58301196  0.19849438  1
  Se  Se244  1  0.09368176  0.57019441  0.69729619  1
  Se  Se245  1  0.07441203  0.91841663  0.19271216  1
  Se  Se246  1  0.09242315  0.90800034  0.70118580  1
  Se  Se247  1  0.41459688  0.25000342  0.20084039  1
  Se  Se248  1  0.41099137  0.24647667  0.70577067  1
  Se  Se249  1  0.41626076  0.58288755  0.19388428  1
  Se  Se250  1  0.41346596  0.58823640  0.69525146  1
  Se  Se251  1  0.41036214  0.91415731  0.19288316  1
  Se  Se252  1  0.42700077  0.91434277  0.68806827  1
  Se  Se253  1  0.74986050  0.25385825  0.20903791  1
  Se  Se254  1  0.75161685  0.24936766  0.68463898  1
  Se  Se255  1  0.75552351  0.57943784  0.18187013  1
  Se  Se256  1  0.74888669  0.58851822  0.70585426  1
  Se  Se257  1  0.75306390  0.91528778  0.18802726  1
  Se  Se258  1  0.75656753  0.91531560  0.69484044  1
