# generated using pymatgen
data_In86Cu29Se144
_symmetry_space_group_name_H-M   'P 1'
_cell_length_a   17.58129824
_cell_length_b   17.57956843
_cell_length_c   23.44385690
_cell_angle_alpha   89.96728772
_cell_angle_beta   89.99431852
_cell_angle_gamma   90.00016898
_symmetry_Int_Tables_number   1
_chemical_formula_structural   In86Cu29Se144
_chemical_formula_sum   'In86 Cu29 Se144'
_cell_volume   7245.82997435
_cell_formula_units_Z   1
loop_
 _symmetry_equiv_pos_site_id
 _symmetry_equiv_pos_as_xyz
  1  'x, y, z'
loop_
 _atom_site_type_symbol
 _atom_site_label
 _atom_site_symmetry_multiplicity
 _atom_site_fract_x
 _atom_site_fract_y
 _atom_site_fract_z
 _atom_site_occupancy
  In  In0  1  -0.00862461  0.16069220  0.12107917  1
  In  In1  1  0.01270457  0.17815713  0.61987794  1
  In  In2  1  -0.00677243  0.50859344  0.12773085  1
  In  In3  1  -0.02018500  0.47994661  0.61001040  1
  In  In4  1  0.01807229  0.83306347  0.12683227  1
  In  In5  1  -0.00739627  0.84325663  0.62342635  1
  In  In6  1  0.34212244  0.17505705  0.11868390  1
  In  In7  1  0.31864666  0.18197076  0.63496510  1
  In  In8  1  0.33159610  0.49296981  0.14098180  1
  In  In9  1  0.30900491  0.46061546  0.58963415  1
  In  In10  1  0.33493221  0.83506268  0.12510168  1
  In  In11  1  0.33972627  0.83069120  0.62939311  1
  In  In12  1  0.67143280  0.17344252  0.11419148  1
  In  In13  1  0.68392614  0.17120869  0.62586718  1
  In  In14  1  0.68219757  0.49018577  0.13928318  1
  In  In15  1  0.67038436  0.49733365  0.62678247  1
  In  In16  1  0.65520879  0.83386677  0.12240205  1
  In  In17  1  0.66443013  0.81567614  0.62656289  1
  In  In18  1  0.16576734  0.01687133  0.37259863  1
  In  In19  1  0.17426690  -0.00412524  0.88238986  1
  In  In20  1  0.17150385  0.34004383  0.38278451  1
  In  In21  1  0.15898889  0.32228511  0.86970047  1
  In  In22  1  0.17670044  0.64411803  0.38371524  1
  In  In23  1  0.17669907  0.66952229  0.87955102  1
  In  In24  1  0.49574145  -0.00075553  0.36978601  1
  In  In25  1  0.48815412  0.01595902  0.88820330  1
  In  In26  1  0.50807434  0.34106082  0.37307692  1
  In  In27  1  0.49457208  0.32625631  0.86688769  1
  In  In28  1  0.48012890  0.64217973  0.35969897  1
  In  In29  1  0.51121009  0.65907122  0.87646491  1
  In  In30  1  0.84271367  -0.00567595  0.37532588  1
  In  In31  1  0.84328463  0.00650615  0.87593372  1
  In  In32  1  0.82038617  0.34569463  0.38201251  1
  In  In33  1  0.82976581  0.33708349  0.87499756  1
  In  In34  1  0.83813390  0.66814509  0.38010908  1
  In  In35  1  0.81541620  0.66356485  0.86850299  1
  In  In36  1  0.00432903  0.16560625  0.37771448  1
  In  In37  1  -0.00900991  0.17776696  0.88568304  1
  In  In38  1  -0.00051222  0.50426317  0.38853278  1
  In  In39  1  -0.00462420  0.48280565  0.86812114  1
  In  In40  1  -0.01380533  0.82444037  0.37105147  1
  In  In41  1  0.00315772  0.84135562  0.87749955  1
  In  In42  1  0.31537903  0.17817036  0.38329007  1
  In  In43  1  0.33443057  0.16648354  0.87612381  1
  In  In44  1  0.33851558  0.50205184  0.37976311  1
  In  In45  1  0.34290173  0.49586331  0.87117685  1
  In  In46  1  0.34572356  0.82672731  0.37465284  1
  In  In47  1  0.32482315  0.84302245  0.88413650  1
  In  In48  1  0.66745684  0.18433500  0.37467177  1
  In  In49  1  0.65579593  0.17726866  0.88496816  1
  In  In50  1  0.67132643  0.49761323  0.37135124  1
  In  In51  1  0.67394936  0.50614015  0.86170837  1
  In  In52  1  0.68545762  0.82355654  0.37864937  1
  In  In53  1  0.66198258  0.82086518  0.87575443  1
  In  In54  1  0.16073993  -0.00085873  0.12543299  1
  In  In55  1  0.16387677  0.01439770  0.62776013  1
  In  In56  1  0.18149546  0.33309222  0.12686421  1
  In  In57  1  0.16424217  0.32571713  0.62321589  1
  In  In58  1  0.16536776  0.67745485  0.12901698  1
  In  In59  1  0.17606271  0.64847731  0.61441308  1
  In  In60  1  0.51397021  0.00091825  0.10828831  1
  In  In61  1  0.49409140  -0.01175348  0.63163036  1
  In  In62  1  0.50275582  0.33124111  0.12717661  1
  In  In63  1  0.49185856  0.34359036  0.62951835  1
  In  In64  1  0.49672731  0.66946454  0.13069312  1
  In  In65  1  0.50874268  0.65646997  0.62521229  1
  In  In66  1  0.82888327  0.01510026  0.12451628  1
  In  In67  1  0.83858616  0.00621962  0.61758855  1
  In  In68  1  0.82816076  0.32959982  0.12101947  1
  In  In69  1  0.83883524  0.33907850  0.62844383  1
  In  In70  1  0.83540484  0.64940948  0.12645894  1
  In  In71  1  0.81118044  0.63939988  0.60047495  1
  In  In72  1  0.16235931  0.83024907  0.49263258  1
  In  In73  1  0.50357344  0.50023806  0.00149741  1
  In  In74  1  0.83373221  0.83642926  -0.00243547  1
  In  In75  1  0.66265128  0.00411778  0.75864237  1
  In  In76  1  0.33464717  0.00442854  0.24147477  1
  In  In77  1  0.34051275  0.65672530  0.74350096  1
  In  In78  1  0.16308331  0.50039396  0.00488778  1
  In  In79  1  0.50568518  0.82485230  0.50548572  1
  In  In80  1  0.00235700  0.00645783  0.75700821  1
  In  In81  1  -0.00617517  0.65928890  0.73676691  1
  In  In82  1  0.66610015  0.00261857  0.23874650  1
  In  In83  1  0.00608377  0.66291638  0.25951701  1
  In  In84  1  -0.00229272  0.33856790  0.26021546  1
  In  In85  1  0.49800682  0.17038201  0.50030328  1
  Cu  Cu86  1  0.67409126  0.00456690  0.49794633  1
  Cu  Cu87  1  0.66738005  0.33862797  -0.00108271  1
  Cu  Cu88  1  0.17152397  0.48760936  0.74060019  1
  Cu  Cu89  1  0.50127462  0.49424133  0.74530723  1
  Cu  Cu90  1  0.66656783  0.66178256  -0.00126339  1
  Cu  Cu91  1  0.32966191  0.00393432  0.50606395  1
  Cu  Cu92  1  0.00609197  0.00250001  0.00058749  1
  Cu  Cu93  1  0.49166673  0.17943521  0.24860527  1
  Cu  Cu94  1  0.67310404  0.33741366  0.50073538  1
  Cu  Cu95  1  0.48943492  0.83268018  0.75495546  1
  Cu  Cu96  1  0.33236682  0.67851603  0.00719083  1
  Cu  Cu97  1  -0.00478416  0.00330263  0.49874760  1
  Cu  Cu98  1  0.17401241  0.16997461  0.75216903  1
  Cu  Cu99  1  0.17399224  0.83413734  0.24938844  1
  Cu  Cu100  1  -0.00257803  0.66446968  0.00293822  1
  Cu  Cu101  1  0.16926490  0.82963248  0.75780924  1
  Cu  Cu102  1  0.16130003  0.17822446  0.25532002  1
  Cu  Cu103  1  -0.00516705  0.33027403  -0.00155563  1
  Cu  Cu104  1  0.66413239  0.66248757  0.49446649  1
  Cu  Cu105  1  0.50354596  0.49896309  0.25275281  1
  Cu  Cu106  1  0.82057624  0.82762061  0.74351204  1
  Cu  Cu107  1  0.84002428  0.17997457  0.75197492  1
  Cu  Cu108  1  0.50859506  0.82843226  0.25026690  1
  Cu  Cu109  1  0.84042528  0.82880264  0.25405892  1
  Cu  Cu110  1  0.33056387  0.00181651  0.00382498  1
  Cu  Cu111  1  0.33296070  0.32851456  -0.00376354  1
  Cu  Cu112  1  0.82821036  0.17032032  0.24547378  1
  Cu  Cu113  1  -0.00077440  0.32736782  0.49937306  1
  Cu  Cu114  1  0.50038410  0.16612905  0.75575253  1
  Se  Se115  1  0.08643662  0.08734162  0.05534793  1
  Se  Se116  1  0.08266387  0.08285238  0.55178681  1
  Se  Se117  1  0.07320725  0.40747482  0.06347339  1
  Se  Se118  1  0.08472044  0.41120693  0.55208045  1
  Se  Se119  1  0.08466382  0.74684184  0.05168735  1
  Se  Se120  1  0.08238604  0.74971975  0.56502107  1
  Se  Se121  1  0.41870910  0.08564608  0.05188447  1
  Se  Se122  1  0.41292892  0.08001973  0.56532540  1
  Se  Se123  1  0.40575195  0.41446628  0.05800881  1
  Se  Se124  1  0.43442037  0.41568816  0.54461719  1
  Se  Se125  1  0.42328813  0.75489381  0.05792519  1
  Se  Se126  1  0.40862877  0.73667111  0.55955345  1
  Se  Se127  1  0.73589148  0.07033686  0.05214921  1
  Se  Se128  1  0.75467299  0.08946551  0.55067695  1
  Se  Se129  1  0.74871799  0.42070055  0.05482088  1
  Se  Se130  1  0.75649875  0.41890901  0.55614564  1
  Se  Se131  1  0.74978229  0.74121781  0.05856545  1
  Se  Se132  1  0.74393015  0.75216502  0.54723078  1
  Se  Se133  1  0.24814331  0.24882431  0.05114696  1
  Se  Se134  1  0.24826227  0.24542857  0.55316719  1
  Se  Se135  1  0.25837965  0.58738082  0.06367629  1
  Se  Se136  1  0.25160045  0.57743817  0.53850858  1
  Se  Se137  1  0.24936111  0.91864059  0.05963306  1
  Se  Se138  1  0.25022943  0.91739198  0.56196617  1
  Se  Se139  1  0.58040881  0.25669653  0.05125402  1
  Se  Se140  1  0.59192913  0.25532143  0.56036770  1
  Se  Se141  1  0.59212928  0.58402711  0.06532313  1
  Se  Se142  1  0.58806547  0.57855042  0.55324435  1
  Se  Se143  1  0.58849418  0.90906110  0.04397084  1
  Se  Se144  1  0.59442234  0.92544869  0.55972080  1
  Se  Se145  1  0.91122935  0.24654914  0.05316060  1
  Se  Se146  1  0.91448430  0.24953977  0.55728383  1
  Se  Se147  1  0.91422653  0.57713086  0.04957664  1
  Se  Se148  1  0.93256571  0.59452523  0.55059484  1
  Se  Se149  1  0.92528536  0.92063909  0.06177868  1
  Se  Se150  1  0.91273125  0.91669344  0.54876567  1
  Se  Se151  1  0.08639075  0.24994873  0.44479300  1
  Se  Se152  1  0.08755681  0.25103935  0.95065544  1
  Se  Se153  1  0.06307691  0.61121008  0.44763612  1
  Se  Se154  1  0.07561759  0.58570655  0.93742766  1
  Se  Se155  1  0.07507581  0.92560372  0.43529044  1
  Se  Se156  1  0.08616312  0.91412406  0.94934775  1
  Se  Se157  1  0.41062246  0.26267010  0.44273632  1
  Se  Se158  1  0.42115544  0.24941349  0.94428054  1
  Se  Se159  1  0.42720172  0.57998242  0.44895976  1
  Se  Se160  1  0.40594335  0.59300889  0.94549231  1
  Se  Se161  1  0.41319517  0.92506058  0.44814113  1
  Se  Se162  1  0.41527597  0.91715418  0.95120995  1
  Se  Se163  1  0.75313415  0.24768950  0.45051355  1
  Se  Se164  1  0.75202777  0.25303252  0.94732507  1
  Se  Se165  1  0.75163659  0.58076766  0.44303054  1
  Se  Se166  1  0.74662283  0.57902779  0.94306536  1
  Se  Se167  1  0.75387810  0.91845636  0.44488604  1
  Se  Se168  1  0.74526964  0.92174939  0.93454152  1
  Se  Se169  1  0.24617797  0.08355710  0.45089502  1
  Se  Se170  1  0.25109899  0.08670220  0.94780693  1
  Se  Se171  1  0.24488600  0.43107611  0.45003396  1
  Se  Se172  1  0.25340268  0.41468477  0.93984458  1
  Se  Se173  1  0.26487476  0.74345353  0.44465218  1
  Se  Se174  1  0.24469576  0.75525603  0.95240258  1
  Se  Se175  1  0.58803830  0.07708318  0.43787385  1
  Se  Se176  1  0.59156667  0.07827341  0.94937486  1
  Se  Se177  1  0.58965983  0.41774157  0.44517202  1
  Se  Se178  1  0.58641981  0.41408734  0.93489510  1
  Se  Se179  1  0.58237841  0.74072879  0.43339434  1
  Se  Se180  1  0.58021239  0.74554214  0.94990266  1
  Se  Se181  1  0.91356029  0.08722811  0.44398564  1
  Se  Se182  1  0.91656270  0.08369880  0.95170723  1
  Se  Se183  1  0.91534056  0.41492381  0.45000495  1
  Se  Se184  1  0.91513967  0.41763030  0.94642294  1
  Se  Se185  1  0.91284239  0.75651701  0.44949049  1
  Se  Se186  1  0.91905750  0.74046265  0.93618238  1
  Se  Se187  1  0.24722985  0.25889336  0.30659158  1
  Se  Se188  1  0.25804607  0.25399187  0.80502006  1
  Se  Se189  1  0.26537840  0.59209691  0.30784629  1
  Se  Se190  1  0.24116267  0.57260652  0.80518255  1
  Se  Se191  1  0.25214164  0.91613307  0.31107608  1
  Se  Se192  1  0.25024127  0.91767421  0.80628136  1
  Se  Se193  1  0.58297780  0.25351623  0.30129866  1
  Se  Se194  1  0.58921000  0.24952305  0.80240021  1
  Se  Se195  1  0.59068016  0.58416632  0.30110679  1
  Se  Se196  1  0.57948666  0.58412297  0.79737545  1
  Se  Se197  1  0.58671781  0.91079436  0.30938364  1
  Se  Se198  1  0.57020150  0.91295247  0.81451358  1
  Se  Se199  1  0.90413224  0.24464301  0.31287935  1
  Se  Se200  1  0.92385144  0.25802642  0.80836890  1
  Se  Se201  1  0.91033753  0.57097837  0.30974233  1
  Se  Se202  1  0.90883818  0.57732917  0.80570892  1
  Se  Se203  1  0.92232916  0.91935509  0.29988386  1
  Se  Se204  1  0.90484422  0.90461970  0.80311973  1
  Se  Se205  1  0.07905544  0.08706610  0.30034520  1
  Se  Se206  1  0.09179258  0.09469039  0.81660478  1
  Se  Se207  1  0.08897940  0.43124258  0.31422883  1
  Se  Se208  1  0.08714068  0.41273785  0.79985251  1
  Se  Se209  1  0.09915056  0.75525748  0.31509927  1
  Se  Se210  1  0.08247789  0.74725821  0.80839070  1
  Se  Se211  1  0.41485786  0.09753750  0.30962825  1
  Se  Se212  1  0.41582228  0.08149118  0.80559745  1
  Se  Se213  1  0.41763892  0.41802491  0.30667966  1
  Se  Se214  1  0.41455449  0.41355133  0.79846527  1
  Se  Se215  1  0.41651865  0.74965487  0.29807738  1
  Se  Se216  1  0.41347480  0.74794277  0.81535332  1
  Se  Se217  1  0.74984545  0.08720496  0.30770178  1
  Se  Se218  1  0.75942323  0.09629540  0.81032110  1
  Se  Se219  1  0.74269531  0.40603579  0.30175440  1
  Se  Se220  1  0.74420304  0.40745774  0.80164349  1
  Se  Se221  1  0.75710167  0.74356566  0.30346057  1
  Se  Se222  1  0.73744307  0.74709590  0.79790463  1
  Se  Se223  1  0.24103898  0.09953464  0.19090772  1
  Se  Se224  1  0.25262658  0.08039799  0.70060327  1
  Se  Se225  1  0.23972495  0.41722461  0.20401101  1
  Se  Se226  1  0.25738120  0.41014017  0.68594600  1
  Se  Se227  1  0.25653254  0.75137401  0.19646018  1
  Se  Se228  1  0.23948410  0.74824837  0.69157671  1
  Se  Se229  1  0.57024568  0.09607874  0.18805561  1
  Se  Se230  1  0.57865259  0.09052146  0.68915525  1
  Se  Se231  1  0.58240929  0.41360744  0.19712692  1
  Se  Se232  1  0.58907399  0.41135684  0.69584536  1
  Se  Se233  1  0.59119630  0.74578442  0.19675146  1
  Se  Se234  1  0.57063272  0.75217947  0.69744756  1
  Se  Se235  1  0.91463307  0.08469487  0.19810595  1
  Se  Se236  1  0.91489942  0.09265856  0.69256832  1
  Se  Se237  1  0.90847128  0.42030580  0.19313874  1
  Se  Se238  1  0.92008017  0.42150473  0.69835764  1
  Se  Se239  1  0.91993886  0.75051991  0.19009328  1
  Se  Se240  1  0.90270474  0.75316658  0.68277181  1
  Se  Se241  1  0.07927779  0.25087929  0.19040673  1
  Se  Se242  1  0.08511588  0.24902603  0.69974609  1
  Se  Se243  1  0.09436426  0.57523788  0.19435049  1
  Se  Se244  1  0.09014575  0.56882038  0.68390379  1
  Se  Se245  1  0.08688735  0.91807235  0.20135575  1
  Se  Se246  1  0.08989100  0.91133866  0.69651311  1
  Se  Se247  1  0.40683051  0.26033220  0.19516367  1
  Se  Se248  1  0.42080188  0.24884812  0.69705488  1
  Se  Se249  1  0.41907787  0.58224824  0.19915814  1
  Se  Se250  1  0.41614599  0.56256305  0.68049564  1
  Se  Se251  1  0.43574303  0.91743504  0.18992085  1
  Se  Se252  1  0.40703664  0.91732960  0.70362275  1
  Se  Se253  1  0.74379041  0.25046769  0.19196544  1
  Se  Se254  1  0.75222964  0.25727183  0.69846201  1
  Se  Se255  1  0.75056603  0.58964489  0.20259235  1
  Se  Se256  1  0.74861392  0.59049321  0.69114303  1
  Se  Se257  1  0.76125538  0.90504614  0.18842140  1
  Se  Se258  1  0.74816600  0.91988250  0.68758130  1
