# generated using pymatgen
data_In86Cu29Se144
_symmetry_space_group_name_H-M   'P 1'
_cell_length_a   17.60722568
_cell_length_b   17.60715526
_cell_length_c   23.46541184
_cell_angle_alpha   90.00445466
_cell_angle_beta   90.00029336
_cell_angle_gamma   90.00003832
_symmetry_Int_Tables_number   1
_chemical_formula_structural   In86Cu29Se144
_chemical_formula_sum   'In86 Cu29 Se144'
_cell_volume   7274.58636824
_cell_formula_units_Z   1
loop_
 _symmetry_equiv_pos_site_id
 _symmetry_equiv_pos_as_xyz
  1  'x, y, z'
loop_
 _atom_site_type_symbol
 _atom_site_label
 _atom_site_symmetry_multiplicity
 _atom_site_fract_x
 _atom_site_fract_y
 _atom_site_fract_z
 _atom_site_occupancy
  In  In0  1  -0.00597279  0.16271862  0.12175218  1
  In  In1  1  -0.00393413  0.15324283  0.61672006  1
  In  In2  1  -0.00522976  0.51371860  0.12449155  1
  In  In3  1  0.00200802  0.50681806  0.62445207  1
  In  In4  1  0.00332907  0.83322083  0.13396161  1
  In  In5  1  0.00614508  0.82206034  0.62874950  1
  In  In6  1  0.32657844  0.16757208  0.12199927  1
  In  In7  1  0.32125926  0.16652706  0.62785833  1
  In  In8  1  0.33168722  0.49522676  0.11964002  1
  In  In9  1  0.36558480  0.48717462  0.65132761  1
  In  In10  1  0.35055343  0.84117049  0.11564311  1
  In  In11  1  0.33706972  0.83837779  0.63190328  1
  In  In12  1  0.66911669  0.15166433  0.12249565  1
  In  In13  1  0.67017597  0.16245597  0.63483005  1
  In  In14  1  0.67498958  0.49616332  0.12371089  1
  In  In15  1  0.64807531  0.50495600  0.64236322  1
  In  In16  1  0.65692075  0.83727615  0.12999808  1
  In  In17  1  0.65288576  0.83712070  0.64250361  1
  In  In18  1  0.17112720  -0.00221889  0.37702161  1
  In  In19  1  0.18227072  0.01450777  0.87046220  1
  In  In20  1  0.16661761  0.32599708  0.38268747  1
  In  In21  1  0.16778846  0.32326663  0.87579442  1
  In  In22  1  0.17310481  0.68076485  0.37725327  1
  In  In23  1  0.16711094  0.67369884  0.86921099  1
  In  In24  1  0.48699924  -0.00669060  0.37191238  1
  In  In25  1  0.48777092  0.00092172  0.84928692  1
  In  In26  1  0.51719855  0.33895314  0.38914187  1
  In  In27  1  0.50538119  0.33083136  0.84035139  1
  In  In28  1  0.50501706  0.66367132  0.38465978  1
  In  In29  1  0.53115120  0.68631708  0.83652755  1
  In  In30  1  0.83571168  0.00192536  0.37295142  1
  In  In31  1  0.84887129  0.00284889  0.87255831  1
  In  In32  1  0.81532268  0.32617416  0.38302327  1
  In  In33  1  0.82783646  0.33584886  0.88313352  1
  In  In34  1  0.83138089  0.67111492  0.36650029  1
  In  In35  1  0.82135978  0.65873531  0.86799082  1
  In  In36  1  0.00840343  0.15310525  0.38344448  1
  In  In37  1  0.01185486  0.16058983  0.88380294  1
  In  In38  1  -0.01445827  0.50661805  0.37627339  1
  In  In39  1  -0.01409027  0.50029353  0.87529004  1
  In  In40  1  0.00702416  0.84505501  0.36687728  1
  In  In41  1  0.00259528  0.83589959  0.86904086  1
  In  In42  1  0.34426264  0.14563875  0.38189037  1
  In  In43  1  0.32715764  0.16537289  0.86148933  1
  In  In44  1  0.33810385  0.51197443  0.38317623  1
  In  In45  1  0.35246761  0.50876626  0.85338843  1
  In  In46  1  0.32477940  0.83816989  0.38865668  1
  In  In47  1  0.36185234  0.85021099  0.84591368  1
  In  In48  1  0.67294453  0.16675981  0.38216558  1
  In  In49  1  0.67479442  0.16697793  0.87031220  1
  In  In50  1  0.65461443  0.50211632  0.37990378  1
  In  In51  1  0.67156638  0.50156515  0.86261399  1
  In  In52  1  0.66082160  0.82490896  0.37521019  1
  In  In53  1  0.65768081  0.83854836  0.86638290  1
  In  In54  1  0.16379555  0.00283177  0.12829822  1
  In  In55  1  0.16471524  -0.00567365  0.62475752  1
  In  In56  1  0.17936136  0.32186891  0.12049192  1
  In  In57  1  0.19209560  0.32774746  0.61791152  1
  In  In58  1  0.16544795  0.65892838  0.12427277  1
  In  In59  1  0.16553520  0.67181739  0.62532736  1
  In  In60  1  0.51308448  -0.00113724  0.13295843  1
  In  In61  1  0.51053201  -0.00299179  0.64632808  1
  In  In62  1  0.48978855  0.33383399  0.11970615  1
  In  In63  1  0.48882311  0.32983555  0.63965426  1
  In  In64  1  0.49535955  0.68031327  0.12090929  1
  In  In65  1  0.50114585  0.67636104  0.63449424  1
  In  In66  1  0.82968977  0.00275519  0.12736693  1
  In  In67  1  0.82823056  0.01097744  0.63125580  1
  In  In68  1  0.82819520  0.33415190  0.11364965  1
  In  In69  1  0.82955731  0.31372447  0.61979745  1
  In  In70  1  0.83074001  0.66602949  0.12414534  1
  In  In71  1  0.82696595  0.66171839  0.63268328  1
  In  In72  1  0.49532650  0.16993978  0.50854566  1
  In  In73  1  0.82320801  0.49693113  0.50188745  1
  In  In74  1  0.83056196  0.83752961  0.50243255  1
  In  In75  1  0.66476622  0.33199027  0.25822449  1
  In  In76  1  0.51178526  0.50664981  -0.02419124  1
  In  In77  1  0.33298932  0.67621574  0.24467583  1
  In  In78  1  0.00203821  0.33401226  0.74733156  1
  In  In79  1  0.16931508  0.83676410  0.00434320  1
  In  In80  1  -0.00365161  0.33217163  0.25490849  1
  In  In81  1  0.82921540  0.83192514  0.00394057  1
  In  In82  1  0.49805960  0.16374308  -0.00962462  1
  In  In83  1  0.33509276  0.33122865  0.25059277  1
  In  In84  1  0.16860341  0.49328060  0.00153884  1
  In  In85  1  0.17531564  0.50360314  0.50958447  1
  Cu  Cu86  1  0.16165418  0.50405135  0.74277080  1
  Cu  Cu87  1  0.65720245  -0.00148286  0.51303713  1
  Cu  Cu88  1  0.34394237  0.66377553  0.51073835  1
  Cu  Cu89  1  0.50108692  0.83260333  0.25184947  1
  Cu  Cu90  1  0.00430053  -0.00462049  0.49791163  1
  Cu  Cu91  1  0.33716665  0.68037440  -0.01114768  1
  Cu  Cu92  1  0.82807595  0.83460979  0.24661653  1
  Cu  Cu93  1  0.66811120  0.32740609  -0.00690031  1
  Cu  Cu94  1  0.50212148  0.50357779  0.25589540  1
  Cu  Cu95  1  0.16743184  0.83940944  0.25282994  1
  Cu  Cu96  1  0.83603903  0.83662844  0.74714572  1
  Cu  Cu97  1  0.16131897  0.83713752  0.75055294  1
  Cu  Cu98  1  0.00618005  0.00625863  0.00039305  1
  Cu  Cu99  1  0.33806066  0.33430402  -0.01338749  1
  Cu  Cu100  1  0.66332013  -0.00323009  0.00212462  1
  Cu  Cu101  1  0.33517408  -0.00573728  0.50524723  1
  Cu  Cu102  1  0.83319724  0.51020236  0.24693557  1
  Cu  Cu103  1  0.15964964  0.16412570  0.74748432  1
  Cu  Cu104  1  0.15765444  0.50559902  0.25095300  1
  Cu  Cu105  1  0.00206048  0.32405232  0.50313763  1
  Cu  Cu106  1  0.16705537  0.15951319  0.25272869  1
  Cu  Cu107  1  0.83290586  0.16340155  0.25186158  1
  Cu  Cu108  1  0.83474508  0.49905891  0.75054918  1
  Cu  Cu109  1  0.84093374  0.16535436  0.75271851  1
  Cu  Cu110  1  -0.01084888  0.66043935  -0.00211228  1
  Cu  Cu111  1  -0.00135709  0.33025356  -0.00126492  1
  Cu  Cu112  1  0.00431193  0.67493439  0.49781721  1
  Cu  Cu113  1  0.65819589  0.66963446  0.50874011  1
  Cu  Cu114  1  0.65630166  0.66238187  -0.01366984  1
  Se  Se115  1  0.08795972  0.08760857  0.05673507  1
  Se  Se116  1  0.08872659  0.07920657  0.55083618  1
  Se  Se117  1  0.07534810  0.40763063  0.06472901  1
  Se  Se118  1  0.07808921  0.40773816  0.56137461  1
  Se  Se119  1  0.07198893  0.74000644  0.05597144  1
  Se  Se120  1  0.08828738  0.75364916  0.55169860  1
  Se  Se121  1  0.41985376  0.08009364  0.06154465  1
  Se  Se122  1  0.41561390  0.07061783  0.56891269  1
  Se  Se123  1  0.41642742  0.42013716  0.04346147  1
  Se  Se124  1  0.40968183  0.40709501  0.56579312  1
  Se  Se125  1  0.42431190  0.75626140  0.04369156  1
  Se  Se126  1  0.42024710  0.75517253  0.56177929  1
  Se  Se127  1  0.75290226  0.07886273  0.05040046  1
  Se  Se128  1  0.74560267  0.08466234  0.55761575  1
  Se  Se129  1  0.74476179  0.41756419  0.04663298  1
  Se  Se130  1  0.74109649  0.41874217  0.57184764  1
  Se  Se131  1  0.73146628  0.74028282  0.05386111  1
  Se  Se132  1  0.74242010  0.74935192  0.56473416  1
  Se  Se133  1  0.26003649  0.25329996  0.04500147  1
  Se  Se134  1  0.25904212  0.24230477  0.54576767  1
  Se  Se135  1  0.26408405  0.59629241  0.05001623  1
  Se  Se136  1  0.26757191  0.58240112  0.57281887  1
  Se  Se137  1  0.26068927  0.93197995  0.05555892  1
  Se  Se138  1  0.25051602  0.91058007  0.55798695  1
  Se  Se139  1  0.58799978  0.25470976  0.05768404  1
  Se  Se140  1  0.58572136  0.25515931  0.56916144  1
  Se  Se141  1  0.58420122  0.58578484  0.05651486  1
  Se  Se142  1  0.57978545  0.58702993  0.56537409  1
  Se  Se143  1  0.57950277  0.91472043  0.05499720  1
  Se  Se144  1  0.57757756  0.91538077  0.56699649  1
  Se  Se145  1  0.91497288  0.24780109  0.05280726  1
  Se  Se146  1  0.91395787  0.24000811  0.54933547  1
  Se  Se147  1  0.90585994  0.57974816  0.05183065  1
  Se  Se148  1  0.92020336  0.59387450  0.55308113  1
  Se  Se149  1  0.92779072  0.92051383  0.05815299  1
  Se  Se150  1  0.92258393  0.92249488  0.56291337  1
  Se  Se151  1  0.08623310  0.24317339  0.44979937  1
  Se  Se152  1  0.08961408  0.25023273  0.95153222  1
  Se  Se153  1  0.08145120  0.58527899  0.44225767  1
  Se  Se154  1  0.08001234  0.58640226  0.94267689  1
  Se  Se155  1  0.08692128  0.91190059  0.44488300  1
  Se  Se156  1  0.08209620  0.92440218  0.94016551  1
  Se  Se157  1  0.41021019  0.25749752  0.44133697  1
  Se  Se158  1  0.42248248  0.26122754  0.92619052  1
  Se  Se159  1  0.42402506  0.58065259  0.45511332  1
  Se  Se160  1  0.41437404  0.59847317  0.92991100  1
  Se  Se161  1  0.42120870  0.91336112  0.45141810  1
  Se  Se162  1  0.42016313  0.92561032  0.92898930  1
  Se  Se163  1  0.73164531  0.25929834  0.45559537  1
  Se  Se164  1  0.75379305  0.23989789  0.94764883  1
  Se  Se165  1  0.74330297  0.59915608  0.44477022  1
  Se  Se166  1  0.74503808  0.57732540  0.94115981  1
  Se  Se167  1  0.73730009  0.92612991  0.44501223  1
  Se  Se168  1  0.74547121  0.92079981  0.93947905  1
  Se  Se169  1  0.25241333  0.07715442  0.45051143  1
  Se  Se170  1  0.26424808  0.08867229  0.94165486  1
  Se  Se171  1  0.25842122  0.41317903  0.44424449  1
  Se  Se172  1  0.26030668  0.42160778  0.93136503  1
  Se  Se173  1  0.25543774  0.74122001  0.45546936  1
  Se  Se174  1  0.25500644  0.76004089  0.93283649  1
  Se  Se175  1  0.58139318  0.07641898  0.44567877  1
  Se  Se176  1  0.58764517  0.07154805  0.93359095  1
  Se  Se177  1  0.59272321  0.42227828  0.45755253  1
  Se  Se178  1  0.58826164  0.39660823  0.92710543  1
  Se  Se179  1  0.58045642  0.75472822  0.45208007  1
  Se  Se180  1  0.57761587  0.74700117  0.93151097  1
  Se  Se181  1  0.91477728  0.07737560  0.44805840  1
  Se  Se182  1  0.91698037  0.08516165  0.94916740  1
  Se  Se183  1  0.92162368  0.40587839  0.44498366  1
  Se  Se184  1  0.91641240  0.41726469  0.94926271  1
  Se  Se185  1  0.92011960  0.75059510  0.43855842  1
  Se  Se186  1  0.91626597  0.74616376  0.93809308  1
  Se  Se187  1  0.24700356  0.24139682  0.31172326  1
  Se  Se188  1  0.24161851  0.25310045  0.79681862  1
  Se  Se189  1  0.24626268  0.58039160  0.30712422  1
  Se  Se190  1  0.24078103  0.58060727  0.80396882  1
  Se  Se191  1  0.25562489  0.91361543  0.30869695  1
  Se  Se192  1  0.24764890  0.92098514  0.79980204  1
  Se  Se193  1  0.57199235  0.24197412  0.31402992  1
  Se  Se194  1  0.59293952  0.23222490  0.79143967  1
  Se  Se195  1  0.58351050  0.58785232  0.30758288  1
  Se  Se196  1  0.55615009  0.54851869  0.80490806  1
  Se  Se197  1  0.58157299  0.91414265  0.30876725  1
  Se  Se198  1  0.58052417  0.91589534  0.79216749  1
  Se  Se199  1  0.90720382  0.24402515  0.31596434  1
  Se  Se200  1  0.91934799  0.24687454  0.81478776  1
  Se  Se201  1  0.91933736  0.58939898  0.30044536  1
  Se  Se202  1  0.91721127  0.58502023  0.80171089  1
  Se  Se203  1  0.91139138  0.91634396  0.30208179  1
  Se  Se204  1  0.92191055  0.91796591  0.79998872  1
  Se  Se205  1  0.08358569  0.07801638  0.30718501  1
  Se  Se206  1  0.08102910  0.08208412  0.80580393  1
  Se  Se207  1  0.08797102  0.42360953  0.31520654  1
  Se  Se208  1  0.08788633  0.42489926  0.81036746  1
  Se  Se209  1  0.08782479  0.75061856  0.30449344  1
  Se  Se210  1  0.07900222  0.74882328  0.80031799  1
  Se  Se211  1  0.41431150  0.08049592  0.30107758  1
  Se  Se212  1  0.42388257  0.10835648  0.78885655  1
  Se  Se213  1  0.42223072  0.42237864  0.31428161  1
  Se  Se214  1  0.39320311  0.39634685  0.79012884  1
  Se  Se215  1  0.41914915  0.75438285  0.31426034  1
  Se  Se216  1  0.39756863  0.72331186  0.79723240  1
  Se  Se217  1  0.74801376  0.08606177  0.30834340  1
  Se  Se218  1  0.75945231  0.07925476  0.80557265  1
  Se  Se219  1  0.75840973  0.42981213  0.31092321  1
  Se  Se220  1  0.75717261  0.40956954  0.80331892  1
  Se  Se221  1  0.74563123  0.75217624  0.30146205  1
  Se  Se222  1  0.75331127  0.75771237  0.80507496  1
  Se  Se223  1  0.25273934  0.08439112  0.19497808  1
  Se  Se224  1  0.24311640  0.07856184  0.69616130  1
  Se  Se225  1  0.23822230  0.42579495  0.19375735  1
  Se  Se226  1  0.24507318  0.41936879  0.69366713  1
  Se  Se227  1  0.24238907  0.76460817  0.18316080  1
  Se  Se228  1  0.24370085  0.75601457  0.69509262  1
  Se  Se229  1  0.58728615  0.09104705  0.19890963  1
  Se  Se230  1  0.57852081  0.09988009  0.70842918  1
  Se  Se231  1  0.57339870  0.41956812  0.19212920  1
  Se  Se232  1  0.57868027  0.40753579  0.70614353  1
  Se  Se233  1  0.57902881  0.74548265  0.19691258  1
  Se  Se234  1  0.59585368  0.73408076  0.70908141  1
  Se  Se235  1  0.91657784  0.08449717  0.19530841  1
  Se  Se236  1  0.92374973  0.08313284  0.69776868  1
  Se  Se237  1  0.90770155  0.42024543  0.19089414  1
  Se  Se238  1  0.90850808  0.42009370  0.68563874  1
  Se  Se239  1  0.91100429  0.75037360  0.19326140  1
  Se  Se240  1  0.91398254  0.74695298  0.69506856  1
  Se  Se241  1  0.09165123  0.24701315  0.19466974  1
  Se  Se242  1  0.08771899  0.24736884  0.68208807  1
  Se  Se243  1  0.07875248  0.58904563  0.19644134  1
  Se  Se244  1  0.07860828  0.58932467  0.69377199  1
  Se  Se245  1  0.08249639  0.92117705  0.19899750  1
  Se  Se246  1  0.07700538  0.91724423  0.69508010  1
  Se  Se247  1  0.42596197  0.24147050  0.19233482  1
  Se  Se248  1  0.41466668  0.22840821  0.70036235  1
  Se  Se249  1  0.42041949  0.57396104  0.18951620  1
  Se  Se250  1  0.39938678  0.61254897  0.70276387  1
  Se  Se251  1  0.41979187  0.91486962  0.19523510  1
  Se  Se252  1  0.42293270  0.90818184  0.70622851  1
  Se  Se253  1  0.75673929  0.24919751  0.19257531  1
  Se  Se254  1  0.75682298  0.24851533  0.70139267  1
  Se  Se255  1  0.74391362  0.58630233  0.19374392  1
  Se  Se256  1  0.74569568  0.58311043  0.70332835  1
  Se  Se257  1  0.74595434  0.91917621  0.19373020  1
  Se  Se258  1  0.75062926  0.92093031  0.69772581  1
