# generated using pymatgen
data_In86Cu29Se144
_symmetry_space_group_name_H-M   'P 1'
_cell_length_a   17.58936322
_cell_length_b   17.59021205
_cell_length_c   23.44955244
_cell_angle_alpha   89.99732015
_cell_angle_beta   89.98342775
_cell_angle_gamma   90.03373597
_symmetry_Int_Tables_number   1
_chemical_formula_structural   In86Cu29Se144
_chemical_formula_sum   'In86 Cu29 Se144'
_cell_volume   7255.30470181
_cell_formula_units_Z   1
loop_
 _symmetry_equiv_pos_site_id
 _symmetry_equiv_pos_as_xyz
  1  'x, y, z'
loop_
 _atom_site_type_symbol
 _atom_site_label
 _atom_site_symmetry_multiplicity
 _atom_site_fract_x
 _atom_site_fract_y
 _atom_site_fract_z
 _atom_site_occupancy
  In  In0  1  0.01420172  0.18187679  0.10751236  1
  In  In1  1  0.00772394  0.14928094  0.63280352  1
  In  In2  1  -0.00081560  0.49621131  0.11219361  1
  In  In3  1  0.01687876  0.51401009  0.62334557  1
  In  In4  1  0.00581725  0.83095435  0.12603271  1
  In  In5  1  0.00266251  0.83466344  0.63355681  1
  In  In6  1  0.35404548  0.18779943  0.09811911  1
  In  In7  1  0.32416619  0.18335358  0.62875073  1
  In  In8  1  0.32905243  0.50334154  0.12846363  1
  In  In9  1  0.32353995  0.50386103  0.63797470  1
  In  In10  1  0.33741714  0.82347593  0.12695061  1
  In  In11  1  0.32256180  0.82307398  0.61781080  1
  In  In12  1  0.66350394  0.16744492  0.11982476  1
  In  In13  1  0.66165453  0.16868494  0.63508234  1
  In  In14  1  0.66188032  0.48352770  0.12314672  1
  In  In15  1  0.67028925  0.48703506  0.62412552  1
  In  In16  1  0.66157873  0.84931066  0.13229114  1
  In  In17  1  0.67562623  0.83749461  0.61693843  1
  In  In18  1  0.16425723  0.00322314  0.38596969  1
  In  In19  1  0.16912150  0.01643904  0.86110859  1
  In  In20  1  0.18017556  0.33369870  0.39002369  1
  In  In21  1  0.17914861  0.33043870  0.87300829  1
  In  In22  1  0.18071582  0.65477163  0.38532937  1
  In  In23  1  0.15565054  0.65126388  0.85234465  1
  In  In24  1  0.50286540  -0.01453852  0.37067916  1
  In  In25  1  0.49404909  -0.00322241  0.88433954  1
  In  In26  1  0.49586096  0.32790598  0.36596731  1
  In  In27  1  0.48061072  0.31303417  0.87318852  1
  In  In28  1  0.49256212  0.68712383  0.37507065  1
  In  In29  1  0.49269505  0.68395259  0.88064081  1
  In  In30  1  0.81932748  0.00361701  0.37597980  1
  In  In31  1  0.84278980  0.01041286  0.86760192  1
  In  In32  1  0.83071572  0.33918425  0.37486973  1
  In  In33  1  0.82398397  0.33973638  0.87803884  1
  In  In34  1  0.84072929  0.65955521  0.38697525  1
  In  In35  1  0.83903696  0.65703980  0.87518877  1
  In  In36  1  0.00633915  0.17672489  0.37938575  1
  In  In37  1  0.00942907  0.15920069  0.87441953  1
  In  In38  1  0.00197326  0.50062079  0.38640000  1
  In  In39  1  0.00058369  0.50041621  0.87211304  1
  In  In40  1  0.00708998  0.82488219  0.38858164  1
  In  In41  1  0.01037111  0.83247356  0.85359728  1
  In  In42  1  0.32686238  0.17114194  0.37751411  1
  In  In43  1  0.31089289  0.17925148  0.89871474  1
  In  In44  1  0.32531167  0.49370407  0.36777226  1
  In  In45  1  0.31465834  0.48146955  0.85681042  1
  In  In46  1  0.34285666  0.82564093  0.38504433  1
  In  In47  1  0.33577062  0.83425996  0.87033884  1
  In  In48  1  0.66115308  0.16172870  0.36152684  1
  In  In49  1  0.66410763  0.16538649  0.87755373  1
  In  In50  1  0.67434697  0.49573437  0.37357668  1
  In  In51  1  0.68006159  0.49919107  0.87738345  1
  In  In52  1  0.65855944  0.84448534  0.38484922  1
  In  In53  1  0.64779552  0.84064654  0.87848070  1
  In  In54  1  0.16592308  0.01175518  0.12115006  1
  In  In55  1  0.16131160  -0.00772625  0.62358917  1
  In  In56  1  0.18123661  0.34530297  0.10864431  1
  In  In57  1  0.18018824  0.34136756  0.62168716  1
  In  In58  1  0.18110607  0.66875154  0.12576502  1
  In  In59  1  0.17011361  0.66918834  0.63666432  1
  In  In60  1  0.50289336  0.01145021  0.11537745  1
  In  In61  1  0.51273982  0.00096326  0.62598025  1
  In  In62  1  0.50271306  0.33221638  0.12836993  1
  In  In63  1  0.49656547  0.33920315  0.63575098  1
  In  In64  1  0.48495171  0.66313738  0.12406116  1
  In  In65  1  0.48596707  0.67170301  0.62693495  1
  In  In66  1  0.81922073  0.00256241  0.12540399  1
  In  In67  1  0.84064902  -0.01348462  0.63501258  1
  In  In68  1  0.82663577  0.32274343  0.11114406  1
  In  In69  1  0.82443056  0.33143705  0.62519959  1
  In  In70  1  0.84558388  0.66316767  0.12238381  1
  In  In71  1  0.84537778  0.67296564  0.61821392  1
  In  In72  1  0.17342564  0.83978463  -0.00707597  1
  In  In73  1  0.49510082  0.50399586  0.50700709  1
  In  In74  1  0.33510925  0.00039905  0.75427439  1
  In  In75  1  0.49686024  0.49881576  -0.00219562  1
  In  In76  1  -0.00628555  0.00331277  0.24573865  1
  In  In77  1  0.83397004  0.83273202  0.00226033  1
  In  In78  1  0.00350152  0.66179519  0.25895417  1
  In  In79  1  0.66700314  0.66506286  0.75391274  1
  In  In80  1  0.00383685  0.33201525  0.74976367  1
  In  In81  1  0.49371771  0.16344091  0.49503893  1
  In  In82  1  0.66292706  0.66684842  0.25439699  1
  In  In83  1  -0.00127658  0.33503043  0.25416191  1
  In  In84  1  0.33803912  0.00492676  0.24574672  1
  In  In85  1  0.83823731  0.16452202  0.50227077  1
  Cu  Cu86  1  0.50003131  0.16842309  0.23956592  1
  Cu  Cu87  1  0.50164621  0.83921106  0.75265446  1
  Cu  Cu88  1  0.33106102  0.00180922  0.50130104  1
  Cu  Cu89  1  0.82300404  0.17179364  0.75154370  1
  Cu  Cu90  1  0.32999327  0.66852943  0.50501264  1
  Cu  Cu91  1  0.49943640  0.16462713  0.75696405  1
  Cu  Cu92  1  0.83710000  0.49965809  0.75186073  1
  Cu  Cu93  1  0.66998090  0.66386986  0.49566551  1
  Cu  Cu94  1  0.66666443  0.00407586  0.00029998  1
  Cu  Cu95  1  0.17983965  0.83413472  0.25464514  1
  Cu  Cu96  1  0.00587594  0.33489070  0.50363155  1
  Cu  Cu97  1  0.83042027  0.83525129  0.26009143  1
  Cu  Cu98  1  0.82449837  0.48805744  0.24690033  1
  Cu  Cu99  1  0.82486211  0.16555905  0.23942869  1
  Cu  Cu100  1  0.66831448  0.66914539  -0.00416608  1
  Cu  Cu101  1  0.82415668  0.83373125  0.74614861  1
  Cu  Cu102  1  -0.00006445  0.33668327  -0.01242973  1
  Cu  Cu103  1  0.67418927  -0.00542148  0.50380176  1
  Cu  Cu104  1  0.66448356  0.33201166  0.50092063  1
  Cu  Cu105  1  -0.00178412  0.00371360  -0.00755010  1
  Cu  Cu106  1  0.66448389  0.33147866  -0.00158591  1
  Cu  Cu107  1  0.32590026  0.66083449  -0.00191645  1
  Cu  Cu108  1  0.00534252  0.66198508  -0.00880136  1
  Cu  Cu109  1  0.50467941  0.49655653  0.75297628  1
  Cu  Cu110  1  0.17053675  0.49867710  0.24836627  1
  Cu  Cu111  1  -0.00046591  -0.00884995  0.50921422  1
  Cu  Cu112  1  0.00326338  0.66778859  0.51100060  1
  Cu  Cu113  1  0.17140879  0.17618930  0.25156279  1
  Cu  Cu114  1  0.49460770  0.49885301  0.24872538  1
  Se  Se115  1  0.08644773  0.08287195  0.04522346  1
  Se  Se116  1  0.08388678  0.08135492  0.55316412  1
  Se  Se117  1  0.08361894  0.41717582  0.04489797  1
  Se  Se118  1  0.08780086  0.41934741  0.55648118  1
  Se  Se119  1  0.08133063  0.74327891  0.05461646  1
  Se  Se120  1  0.08552993  0.75011962  0.56555378  1
  Se  Se121  1  0.41090337  0.07490905  0.04472846  1
  Se  Se122  1  0.40956160  0.07967197  0.56421767  1
  Se  Se123  1  0.40885729  0.41156135  0.05941662  1
  Se  Se124  1  0.40718318  0.41243712  0.56395903  1
  Se  Se125  1  0.41087090  0.74450199  0.05001403  1
  Se  Se126  1  0.41999336  0.75420730  0.55002526  1
  Se  Se127  1  0.75240109  0.08717318  0.05127046  1
  Se  Se128  1  0.74645996  0.08023897  0.56492017  1
  Se  Se129  1  0.74885258  0.41894843  0.04864435  1
  Se  Se130  1  0.75260821  0.41412217  0.54951525  1
  Se  Se131  1  0.74274429  0.74596564  0.06514635  1
  Se  Se132  1  0.75244490  0.74692643  0.55156820  1
  Se  Se133  1  0.22733545  0.22890704  0.05287374  1
  Se  Se134  1  0.24742082  0.24912530  0.55051779  1
  Se  Se135  1  0.24559073  0.57844635  0.05399680  1
  Se  Se136  1  0.25160655  0.58727165  0.56367923  1
  Se  Se137  1  0.25731996  0.92056173  0.06259420  1
  Se  Se138  1  0.24760980  0.91638552  0.55294083  1
  Se  Se139  1  0.57925128  0.25289228  0.05379648  1
  Se  Se140  1  0.58253206  0.25359705  0.55944425  1
  Se  Se141  1  0.58960548  0.58921165  0.05960177  1
  Se  Se142  1  0.59162580  0.59243124  0.56408529  1
  Se  Se143  1  0.58631502  0.91725456  0.05330790  1
  Se  Se144  1  0.58209816  0.91516890  0.55211466  1
  Se  Se145  1  0.91822591  0.25195077  0.04272138  1
  Se  Se146  1  0.92805953  0.25238806  0.56428217  1
  Se  Se147  1  0.91745278  0.58493359  0.04696493  1
  Se  Se148  1  0.91731523  0.57578810  0.55429317  1
  Se  Se149  1  0.92680212  0.92628793  0.06062081  1
  Se  Se150  1  0.91392282  0.90859488  0.55926383  1
  Se  Se151  1  0.08811403  0.24954296  0.45114645  1
  Se  Se152  1  0.08533987  0.25234822  0.93828305  1
  Se  Se153  1  0.08334053  0.58666511  0.45142077  1
  Se  Se154  1  0.09048981  0.58267662  0.93766461  1
  Se  Se155  1  0.08727858  0.91396711  0.45269928  1
  Se  Se156  1  0.07542694  0.92113675  0.93301968  1
  Se  Se157  1  0.40761771  0.26528587  0.44536937  1
  Se  Se158  1  0.41486536  0.24759675  0.95755797  1
  Se  Se159  1  0.41074327  0.59166424  0.44119057  1
  Se  Se160  1  0.40716058  0.58399963  0.93549848  1
  Se  Se161  1  0.41861427  0.92257908  0.44798223  1
  Se  Se162  1  0.42189867  0.89677826  0.94520186  1
  Se  Se163  1  0.74031126  0.24678887  0.44038882  1
  Se  Se164  1  0.74953329  0.24875447  0.94582185  1
  Se  Se165  1  0.75045605  0.57401282  0.44770730  1
  Se  Se166  1  0.75439006  0.58537230  0.94879018  1
  Se  Se167  1  0.75869598  0.91303132  0.45005744  1
  Se  Se168  1  0.74844291  0.92310193  0.94003081  1
  Se  Se169  1  0.25038912  0.08884793  0.44917631  1
  Se  Se170  1  0.25978679  0.05350892  0.94157083  1
  Se  Se171  1  0.24313776  0.43973487  0.44892864  1
  Se  Se172  1  0.25155956  0.41928432  0.94348379  1
  Se  Se173  1  0.24766102  0.75398264  0.45086190  1
  Se  Se174  1  0.24820090  0.73897645  0.93357564  1
  Se  Se175  1  0.59458320  0.07552570  0.44204629  1
  Se  Se176  1  0.58021002  0.08483236  0.94767547  1
  Se  Se177  1  0.58157680  0.41130452  0.44171928  1
  Se  Se178  1  0.58481130  0.40951331  0.93572037  1
  Se  Se179  1  0.58351013  0.74896933  0.44853719  1
  Se  Se180  1  0.58027635  0.75466168  0.95296643  1
  Se  Se181  1  0.92780219  0.07224360  0.44106052  1
  Se  Se182  1  0.91414803  0.08957649  0.94401678  1
  Se  Se183  1  0.91757139  0.40887507  0.44690050  1
  Se  Se184  1  0.91360644  0.42315614  0.94124925  1
  Se  Se185  1  0.91803965  0.74722247  0.45433962  1
  Se  Se186  1  0.92829450  0.75248114  0.93729098  1
  Se  Se187  1  0.24941096  0.25808124  0.30895901  1
  Se  Se188  1  0.25119001  0.23497002  0.80856396  1
  Se  Se189  1  0.24942892  0.58705514  0.30138162  1
  Se  Se190  1  0.27409400  0.60024265  0.80013044  1
  Se  Se191  1  0.25032386  0.92149763  0.31412682  1
  Se  Se192  1  0.23702593  0.90540371  0.80279888  1
  Se  Se193  1  0.58244785  0.25098517  0.29706221  1
  Se  Se194  1  0.58346491  0.25080343  0.80803181  1
  Se  Se195  1  0.57105326  0.57685369  0.31442780  1
  Se  Se196  1  0.57595271  0.58008446  0.81712601  1
  Se  Se197  1  0.59270137  0.91522794  0.30293903  1
  Se  Se198  1  0.57829232  0.92662258  0.80601762  1
  Se  Se199  1  0.90456924  0.23686027  0.30695078  1
  Se  Se200  1  0.90947028  0.24749926  0.81121631  1
  Se  Se201  1  0.90585605  0.56639430  0.30801484  1
  Se  Se202  1  0.92051706  0.58505721  0.80114463  1
  Se  Se203  1  0.91949100  0.91040805  0.31581217  1
  Se  Se204  1  0.91028767  0.91450666  0.80022644  1
  Se  Se205  1  0.08901873  0.09143883  0.30655075  1
  Se  Se206  1  0.06601944  0.07311141  0.79551206  1
  Se  Se207  1  0.08979440  0.42412293  0.31280854  1
  Se  Se208  1  0.09542247  0.42307791  0.80538481  1
  Se  Se209  1  0.09677304  0.75478398  0.31229334  1
  Se  Se210  1  0.07786282  0.73966805  0.78671942  1
  Se  Se211  1  0.42711575  0.09443966  0.31115385  1
  Se  Se212  1  0.41457131  0.09280754  0.81857114  1
  Se  Se213  1  0.41180933  0.41325359  0.30110373  1
  Se  Se214  1  0.42004645  0.40936312  0.80188082  1
  Se  Se215  1  0.41336771  0.76073221  0.30208467  1
  Se  Se216  1  0.41810158  0.75158192  0.79997628  1
  Se  Se217  1  0.74987569  0.07935282  0.29711044  1
  Se  Se218  1  0.74479305  0.08346607  0.80520477  1
  Se  Se219  1  0.74260130  0.40607948  0.30096472  1
  Se  Se220  1  0.74940840  0.41784238  0.80078284  1
  Se  Se221  1  0.75656756  0.74870828  0.31807288  1
  Se  Se222  1  0.75176459  0.75822977  0.81651165  1
  Se  Se223  1  0.24830294  0.09704827  0.18941167  1
  Se  Se224  1  0.24522463  0.08497099  0.69052383  1
  Se  Se225  1  0.24821656  0.41196525  0.19375661  1
  Se  Se226  1  0.25611662  0.40565508  0.70250849  1
  Se  Se227  1  0.25600394  0.74697817  0.20034751  1
  Se  Se228  1  0.26338244  0.74876240  0.70007864  1
  Se  Se229  1  0.58453341  0.08293655  0.19113698  1
  Se  Se230  1  0.58198620  0.08225758  0.70237601  1
  Se  Se231  1  0.58173728  0.41594963  0.19968668  1
  Se  Se232  1  0.59008358  0.41612832  0.69988907  1
  Se  Se233  1  0.57513278  0.75138269  0.19057635  1
  Se  Se234  1  0.58098531  0.75621413  0.69174197  1
  Se  Se235  1  0.91714333  0.09827790  0.18046818  1
  Se  Se236  1  0.90563410  0.08883065  0.69801561  1
  Se  Se237  1  0.91131931  0.41747376  0.18590090  1
  Se  Se238  1  0.91493987  0.42150771  0.68754498  1
  Se  Se239  1  0.91189794  0.75771814  0.19881602  1
  Se  Se240  1  0.91105584  0.75008259  0.69762377  1
  Se  Se241  1  0.08939320  0.25229279  0.19031681  1
  Se  Se242  1  0.09350188  0.24538935  0.68946325  1
  Se  Se243  1  0.08510826  0.57573115  0.18942536  1
  Se  Se244  1  0.08309142  0.58656059  0.70351548  1
  Se  Se245  1  0.09644307  0.91107277  0.19492350  1
  Se  Se246  1  0.06918031  0.93474344  0.69856857  1
  Se  Se247  1  0.41018663  0.24799853  0.18980464  1
  Se  Se248  1  0.41925696  0.24611034  0.69905117  1
  Se  Se249  1  0.41147066  0.58428586  0.19882024  1
  Se  Se250  1  0.42345618  0.58014974  0.69838722  1
  Se  Se251  1  0.42704232  0.91524413  0.18731895  1
  Se  Se252  1  0.42078306  0.91315359  0.68790769  1
  Se  Se253  1  0.74623789  0.25428138  0.18847880  1
  Se  Se254  1  0.74312805  0.25801402  0.69923926  1
  Se  Se255  1  0.75354049  0.57916896  0.18944698  1
  Se  Se256  1  0.75631989  0.57973329  0.68975869  1
  Se  Se257  1  0.75411486  0.91770111  0.20177812  1
  Se  Se258  1  0.73793809  0.91762578  0.69763263  1
