# generated using pymatgen
data_In86Cu29Se144
_symmetry_space_group_name_H-M   'P 1'
_cell_length_a   17.57257311
_cell_length_b   17.57099830
_cell_length_c   23.43160236
_cell_angle_alpha   90.01010789
_cell_angle_beta   90.01100202
_cell_angle_gamma   90.00664412
_symmetry_Int_Tables_number   1
_chemical_formula_structural   In86Cu29Se144
_chemical_formula_sum   'In86 Cu29 Se144'
_cell_volume   7234.92055278
_cell_formula_units_Z   1
loop_
 _symmetry_equiv_pos_site_id
 _symmetry_equiv_pos_as_xyz
  1  'x, y, z'
loop_
 _atom_site_type_symbol
 _atom_site_label
 _atom_site_symmetry_multiplicity
 _atom_site_fract_x
 _atom_site_fract_y
 _atom_site_fract_z
 _atom_site_occupancy
  In  In0  1  -0.01148302  0.15934005  0.12928295  1
  In  In1  1  -0.00090423  0.16790612  0.62707264  1
  In  In2  1  0.00913759  0.51145913  0.11637014  1
  In  In3  1  -0.01907107  0.49987866  0.62358191  1
  In  In4  1  -0.00316380  0.83170497  0.12679594  1
  In  In5  1  0.00368548  0.84553203  0.62546078  1
  In  In6  1  0.34257662  0.16921235  0.13224323  1
  In  In7  1  0.32544020  0.15413994  0.60529151  1
  In  In8  1  0.32673088  0.50729651  0.13473071  1
  In  In9  1  0.34364239  0.51143311  0.62705018  1
  In  In10  1  0.31592930  0.82878427  0.12358985  1
  In  In11  1  0.32909727  0.82143222  0.62366515  1
  In  In12  1  0.65966132  0.16534198  0.13005404  1
  In  In13  1  0.66768710  0.16399159  0.62162108  1
  In  In14  1  0.68186868  0.50292169  0.12002929  1
  In  In15  1  0.67306578  0.49141473  0.63140122  1
  In  In16  1  0.67490449  0.82494119  0.13174262  1
  In  In17  1  0.67008773  0.83239850  0.62374582  1
  In  In18  1  0.16861837  0.01380573  0.37970445  1
  In  In19  1  0.14508129  -0.00513676  0.86581172  1
  In  In20  1  0.17093028  0.32105213  0.37574248  1
  In  In21  1  0.16867438  0.34597193  0.87191123  1
  In  In22  1  0.16223287  0.66323949  0.36775725  1
  In  In23  1  0.16731389  0.66349966  0.88081980  1
  In  In24  1  0.50716577  -0.01680777  0.39235926  1
  In  In25  1  0.50856429  -0.00510555  0.86830259  1
  In  In26  1  0.48827704  0.33865933  0.37253759  1
  In  In27  1  0.50106498  0.32699865  0.87296381  1
  In  In28  1  0.51255582  0.67328130  0.36560535  1
  In  In29  1  0.50570298  0.66506974  0.86894192  1
  In  In30  1  0.83459417  -0.00411674  0.37711933  1
  In  In31  1  0.83380427  -0.00034447  0.86648135  1
  In  In32  1  0.83236216  0.33435648  0.38559769  1
  In  In33  1  0.83732924  0.33724475  0.87000135  1
  In  In34  1  0.83138266  0.67328361  0.37888164  1
  In  In35  1  0.83110015  0.67669386  0.87882596  1
  In  In36  1  0.00859290  0.15929403  0.38230774  1
  In  In37  1  0.00067893  0.16051282  0.85364111  1
  In  In38  1  -0.01414428  0.50763326  0.37895562  1
  In  In39  1  0.00645881  0.49635024  0.88056662  1
  In  In40  1  -0.01498460  0.82125390  0.37239508  1
  In  In41  1  -0.00850601  0.83544540  0.87819579  1
  In  In42  1  0.32752345  0.16618856  0.38484671  1
  In  In43  1  0.33320809  0.17894585  0.87392446  1
  In  In44  1  0.35007029  0.50647405  0.35314503  1
  In  In45  1  0.31387760  0.49892730  0.88155018  1
  In  In46  1  0.34539149  0.83602100  0.37947632  1
  In  In47  1  0.33511750  0.81765729  0.87657020  1
  In  In48  1  0.68143679  0.15648251  0.38602558  1
  In  In49  1  0.67154972  0.17193358  0.85977013  1
  In  In50  1  0.66699016  0.51418537  0.37239136  1
  In  In51  1  0.67372484  0.50560102  0.87127318  1
  In  In52  1  0.66789833  0.83379767  0.37857645  1
  In  In53  1  0.68306590  0.84459711  0.86487886  1
  In  In54  1  0.16366071  -0.01936691  0.12324451  1
  In  In55  1  0.15279107  0.00141023  0.63045072  1
  In  In56  1  0.16667210  0.34609896  0.12000550  1
  In  In57  1  0.16420247  0.31819037  0.63068187  1
  In  In58  1  0.16246635  0.66609061  0.12891924  1
  In  In59  1  0.17239260  0.68450084  0.63274823  1
  In  In60  1  0.50749658  0.00899268  0.13170838  1
  In  In61  1  0.50813332  0.01039713  0.61278804  1
  In  In62  1  0.49777030  0.32515096  0.13064194  1
  In  In63  1  0.51086342  0.33006220  0.62610501  1
  In  In64  1  0.50390574  0.65771802  0.14211631  1
  In  In65  1  0.49644932  0.67754750  0.62785212  1
  In  In66  1  0.84276895  -0.01046287  0.13696135  1
  In  In67  1  0.83349431  -0.00195565  0.62253808  1
  In  In68  1  0.82242857  0.34955469  0.11947097  1
  In  In69  1  0.83366808  0.33144938  0.62586273  1
  In  In70  1  0.83428921  0.67093117  0.12411505  1
  In  In71  1  0.82735918  0.65220495  0.61288775  1
  In  In72  1  0.49724567  0.49690609  0.00638240  1
  In  In73  1  0.50038641  0.83083400  0.00426312  1
  In  In74  1  0.33444353  0.33560992  0.75287689  1
  In  In75  1  0.16286079  0.84144671  0.50665952  1
  In  In76  1  0.66444954  0.33701673  0.24726168  1
  In  In77  1  0.50351235  0.16972748  0.00097107  1
  In  In78  1  0.16562677  0.49541076  0.49204166  1
  In  In79  1  -0.00258628  0.66708569  0.74840097  1
  In  In80  1  0.33593051  -0.00248219  0.25482058  1
  In  In81  1  0.50462591  0.49854125  0.49570708  1
  In  In82  1  0.33312224  -0.00539516  0.74058480  1
  In  In83  1  0.83019266  0.16802299  -0.00676512  1
  In  In84  1  0.00457877  0.33485946  0.24897493  1
  In  In85  1  0.16475868  0.16989940  -0.00698086  1
  Cu  Cu86  1  0.32604613  0.66177475  0.00548406  1
  Cu  Cu87  1  0.33194528  0.33025658  0.49581608  1
  Cu  Cu88  1  0.15952085  0.83071406  0.24974727  1
  Cu  Cu89  1  -0.00389745  0.33671735  -0.00515588  1
  Cu  Cu90  1  0.49934380  0.16472238  0.74058877  1
  Cu  Cu91  1  0.83524165  0.51313313  0.24876553  1
  Cu  Cu92  1  -0.00522768  0.00223526  0.50173307  1
  Cu  Cu93  1  0.67176440  0.32913735  0.50676074  1
  Cu  Cu94  1  0.67442439  0.67446731  -0.00215273  1
  Cu  Cu95  1  0.83419232  0.16111735  0.25706575  1
  Cu  Cu96  1  0.50119942  0.83532913  0.25689172  1
  Cu  Cu97  1  0.33302318  0.66780076  0.49863323  1
  Cu  Cu98  1  0.83403820  0.83341118  0.74744475  1
  Cu  Cu99  1  0.67281946  -0.00428944  0.50201572  1
  Cu  Cu100  1  -0.00110346  0.33121554  0.50292086  1
  Cu  Cu101  1  0.82842413  0.16287242  0.74047895  1
  Cu  Cu102  1  0.16457826  0.50346348  0.75482169  1
  Cu  Cu103  1  0.50608507  0.16232405  0.25813932  1
  Cu  Cu104  1  0.82784453  0.83167469  0.25396856  1
  Cu  Cu105  1  0.50345571  0.50820583  0.74830624  1
  Cu  Cu106  1  -0.00059595  0.66758362  0.00262190  1
  Cu  Cu107  1  0.82910416  0.49727054  0.74868669  1
  Cu  Cu108  1  -0.00148256  -0.00659722  0.00015618  1
  Cu  Cu109  1  0.67708662  -0.00202508  -0.00288790  1
  Cu  Cu110  1  0.16468954  0.50057902  0.24677327  1
  Cu  Cu111  1  0.66485914  0.66981506  0.49784658  1
  Cu  Cu112  1  0.51073964  0.83259735  0.74771883  1
  Cu  Cu113  1  0.16929846  0.16508369  0.25617543  1
  Cu  Cu114  1  0.32372310  -0.00205149  -0.00138325  1
  Se  Se115  1  0.07765092  0.07881088  0.05772741  1
  Se  Se116  1  0.08022110  0.08312768  0.55567901  1
  Se  Se117  1  0.08115169  0.41777711  0.04860532  1
  Se  Se118  1  0.08129838  0.41208344  0.56150528  1
  Se  Se119  1  0.08232454  0.75002440  0.05852733  1
  Se  Se120  1  0.07514402  0.74155574  0.55925298  1
  Se  Se121  1  0.40895739  0.07316919  0.05713851  1
  Se  Se122  1  0.42155490  0.08463202  0.54306130  1
  Se  Se123  1  0.40679858  0.40899480  0.06608941  1
  Se  Se124  1  0.41041009  0.41072262  0.55781972  1
  Se  Se125  1  0.41283820  0.73808819  0.06425251  1
  Se  Se126  1  0.41717051  0.75047420  0.55122293  1
  Se  Se127  1  0.74922575  0.07968973  0.06256776  1
  Se  Se128  1  0.75375549  0.08372939  0.55329952  1
  Se  Se129  1  0.74548167  0.41982513  0.04391266  1
  Se  Se130  1  0.75270525  0.41859050  0.55592714  1
  Se  Se131  1  0.75421259  0.75794440  0.05357819  1
  Se  Se132  1  0.75048043  0.74975037  0.55220875  1
  Se  Se133  1  0.25548333  0.24844010  0.06071135  1
  Se  Se134  1  0.24428322  0.25481424  0.55066579  1
  Se  Se135  1  0.24413037  0.57919464  0.05981242  1
  Se  Se136  1  0.25111046  0.58963500  0.55776537  1
  Se  Se137  1  0.24414478  0.90931830  0.04765811  1
  Se  Se138  1  0.25603578  0.92849412  0.56454936  1
  Se  Se139  1  0.59640722  0.26199725  0.05720879  1
  Se  Se140  1  0.58108500  0.24675609  0.55239898  1
  Se  Se141  1  0.58787974  0.59866013  0.05675703  1
  Se  Se142  1  0.58780607  0.58705716  0.56085891  1
  Se  Se143  1  0.59155138  0.92618223  0.05951640  1
  Se  Se144  1  0.58615044  0.91259131  0.55280245  1
  Se  Se145  1  0.92097351  0.25756075  0.05856074  1
  Se  Se146  1  0.91524744  0.24805001  0.55616210  1
  Se  Se147  1  0.91194529  0.58424485  0.05337156  1
  Se  Se148  1  0.91967973  0.58035947  0.54567127  1
  Se  Se149  1  0.91379973  0.91688494  0.05692657  1
  Se  Se150  1  0.91560793  0.91354768  0.55251196  1
  Se  Se151  1  0.08520105  0.25135378  0.44864483  1
  Se  Se152  1  0.06872465  0.25286623  0.93288327  1
  Se  Se153  1  0.07475580  0.59503195  0.44523206  1
  Se  Se154  1  0.08345128  0.58307055  0.94963163  1
  Se  Se155  1  0.07379933  0.92215520  0.43880796  1
  Se  Se156  1  0.08354381  0.91365697  0.94572416  1
  Se  Se157  1  0.42149426  0.25081494  0.44539348  1
  Se  Se158  1  0.40642805  0.26306415  0.94912583  1
  Se  Se159  1  0.41268749  0.58888670  0.43758243  1
  Se  Se160  1  0.41241506  0.59075257  0.94297108  1
  Se  Se161  1  0.40310840  0.92209863  0.45559270  1
  Se  Se162  1  0.41430287  0.92422261  0.94070607  1
  Se  Se163  1  0.75715734  0.24630462  0.45387431  1
  Se  Se164  1  0.73766299  0.25779988  0.93802883  1
  Se  Se165  1  0.74876218  0.58412212  0.44672920  1
  Se  Se166  1  0.75143634  0.58587523  0.94454571  1
  Se  Se167  1  0.75486734  0.91203107  0.44767174  1
  Se  Se168  1  0.75993247  0.91774133  0.94242203  1
  Se  Se169  1  0.24608616  0.08602159  0.45421283  1
  Se  Se170  1  0.25276952  0.07645194  0.93279962  1
  Se  Se171  1  0.26593881  0.41768048  0.43182397  1
  Se  Se172  1  0.24855082  0.40730027  0.95075697  1
  Se  Se173  1  0.24745901  0.74660719  0.44143833  1
  Se  Se174  1  0.24926355  0.74902621  0.95021426  1
  Se  Se175  1  0.58773596  0.08071470  0.45086531  1
  Se  Se176  1  0.59443800  0.07939824  0.93954060  1
  Se  Se177  1  0.59654553  0.40616779  0.43866809  1
  Se  Se178  1  0.58478918  0.41479971  0.93924930  1
  Se  Se179  1  0.57856646  0.75093809  0.44552670  1
  Se  Se180  1  0.59248021  0.75284309  0.93757993  1
  Se  Se181  1  0.91297465  0.08573458  0.44607229  1
  Se  Se182  1  0.92793521  0.08069855  0.93795776  1
  Se  Se183  1  0.91819391  0.41792199  0.45070649  1
  Se  Se184  1  0.91050979  0.41999793  0.94427394  1
  Se  Se185  1  0.91147992  0.75325414  0.45116404  1
  Se  Se186  1  0.91567785  0.75225523  0.95044824  1
  Se  Se187  1  0.25713568  0.24603780  0.30531270  1
  Se  Se188  1  0.23624379  0.24276492  0.80354120  1
  Se  Se189  1  0.24858469  0.58599567  0.29890147  1
  Se  Se190  1  0.24913533  0.58561870  0.80670946  1
  Se  Se191  1  0.24053615  0.90910244  0.31248698  1
  Se  Se192  1  0.25228175  0.91193348  0.81200896  1
  Se  Se193  1  0.58808378  0.24513738  0.31582628  1
  Se  Se194  1  0.57721006  0.25135589  0.79758471  1
  Se  Se195  1  0.57240374  0.56994019  0.30136691  1
  Se  Se196  1  0.59185572  0.58748529  0.80083687  1
  Se  Se197  1  0.58276391  0.91920746  0.31021684  1
  Se  Se198  1  0.59205522  0.92112622  0.79745787  1
  Se  Se199  1  0.91403947  0.24822548  0.31179403  1
  Se  Se200  1  0.90682683  0.24655078  0.79868860  1
  Se  Se201  1  0.91619678  0.59280999  0.30606558  1
  Se  Se202  1  0.91049309  0.57690680  0.81069572  1
  Se  Se203  1  0.91501961  0.91543735  0.30431597  1
  Se  Se204  1  0.91967976  0.91493311  0.80095905  1
  Se  Se205  1  0.08259075  0.08213658  0.30472110  1
  Se  Se206  1  0.08278682  0.07664706  0.78890390  1
  Se  Se207  1  0.08892821  0.42427202  0.31466314  1
  Se  Se208  1  0.07866695  0.41801437  0.80249479  1
  Se  Se209  1  0.07653532  0.74764475  0.30341376  1
  Se  Se210  1  0.08572252  0.75264963  0.81146638  1
  Se  Se211  1  0.42445681  0.08247558  0.31794838  1
  Se  Se212  1  0.42056850  0.09046617  0.80677708  1
  Se  Se213  1  0.42120854  0.40903731  0.29151742  1
  Se  Se214  1  0.42191957  0.43104806  0.81245639  1
  Se  Se215  1  0.41379895  0.75162995  0.30520517  1
  Se  Se216  1  0.42527937  0.75400951  0.80357917  1
  Se  Se217  1  0.74870823  0.07816488  0.30705533  1
  Se  Se218  1  0.74775618  0.07863486  0.79738963  1
  Se  Se219  1  0.76198768  0.42240642  0.30689597  1
  Se  Se220  1  0.74600722  0.41343270  0.80239629  1
  Se  Se221  1  0.74429155  0.74776158  0.30722475  1
  Se  Se222  1  0.75269765  0.74623798  0.80005335  1
  Se  Se223  1  0.24325741  0.08274164  0.19007255  1
  Se  Se224  1  0.24563591  0.09552385  0.69063834  1
  Se  Se225  1  0.24653989  0.41144901  0.19832184  1
  Se  Se226  1  0.24594475  0.42693716  0.68965583  1
  Se  Se227  1  0.24708294  0.74837109  0.19938755  1
  Se  Se228  1  0.26020922  0.75026110  0.70418789  1
  Se  Se229  1  0.59063687  0.08086732  0.20514225  1
  Se  Se230  1  0.58484975  0.07998228  0.69208605  1
  Se  Se231  1  0.57969825  0.42836020  0.18571157  1
  Se  Se232  1  0.58057508  0.41654967  0.69842391  1
  Se  Se233  1  0.58434759  0.75303444  0.20110472  1
  Se  Se234  1  0.59207799  0.74604706  0.69523565  1
  Se  Se235  1  0.92062753  0.07872288  0.20522582  1
  Se  Se236  1  0.91663487  0.07874939  0.69296986  1
  Se  Se237  1  0.91262812  0.42582826  0.19042340  1
  Se  Se238  1  0.91521468  0.41420564  0.69811907  1
  Se  Se239  1  0.91301282  0.75162231  0.19712260  1
  Se  Se240  1  0.90832852  0.75150957  0.68419309  1
  Se  Se241  1  0.09227442  0.24089688  0.18846907  1
  Se  Se242  1  0.07319482  0.25367078  0.69991302  1
  Se  Se243  1  0.07664076  0.58376378  0.19816478  1
  Se  Se244  1  0.08816253  0.57691201  0.68675446  1
  Se  Se245  1  0.07801813  0.91734987  0.19819725  1
  Se  Se246  1  0.09746606  0.90054105  0.69847871  1
  Se  Se247  1  0.42186650  0.24522242  0.20530261  1
  Se  Se248  1  0.41216438  0.24269577  0.68460360  1
  Se  Se249  1  0.40982561  0.58494705  0.20416702  1
  Se  Se250  1  0.41703969  0.59262172  0.69964137  1
  Se  Se251  1  0.42165924  0.90775656  0.18843027  1
  Se  Se252  1  0.43032943  0.90965417  0.68411187  1
  Se  Se253  1  0.76336298  0.24511282  0.19199981  1
  Se  Se254  1  0.74419507  0.25095579  0.69235281  1
  Se  Se255  1  0.74754028  0.58989463  0.19422404  1
  Se  Se256  1  0.75179033  0.58555651  0.69460381  1
  Se  Se257  1  0.74514507  0.91816749  0.20081726  1
  Se  Se258  1  0.75037407  0.91722968  0.69380190  1
