# generated using pymatgen
data_In86Cu29Se144
_symmetry_space_group_name_H-M   'P 1'
_cell_length_a   17.57585815
_cell_length_b   17.57383154
_cell_length_c   23.44297295
_cell_angle_alpha   90.02842878
_cell_angle_beta   90.00083045
_cell_angle_gamma   90.00009460
_symmetry_Int_Tables_number   1
_chemical_formula_structural   In86Cu29Se144
_chemical_formula_sum   'In86 Cu29 Se144'
_cell_volume   7240.95136901
_cell_formula_units_Z   1
loop_
 _symmetry_equiv_pos_site_id
 _symmetry_equiv_pos_as_xyz
  1  'x, y, z'
loop_
 _atom_site_type_symbol
 _atom_site_label
 _atom_site_symmetry_multiplicity
 _atom_site_fract_x
 _atom_site_fract_y
 _atom_site_fract_z
 _atom_site_occupancy
  In  In0  1  0.01782880  0.16831242  0.12816247  1
  In  In1  1  -0.00687185  0.18164920  0.63468260  1
  In  In2  1  -0.01023842  0.49343196  0.12268680  1
  In  In3  1  -0.00589903  0.50041591  0.62193137  1
  In  In4  1  -0.01720430  0.83818108  0.11486616  1
  In  In5  1  0.00304509  0.83122555  0.63533384  1
  In  In6  1  0.34737225  0.15638367  0.14052092  1
  In  In7  1  0.33464238  0.16420441  0.62082772  1
  In  In8  1  0.34081780  0.49066741  0.13759294  1
  In  In9  1  0.34400899  0.50581098  0.61682851  1
  In  In10  1  0.33932130  0.82745335  0.12599188  1
  In  In11  1  0.33476416  0.83368360  0.63389945  1
  In  In12  1  0.63845411  0.16999640  0.11804813  1
  In  In13  1  0.68446447  0.19137065  0.60463115  1
  In  In14  1  0.66858674  0.48862746  0.10894222  1
  In  In15  1  0.66888345  0.49445036  0.62604228  1
  In  In16  1  0.67447349  0.84069612  0.11543648  1
  In  In17  1  0.65330731  0.82830173  0.63153010  1
  In  In18  1  0.17122876  -0.00969278  0.37108149  1
  In  In19  1  0.16930295  -0.00162657  0.86954125  1
  In  In20  1  0.17599282  0.34394499  0.36422362  1
  In  In21  1  0.16338993  0.34156401  0.86919314  1
  In  In22  1  0.17303433  0.64488519  0.38054410  1
  In  In23  1  0.16616318  0.67047828  0.86446981  1
  In  In24  1  0.50573779  0.01092929  0.36211426  1
  In  In25  1  0.48941236  0.00432372  0.88473778  1
  In  In26  1  0.48203789  0.34326326  0.39561331  1
  In  In27  1  0.51415370  0.32590647  0.88648598  1
  In  In28  1  0.49126960  0.66324525  0.37477294  1
  In  In29  1  0.50251335  0.66406804  0.87533789  1
  In  In30  1  0.83475479  0.01755251  0.37407472  1
  In  In31  1  0.83713581  -0.00835635  0.87742412  1
  In  In32  1  0.83641591  0.32433302  0.38347406  1
  In  In33  1  0.83821637  0.34339229  0.87005020  1
  In  In34  1  0.82513406  0.65777631  0.37969380  1
  In  In35  1  0.83022454  0.66531925  0.86951759  1
  In  In36  1  -0.01387289  0.17085187  0.37582853  1
  In  In37  1  -0.00132025  0.16779100  0.86490269  1
  In  In38  1  0.02038630  0.48756042  0.39552384  1
  In  In39  1  -0.01081651  0.49430739  0.86445640  1
  In  In40  1  -0.00065938  0.83581483  0.37590994  1
  In  In41  1  -0.00410468  0.82929572  0.86831623  1
  In  In42  1  0.34533272  0.18465352  0.35658789  1
  In  In43  1  0.35233016  0.16439934  0.87788225  1
  In  In44  1  0.33261679  0.49661302  0.37752878  1
  In  In45  1  0.33746270  0.51273140  0.87106719  1
  In  In46  1  0.33494337  0.83490867  0.36093529  1
  In  In47  1  0.34456446  0.84066295  0.87290445  1
  In  In48  1  0.67067458  0.17066898  0.38034094  1
  In  In49  1  0.65465992  0.16772037  0.87502415  1
  In  In50  1  0.67234275  0.47802764  0.39815236  1
  In  In51  1  0.66353943  0.49894640  0.87318159  1
  In  In52  1  0.65328377  0.83267417  0.37122521  1
  In  In53  1  0.67473307  0.82421182  0.88165683  1
  In  In54  1  0.17711149  0.00334059  0.12633321  1
  In  In55  1  0.17251804  -0.00104335  0.63318787  1
  In  In56  1  0.17372863  0.31818179  0.14715986  1
  In  In57  1  0.15522992  0.33053308  0.62301552  1
  In  In58  1  0.17516879  0.67389339  0.12680990  1
  In  In59  1  0.16752758  0.66284389  0.62842291  1
  In  In60  1  0.49768088  0.00294928  0.12279410  1
  In  In61  1  0.49569227  0.00582407  0.63069168  1
  In  In62  1  0.49830854  0.32879277  0.11610412  1
  In  In63  1  0.51571709  0.35039416  0.60534501  1
  In  In64  1  0.49353347  0.65446659  0.12088729  1
  In  In65  1  0.50984814  0.65464568  0.64084731  1
  In  In66  1  0.83475276  -0.01240506  0.11846266  1
  In  In67  1  0.83132847  0.01844761  0.62672756  1
  In  In68  1  0.83060322  0.34474911  0.12320472  1
  In  In69  1  0.82948855  0.34065226  0.62332686  1
  In  In70  1  0.82689542  0.65998543  0.11244470  1
  In  In71  1  0.84869252  0.64370946  0.63835677  1
  In  In72  1  0.16685423  0.83295436  0.00327916  1
  In  In73  1  0.00341717  0.00375611  0.24319261  1
  In  In74  1  0.66553184  0.00175188  0.75612356  1
  In  In75  1  0.65857569  0.66215982  0.25112323  1
  In  In76  1  0.17016538  0.17094887  0.49738407  1
  In  In77  1  0.83173229  0.16755057  -0.00754231  1
  In  In78  1  0.17268015  0.16281467  0.00717667  1
  In  In79  1  0.16498691  0.49667414  -0.00067867  1
  In  In80  1  0.16864749  0.82695930  0.50695195  1
  In  In81  1  0.82996602  0.82845901  0.50455991  1
  In  In82  1  0.49888789  0.82949811  0.50359616  1
  In  In83  1  0.33406672  0.33240408  0.74423495  1
  In  In84  1  0.66354864  0.32872982  0.25017338  1
  In  In85  1  0.00504269  0.66246683  0.25426584  1
  Cu  Cu86  1  0.17296383  0.15990916  0.74680668  1
  Cu  Cu87  1  0.83161336  0.83302983  0.75441184  1
  Cu  Cu88  1  0.83565619  0.17597973  0.74617220  1
  Cu  Cu89  1  0.82934296  0.83540704  0.24115772  1
  Cu  Cu90  1  0.15851923  0.50169188  0.74672969  1
  Cu  Cu91  1  0.49986120  0.49719024  0.74851040  1
  Cu  Cu92  1  0.83493163  0.49967785  0.24943433  1
  Cu  Cu93  1  0.34228613  0.00374762  0.49396387  1
  Cu  Cu94  1  0.65918804  0.00361936  -0.00119939  1
  Cu  Cu95  1  0.66720282  0.65511041  0.51161844  1
  Cu  Cu96  1  -0.00372222  0.33448254  0.50412319  1
  Cu  Cu97  1  0.66711320  0.66849025  -0.00609909  1
  Cu  Cu98  1  0.16554518  0.83271318  0.75047033  1
  Cu  Cu99  1  0.66789778  0.00617029  0.49441620  1
  Cu  Cu100  1  -0.00916209  0.66401723  -0.00936091  1
  Cu  Cu101  1  0.50164577  0.83958486  0.24343076  1
  Cu  Cu102  1  0.50502832  0.16888913  0.74952517  1
  Cu  Cu103  1  0.82855424  0.49965865  0.74763716  1
  Cu  Cu104  1  0.33857023  0.66606849  -0.00040883  1
  Cu  Cu105  1  -0.00168296  0.01001559  0.50653763  1
  Cu  Cu106  1  0.49959151  0.16923906  0.24841517  1
  Cu  Cu107  1  0.34319888  0.33621993  0.00490316  1
  Cu  Cu108  1  0.49357649  0.82935175  0.75791007  1
  Cu  Cu109  1  0.50000484  0.49656915  0.25747614  1
  Cu  Cu110  1  0.17492811  0.83113230  0.24717804  1
  Cu  Cu111  1  0.17083786  0.50073684  0.25702630  1
  Cu  Cu112  1  0.82530602  0.16730445  0.25162461  1
  Cu  Cu113  1  0.00220560  0.33305264  -0.00079988  1
  Cu  Cu114  1  0.33556929  0.65948169  0.50148676  1
  Se  Se115  1  0.07477702  0.06737096  0.05614846  1
  Se  Se116  1  0.08342629  0.08505980  0.56502130  1
  Se  Se117  1  0.08670012  0.40253939  0.06422418  1
  Se  Se118  1  0.08212288  0.41856484  0.55368721  1
  Se  Se119  1  0.07107300  0.73644183  0.05759979  1
  Se  Se120  1  0.06993488  0.74222130  0.55939722  1
  Se  Se121  1  0.42059666  0.09633712  0.05818824  1
  Se  Se122  1  0.42090306  0.08145773  0.55369643  1
  Se  Se123  1  0.41896554  0.42762083  0.05661625  1
  Se  Se124  1  0.40809556  0.41243294  0.54780560  1
  Se  Se125  1  0.42054677  0.74874549  0.05418975  1
  Se  Se126  1  0.41291789  0.73911373  0.56504175  1
  Se  Se127  1  0.74184962  0.08332670  0.05892375  1
  Se  Se128  1  0.75516496  0.08535973  0.54705753  1
  Se  Se129  1  0.76659347  0.42208150  0.04473424  1
  Se  Se130  1  0.73796306  0.40777149  0.55261674  1
  Se  Se131  1  0.75227855  0.75214670  0.04763766  1
  Se  Se132  1  0.74335641  0.74184933  0.56879121  1
  Se  Se133  1  0.25785016  0.25967864  0.06376342  1
  Se  Se134  1  0.25801807  0.26283311  0.55656977  1
  Se  Se135  1  0.25725424  0.58492671  0.05966995  1
  Se  Se136  1  0.24621522  0.58377127  0.55509561  1
  Se  Se137  1  0.26225357  0.92395991  0.05604468  1
  Se  Se138  1  0.26310129  0.92500189  0.55657586  1
  Se  Se139  1  0.60269419  0.27617250  0.04931804  1
  Se  Se140  1  0.55602320  0.22278389  0.55924506  1
  Se  Se141  1  0.58819909  0.58636438  0.05240627  1
  Se  Se142  1  0.57561650  0.57785398  0.56102485  1
  Se  Se143  1  0.57936101  0.91791517  0.05334904  1
  Se  Se144  1  0.59186087  0.92598015  0.55711245  1
  Se  Se145  1  0.92496612  0.24988781  0.05921389  1
  Se  Se146  1  0.91430162  0.24999384  0.55738334  1
  Se  Se147  1  0.91773278  0.57789416  0.04995970  1
  Se  Se148  1  0.90743253  0.57836297  0.55226948  1
  Se  Se149  1  0.91094415  0.91714510  0.04146409  1
  Se  Se150  1  0.92069231  0.92261558  0.56291782  1
  Se  Se151  1  0.07656016  0.25892509  0.43903839  1
  Se  Se152  1  0.08361077  0.25249606  0.94099585  1
  Se  Se153  1  0.07463569  0.60019627  0.45241318  1
  Se  Se154  1  0.07877054  0.58635323  0.93588352  1
  Se  Se155  1  0.07673155  0.92593978  0.44860381  1
  Se  Se156  1  0.07965893  0.91805617  0.93901312  1
  Se  Se157  1  0.40404938  0.23902105  0.44693134  1
  Se  Se158  1  0.42185137  0.24828136  0.95211428  1
  Se  Se159  1  0.41968559  0.57897869  0.44679937  1
  Se  Se160  1  0.42000238  0.58059339  0.94667885  1
  Se  Se161  1  0.41708642  0.91748108  0.43566098  1
  Se  Se162  1  0.41647057  0.91163326  0.95111399  1
  Se  Se163  1  0.74033417  0.25928061  0.45085729  1
  Se  Se164  1  0.74404217  0.26034648  0.93642619  1
  Se  Se165  1  0.75213998  0.57839478  0.45416371  1
  Se  Se166  1  0.74987482  0.58386068  0.94042810  1
  Se  Se167  1  0.74508992  0.91788448  0.43751259  1
  Se  Se168  1  0.74551961  0.92261746  0.94629125  1
  Se  Se169  1  0.25576305  0.07806388  0.43623466  1
  Se  Se170  1  0.25853471  0.07758011  0.94093935  1
  Se  Se171  1  0.23298955  0.42920600  0.44204380  1
  Se  Se172  1  0.26112903  0.40874373  0.94063685  1
  Se  Se173  1  0.26348854  0.74808830  0.44079175  1
  Se  Se174  1  0.25274963  0.74128423  0.94136506  1
  Se  Se175  1  0.57988146  0.08253449  0.44080795  1
  Se  Se176  1  0.57713257  0.08990932  0.94838809  1
  Se  Se177  1  0.57985336  0.40627727  0.46239542  1
  Se  Se178  1  0.57251004  0.43312447  0.94597357  1
  Se  Se179  1  0.59273254  0.73608696  0.44651087  1
  Se  Se180  1  0.57833381  0.75202033  0.94607421  1
  Se  Se181  1  0.91391993  0.08782169  0.45061113  1
  Se  Se182  1  0.93027595  0.07855292  0.94092883  1
  Se  Se183  1  0.91221002  0.41752238  0.44986821  1
  Se  Se184  1  0.92252283  0.41681566  0.94454579  1
  Se  Se185  1  0.92205961  0.74371359  0.44183093  1
  Se  Se186  1  0.91208029  0.75153241  0.93924186  1
  Se  Se187  1  0.23708084  0.24370474  0.29847261  1
  Se  Se188  1  0.24941075  0.24099142  0.81121637  1
  Se  Se189  1  0.25870387  0.58563331  0.30373852  1
  Se  Se190  1  0.24621889  0.57996439  0.80040998  1
  Se  Se191  1  0.25429600  0.92326833  0.29480234  1
  Se  Se192  1  0.25239722  0.91308631  0.80382077  1
  Se  Se193  1  0.57156211  0.24968733  0.31465389  1
  Se  Se194  1  0.58391210  0.25555081  0.80319687  1
  Se  Se195  1  0.58654027  0.56665388  0.31939800  1
  Se  Se196  1  0.58171083  0.58279130  0.80245085  1
  Se  Se197  1  0.58693258  0.91887307  0.29816563  1
  Se  Se198  1  0.57687050  0.91182243  0.81615013  1
  Se  Se199  1  0.90867094  0.25163243  0.30302070  1
  Se  Se200  1  0.91945278  0.25787043  0.80112427  1
  Se  Se201  1  0.91405890  0.57429522  0.31349975  1
  Se  Se202  1  0.91420288  0.58540608  0.79841159  1
  Se  Se203  1  0.91019763  0.91289525  0.30457394  1
  Se  Se204  1  0.91668956  0.92037158  0.80126295  1
  Se  Se205  1  0.08351043  0.08726482  0.31313042  1
  Se  Se206  1  0.08607879  0.08227180  0.80216246  1
  Se  Se207  1  0.07614827  0.42388566  0.30549121  1
  Se  Se208  1  0.07839510  0.41377782  0.79822672  1
  Se  Se209  1  0.09674578  0.75609555  0.31258985  1
  Se  Se210  1  0.07765190  0.74791586  0.79810238  1
  Se  Se211  1  0.41116524  0.08061012  0.29466628  1
  Se  Se212  1  0.42435926  0.08289047  0.80272208  1
  Se  Se213  1  0.41783774  0.41162748  0.30997241  1
  Se  Se214  1  0.42197029  0.41589443  0.81060840  1
  Se  Se215  1  0.42641035  0.75104954  0.30040679  1
  Se  Se216  1  0.41066664  0.74143706  0.80694463  1
  Se  Se217  1  0.74265820  0.08505389  0.30471049  1
  Se  Se218  1  0.76090127  0.09464001  0.81156119  1
  Se  Se219  1  0.75270446  0.42051405  0.31063194  1
  Se  Se220  1  0.74636706  0.41656163  0.80221851  1
  Se  Se221  1  0.75660153  0.75510654  0.30639985  1
  Se  Se222  1  0.74421752  0.74931566  0.80195355  1
  Se  Se223  1  0.22673273  0.10759798  0.19214575  1
  Se  Se224  1  0.26233214  0.08165395  0.69613034  1
  Se  Se225  1  0.25411746  0.41401292  0.20608700  1
  Se  Se226  1  0.24276690  0.42417695  0.68713352  1
  Se  Se227  1  0.25982182  0.74477624  0.19886419  1
  Se  Se228  1  0.24837206  0.74888370  0.69647993  1
  Se  Se229  1  0.58151095  0.08371923  0.19582444  1
  Se  Se230  1  0.59133899  0.09379803  0.68842743  1
  Se  Se231  1  0.58093899  0.42568600  0.19027541  1
  Se  Se232  1  0.57968097  0.41213894  0.69330365  1
  Se  Se233  1  0.58173916  0.75541970  0.18504088  1
  Se  Se234  1  0.58240434  0.74910374  0.70718693  1
  Se  Se235  1  0.90617538  0.09100298  0.18643607  1
  Se  Se236  1  0.91892576  0.08535735  0.69973174  1
  Se  Se237  1  0.91661121  0.41331001  0.19815300  1
  Se  Se238  1  0.91505797  0.41734024  0.69421110  1
  Se  Se239  1  0.91047925  0.74720852  0.18977359  1
  Se  Se240  1  0.91346940  0.75005081  0.69884715  1
  Se  Se241  1  0.06396772  0.25971915  0.20507796  1
  Se  Se242  1  0.08922324  0.25099478  0.70168195  1
  Se  Se243  1  0.09243876  0.57350120  0.18854459  1
  Se  Se244  1  0.07536939  0.58462817  0.69311343  1
  Se  Se245  1  0.08764554  0.90169535  0.18519038  1
  Se  Se246  1  0.08384098  0.92066441  0.69926805  1
  Se  Se247  1  0.42170175  0.26108781  0.19658728  1
  Se  Se248  1  0.42807033  0.24779740  0.68577835  1
  Se  Se249  1  0.42135783  0.58276809  0.20175754  1
  Se  Se250  1  0.40907889  0.57933549  0.70014699  1
  Se  Se251  1  0.41385692  0.92031119  0.19259182  1
  Se  Se252  1  0.42114699  0.91656109  0.69925715  1
  Se  Se253  1  0.74998675  0.24204908  0.18408064  1
  Se  Se254  1  0.74738339  0.25327064  0.69293267  1
  Se  Se255  1  0.75159521  0.57513245  0.18983790  1
  Se  Se256  1  0.74045491  0.58338340  0.69845719  1
  Se  Se257  1  0.74664631  0.92151302  0.19262160  1
  Se  Se258  1  0.75459267  0.91350179  0.69048939  1
