# generated using pymatgen
data_In86Cu29Se144
_symmetry_space_group_name_H-M   'P 1'
_cell_length_a   17.58409752
_cell_length_b   17.58295979
_cell_length_c   23.43559710
_cell_angle_alpha   89.99671565
_cell_angle_beta   90.00594186
_cell_angle_gamma   89.98217079
_symmetry_Int_Tables_number   1
_chemical_formula_structural   In86Cu29Se144
_chemical_formula_sum   'In86 Cu29 Se144'
_cell_volume   7245.82875349
_cell_formula_units_Z   1
loop_
 _symmetry_equiv_pos_site_id
 _symmetry_equiv_pos_as_xyz
  1  'x, y, z'
loop_
 _atom_site_type_symbol
 _atom_site_label
 _atom_site_symmetry_multiplicity
 _atom_site_fract_x
 _atom_site_fract_y
 _atom_site_fract_z
 _atom_site_occupancy
  In  In0  1  0.01729321  0.16951468  0.13012978  1
  In  In1  1  0.00237886  0.16242117  0.62968460  1
  In  In2  1  0.01174375  0.48887269  0.13096544  1
  In  In3  1  0.00851669  0.49393552  0.62769527  1
  In  In4  1  -0.01364607  0.83062666  0.13238795  1
  In  In5  1  0.01206150  0.83868253  0.60861609  1
  In  In6  1  0.33813063  0.16211288  0.14011926  1
  In  In7  1  0.33881928  0.15650243  0.61068666  1
  In  In8  1  0.32414212  0.50363790  0.13353508  1
  In  In9  1  0.32370997  0.50054283  0.62986049  1
  In  In10  1  0.33855747  0.82785585  0.15096175  1
  In  In11  1  0.33795576  0.84870653  0.59911828  1
  In  In12  1  0.66404728  0.16852674  0.13505852  1
  In  In13  1  0.66268371  0.16593945  0.63068562  1
  In  In14  1  0.66256792  0.50484798  0.13696598  1
  In  In15  1  0.67043582  0.49013715  0.63357229  1
  In  In16  1  0.66363430  0.83651581  0.14410742  1
  In  In17  1  0.66616186  0.84086920  0.62402968  1
  In  In18  1  0.19530770  -0.01664958  0.40565623  1
  In  In19  1  0.17467484  0.00744083  0.85311732  1
  In  In20  1  0.17103814  0.33469331  0.38221737  1
  In  In21  1  0.17179897  0.34254820  0.85947096  1
  In  In22  1  0.16492396  0.66096921  0.37659371  1
  In  In23  1  0.15524205  0.66588158  0.87781771  1
  In  In24  1  0.49956324  -0.00043375  0.38494287  1
  In  In25  1  0.50132134  0.00372975  0.86359042  1
  In  In26  1  0.49135879  0.32235476  0.37350588  1
  In  In27  1  0.48736442  0.33863522  0.85923542  1
  In  In28  1  0.51240047  0.68899756  0.35998361  1
  In  In29  1  0.50926176  0.65976810  0.87071071  1
  In  In30  1  0.82147336  -0.00558013  0.37520821  1
  In  In31  1  0.83313826  0.00017066  0.84269899  1
  In  In32  1  0.83733792  0.33235496  0.37062268  1
  In  In33  1  0.83782848  0.33053202  0.86088306  1
  In  In34  1  0.84127978  0.67523503  0.37814666  1
  In  In35  1  0.81955932  0.67391428  0.87180189  1
  In  In36  1  0.00882430  0.17861973  0.37316873  1
  In  In37  1  0.00698868  0.17180263  0.85346663  1
  In  In38  1  0.01636320  0.51390756  0.37353297  1
  In  In39  1  0.01475588  0.49886281  0.87543835  1
  In  In40  1  0.01407250  0.80653004  0.39906061  1
  In  In41  1  -0.00777912  0.83131106  0.86480136  1
  In  In42  1  0.33508682  0.16398416  0.38680018  1
  In  In43  1  0.33317410  0.16540388  0.86483538  1
  In  In44  1  0.32621924  0.49482474  0.37234857  1
  In  In45  1  0.32547739  0.48595475  0.86952096  1
  In  In46  1  0.34055774  0.84038134  0.37737942  1
  In  In47  1  0.32303644  0.84128112  0.86853540  1
  In  In48  1  0.65709383  0.15231682  0.37230608  1
  In  In49  1  0.67427561  0.16924164  0.85510488  1
  In  In50  1  0.66597521  0.49850349  0.37150433  1
  In  In51  1  0.65450658  0.50145605  0.85609615  1
  In  In52  1  0.66694262  0.83768757  0.38157311  1
  In  In53  1  0.67288266  0.83452716  0.85323361  1
  In  In54  1  0.17252050  0.00882584  0.13087524  1
  In  In55  1  0.16949797  0.00232235  0.61244515  1
  In  In56  1  0.15695829  0.33613473  0.13519522  1
  In  In57  1  0.17569565  0.33769553  0.62707401  1
  In  In58  1  0.17600203  0.65372927  0.13668316  1
  In  In59  1  0.16384357  0.66604255  0.60677139  1
  In  In60  1  0.50270412  -0.00749887  0.14368354  1
  In  In61  1  0.49186794  0.00060236  0.61535579  1
  In  In62  1  0.49737670  0.33292269  0.13794654  1
  In  In63  1  0.51369381  0.32138707  0.63119617  1
  In  In64  1  0.49927751  0.66951295  0.14285108  1
  In  In65  1  0.49697168  0.68098693  0.61696987  1
  In  In66  1  0.82915004  -0.01208648  0.12677899  1
  In  In67  1  0.85074662  -0.01538867  0.64506749  1
  In  In68  1  0.83482135  0.33635436  0.13299949  1
  In  In69  1  0.83416473  0.32291655  0.63942689  1
  In  In70  1  0.82898970  0.67397468  0.13796344  1
  In  In71  1  0.82784988  0.67203354  0.62129608  1
  In  In72  1  0.83018259  0.83059320  -0.01005976  1
  In  In73  1  0.84096367  0.16717371  -0.01291739  1
  In  In74  1  0.17160016  0.17011947  -0.00387699  1
  In  In75  1  0.49403989  0.50131218  -0.00118160  1
  In  In76  1  0.83504164  0.50214471  0.00080866  1
  In  In77  1  0.00120888  0.66582693  0.74108132  1
  In  In78  1  0.49327479  0.50346880  0.49796546  1
  In  In79  1  0.00010273  0.00308933  0.25672060  1
  In  In80  1  0.49693375  0.16541719  -0.00265312  1
  In  In81  1  0.16410276  0.83276640  0.00521212  1
  In  In82  1  0.83788182  0.49887748  0.50831288  1
  In  In83  1  0.50172352  0.83060458  0.01175515  1
  In  In84  1  0.82982615  0.16229146  0.51077956  1
  In  In85  1  0.33621378  0.67252315  0.74255289  1
  Cu  Cu86  1  0.67305501  0.00306438  -0.00289245  1
  Cu  Cu87  1  0.33705759  -0.00684729  0.00297026  1
  Cu  Cu88  1  0.83277266  0.16828992  0.25451113  1
  Cu  Cu89  1  0.17169353  0.16638475  0.73630762  1
  Cu  Cu90  1  0.16341628  0.49478045  0.25465884  1
  Cu  Cu91  1  0.00844845  0.34071170  0.50054573  1
  Cu  Cu92  1  0.00673854  0.33349510  0.00184862  1
  Cu  Cu93  1  0.49647612  0.49755585  0.25703615  1
  Cu  Cu94  1  0.66246175  0.33755880  -0.00212073  1
  Cu  Cu95  1  0.17614506  0.16277464  0.26235843  1
  Cu  Cu96  1  0.66357429  0.66932481  0.49903285  1
  Cu  Cu97  1  0.33220884  0.66810387  0.49089818  1
  Cu  Cu98  1  0.83405322  0.83335988  0.25915704  1
  Cu  Cu99  1  0.00438962  -0.00318497  -0.01529128  1
  Cu  Cu100  1  0.33480588  0.33350682  0.50221282  1
  Cu  Cu101  1  0.48696792  0.15834094  0.74255367  1
  Cu  Cu102  1  0.83588040  0.50430310  0.74727129  1
  Cu  Cu103  1  0.66280787  0.67054139  0.00077663  1
  Cu  Cu104  1  0.66438811  0.32236682  0.50036567  1
  Cu  Cu105  1  0.32312903  0.33645926  -0.00047624  1
  Cu  Cu106  1  0.66428919  -0.00328961  0.50294295  1
  Cu  Cu107  1  0.83332113  0.50112561  0.25410446  1
  Cu  Cu108  1  0.15971255  0.83366596  0.26669717  1
  Cu  Cu109  1  0.49721764  0.83742131  0.73652739  1
  Cu  Cu110  1  0.32726652  0.65774373  0.00773005  1
  Cu  Cu111  1  0.00684239  0.65517180  0.00507165  1
  Cu  Cu112  1  -0.01032053  0.00934260  0.50450641  1
  Cu  Cu113  1  0.50180532  0.16714360  0.26024816  1
  Cu  Cu114  1  0.17176244  0.83973517  0.73154295  1
  Se  Se115  1  0.07833764  0.07295422  0.05246370  1
  Se  Se116  1  0.07814491  0.09104791  0.55238841  1
  Se  Se117  1  0.09021544  0.41457900  0.05484248  1
  Se  Se118  1  0.09241671  0.42076121  0.55520493  1
  Se  Se119  1  0.07630363  0.74348625  0.06693112  1
  Se  Se120  1  0.08225487  0.74794921  0.53937094  1
  Se  Se121  1  0.41551844  0.07423235  0.06361059  1
  Se  Se122  1  0.39370966  0.05457248  0.54014611  1
  Se  Se123  1  0.40984331  0.40818614  0.06085816  1
  Se  Se124  1  0.41709010  0.41132205  0.56473415  1
  Se  Se125  1  0.40433332  0.74044383  0.06689114  1
  Se  Se126  1  0.41889400  0.75147268  0.54083519  1
  Se  Se127  1  0.75241927  0.08388558  0.05755926  1
  Se  Se128  1  0.74618129  0.06773151  0.56872536  1
  Se  Se129  1  0.74012990  0.41469426  0.06081434  1
  Se  Se130  1  0.74626542  0.40009158  0.55897320  1
  Se  Se131  1  0.74173803  0.75160415  0.06132719  1
  Se  Se132  1  0.74510144  0.75328324  0.55299470  1
  Se  Se133  1  0.25732440  0.25074892  0.06560304  1
  Se  Se134  1  0.25043069  0.25169183  0.55500251  1
  Se  Se135  1  0.24290928  0.57436644  0.05692243  1
  Se  Se136  1  0.26014389  0.58154637  0.54992644  1
  Se  Se137  1  0.25971985  0.91639700  0.06664092  1
  Se  Se138  1  0.22803169  0.90529569  0.54053983  1
  Se  Se139  1  0.58583607  0.25748461  0.05940898  1
  Se  Se140  1  0.58204626  0.23995812  0.55361439  1
  Se  Se141  1  0.58274567  0.59277470  0.06140547  1
  Se  Se142  1  0.59219602  0.58235221  0.56027118  1
  Se  Se143  1  0.59607911  0.92801269  0.06349742  1
  Se  Se144  1  0.57783141  0.91233863  0.55199026  1
  Se  Se145  1  0.92551143  0.25186143  0.05990601  1
  Se  Se146  1  0.92279658  0.26242886  0.55849884  1
  Se  Se147  1  0.91780311  0.58930766  0.06723118  1
  Se  Se148  1  0.92953578  0.59105504  0.56182360  1
  Se  Se149  1  0.92503066  0.92192211  0.05052992  1
  Se  Se150  1  0.90939822  0.92183875  0.55550775  1
  Se  Se151  1  0.08690074  0.24984507  0.45040152  1
  Se  Se152  1  0.07822188  0.25333766  0.93516070  1
  Se  Se153  1  0.08745464  0.58386817  0.45266286  1
  Se  Se154  1  0.09125005  0.57620576  0.95144995  1
  Se  Se155  1  0.06842857  0.92903112  0.44493402  1
  Se  Se156  1  0.08856741  0.91713394  0.92947547  1
  Se  Se157  1  0.42211996  0.24968806  0.45369214  1
  Se  Se158  1  0.40561574  0.25941896  0.93937021  1
  Se  Se159  1  0.41771535  0.59335476  0.42965662  1
  Se  Se160  1  0.40578307  0.59168087  0.93788590  1
  Se  Se161  1  0.39998769  0.93402928  0.45241383  1
  Se  Se162  1  0.41692797  0.91662885  0.94120647  1
  Se  Se163  1  0.74860152  0.24779911  0.43958615  1
  Se  Se164  1  0.74012533  0.25935102  0.93587219  1
  Se  Se165  1  0.74510746  0.58308581  0.44497063  1
  Se  Se166  1  0.73665908  0.58511382  0.94035486  1
  Se  Se167  1  0.75286193  0.91555845  0.45307651  1
  Se  Se168  1  0.74711814  0.92636581  0.93059068  1
  Se  Se169  1  0.24173290  0.10121234  0.45991219  1
  Se  Se170  1  0.25846446  0.07024718  0.93978600  1
  Se  Se171  1  0.25336640  0.42013415  0.45084266  1
  Se  Se172  1  0.24050752  0.41472649  0.94288784  1
  Se  Se173  1  0.25036258  0.75175078  0.43869718  1
  Se  Se174  1  0.25769495  0.74419296  0.94359477  1
  Se  Se175  1  0.58384981  0.08611499  0.45354576  1
  Se  Se176  1  0.59229209  0.08114907  0.93676129  1
  Se  Se177  1  0.58767096  0.40909613  0.44299535  1
  Se  Se178  1  0.58358591  0.41356149  0.93566434  1
  Se  Se179  1  0.57875174  0.75185686  0.44712116  1
  Se  Se180  1  0.59029637  0.75456704  0.93857726  1
  Se  Se181  1  0.91551699  0.08646341  0.43658512  1
  Se  Se182  1  0.92462985  0.07431378  0.92473896  1
  Se  Se183  1  0.92340445  0.41393672  0.44094225  1
  Se  Se184  1  0.91999102  0.40645268  0.94142158  1
  Se  Se185  1  0.90215471  0.75409318  0.45836354  1
  Se  Se186  1  0.92921265  0.73400309  0.94135040  1
  Se  Se187  1  0.25588921  0.24934932  0.31525571  1
  Se  Se188  1  0.25021880  0.24747871  0.79789444  1
  Se  Se189  1  0.24695032  0.58151388  0.30402612  1
  Se  Se190  1  0.24570645  0.58933798  0.80942170  1
  Se  Se191  1  0.24525302  0.92091424  0.31271644  1
  Se  Se192  1  0.25690078  0.91832780  0.78918573  1
  Se  Se193  1  0.58960753  0.25321111  0.30789807  1
  Se  Se194  1  0.56639065  0.24117919  0.80165012  1
  Se  Se195  1  0.58408588  0.58225070  0.30401352  1
  Se  Se196  1  0.59171538  0.60155443  0.79274301  1
  Se  Se197  1  0.59125506  0.92932969  0.31594159  1
  Se  Se198  1  0.57918022  0.91757540  0.79544416  1
  Se  Se199  1  0.92098030  0.25052974  0.30169528  1
  Se  Se200  1  0.90328600  0.23623125  0.79366952  1
  Se  Se201  1  0.91429463  0.58205936  0.31116968  1
  Se  Se202  1  0.91372433  0.58141905  0.81220521  1
  Se  Se203  1  0.92101043  0.90818229  0.31857058  1
  Se  Se204  1  0.92978813  0.91638738  0.79066033  1
  Se  Se205  1  0.09591165  0.07857344  0.31962857  1
  Se  Se206  1  0.08429612  0.08164137  0.78748499  1
  Se  Se207  1  0.08288873  0.41142484  0.31084467  1
  Se  Se208  1  0.06771143  0.40917170  0.79953006  1
  Se  Se209  1  0.07512195  0.74437028  0.31017179  1
  Se  Se210  1  0.09816302  0.75990726  0.79909210  1
  Se  Se211  1  0.41871491  0.08599691  0.31503642  1
  Se  Se212  1  0.40581181  0.07368489  0.79787948  1
  Se  Se213  1  0.41362893  0.41200589  0.30696475  1
  Se  Se214  1  0.42048873  0.43606329  0.79594017  1
  Se  Se215  1  0.40757355  0.75449590  0.30211284  1
  Se  Se216  1  0.42540825  0.76180001  0.80822730  1
  Se  Se217  1  0.75035164  0.08154638  0.30316762  1
  Se  Se218  1  0.73307206  0.07353086  0.78610375  1
  Se  Se219  1  0.75073253  0.41511687  0.30550430  1
  Se  Se220  1  0.75209712  0.41995562  0.80064241  1
  Se  Se221  1  0.74888367  0.75104119  0.31226866  1
  Se  Se222  1  0.76462583  0.75502833  0.79200071  1
  Se  Se223  1  0.25424608  0.07747341  0.20606269  1
  Se  Se224  1  0.25307811  0.08055592  0.68429184  1
  Se  Se225  1  0.24906010  0.41233886  0.20047959  1
  Se  Se226  1  0.25063359  0.41869303  0.70193918  1
  Se  Se227  1  0.23945500  0.74958950  0.20680948  1
  Se  Se228  1  0.25045988  0.75580249  0.67494417  1
  Se  Se229  1  0.58569487  0.08505946  0.20372743  1
  Se  Se230  1  0.57229955  0.07726632  0.68950432  1
  Se  Se231  1  0.58326631  0.41634215  0.20208426  1
  Se  Se232  1  0.58206336  0.41466376  0.69950589  1
  Se  Se233  1  0.58092818  0.75335134  0.20767515  1
  Se  Se234  1  0.58254054  0.75088154  0.68996614  1
  Se  Se235  1  0.91113640  0.09006826  0.18806070  1
  Se  Se236  1  0.89495810  0.10918578  0.69301254  1
  Se  Se237  1  0.91796406  0.41863716  0.19925794  1
  Se  Se238  1  0.91820804  0.41976047  0.69537747  1
  Se  Se239  1  0.91781769  0.74870450  0.20730209  1
  Se  Se240  1  0.91950085  0.76045906  0.68281763  1
  Se  Se241  1  0.08961592  0.24368901  0.20715246  1
  Se  Se242  1  0.08487633  0.25391141  0.69170979  1
  Se  Se243  1  0.07983466  0.58083912  0.20125834  1
  Se  Se244  1  0.10239074  0.58088842  0.69065762  1
  Se  Se245  1  0.08975219  0.90921332  0.19359295  1
  Se  Se246  1  0.08338956  0.92181725  0.68376336  1
  Se  Se247  1  0.41656336  0.25016126  0.20604075  1
  Se  Se248  1  0.41069042  0.24281878  0.68525431  1
  Se  Se249  1  0.41272632  0.57974166  0.20169112  1
  Se  Se250  1  0.42792543  0.58249564  0.68597785  1
  Se  Se251  1  0.41133124  0.92410347  0.21096616  1
  Se  Se252  1  0.40864421  0.91355795  0.68371450  1
  Se  Se253  1  0.75065817  0.25238538  0.19839110  1
  Se  Se254  1  0.72491845  0.26621127  0.69721134  1
  Se  Se255  1  0.74781683  0.58657563  0.20270815  1
  Se  Se256  1  0.75418448  0.58453547  0.69164063  1
  Se  Se257  1  0.75356120  0.92101533  0.20596443  1
  Se  Se258  1  0.74544248  0.91493963  0.69992016  1
