# generated using pymatgen
data_In86Cu29Se144
_symmetry_space_group_name_H-M   'P 1'
_cell_length_a   17.57721729
_cell_length_b   17.57803195
_cell_length_c   23.45112979
_cell_angle_alpha   89.98668306
_cell_angle_beta   89.99858694
_cell_angle_gamma   90.01970179
_symmetry_Int_Tables_number   1
_chemical_formula_structural   In86Cu29Se144
_chemical_formula_sum   'In86 Cu29 Se144'
_cell_volume   7245.76265238
_cell_formula_units_Z   1
loop_
 _symmetry_equiv_pos_site_id
 _symmetry_equiv_pos_as_xyz
  1  'x, y, z'
loop_
 _atom_site_type_symbol
 _atom_site_label
 _atom_site_symmetry_multiplicity
 _atom_site_fract_x
 _atom_site_fract_y
 _atom_site_fract_z
 _atom_site_occupancy
  In  In0  1  0.00576011  0.16186970  0.10721505  1
  In  In1  1  0.00173201  0.16918993  0.62380249  1
  In  In2  1  0.00989005  0.50026160  0.12534704  1
  In  In3  1  0.01116452  0.48592456  0.63169285  1
  In  In4  1  -0.00535948  0.83212843  0.13025364  1
  In  In5  1  -0.01148034  0.84629529  0.63251597  1
  In  In6  1  0.33225046  0.16512603  0.12277450  1
  In  In7  1  0.33130646  0.17937367  0.63036028  1
  In  In8  1  0.34371895  0.49272638  0.14584614  1
  In  In9  1  0.32411934  0.50567286  0.62470291  1
  In  In10  1  0.34276232  0.81992658  0.13112642  1
  In  In11  1  0.32575382  0.82593582  0.62263294  1
  In  In12  1  0.66565612  0.16220344  0.12576212  1
  In  In13  1  0.66370528  0.15001054  0.62679351  1
  In  In14  1  0.64794548  0.49630353  0.13400226  1
  In  In15  1  0.68151021  0.50430827  0.62477265  1
  In  In16  1  0.67026731  0.85007022  0.12736335  1
  In  In17  1  0.66536330  0.83580409  0.62311701  1
  In  In18  1  0.19299986  0.00200144  0.38342859  1
  In  In19  1  0.15664271  0.01402124  0.87383029  1
  In  In20  1  0.17730367  0.32220464  0.38242573  1
  In  In21  1  0.16696297  0.32452064  0.86631655  1
  In  In22  1  0.15561929  0.66829221  0.37462979  1
  In  In23  1  0.16933290  0.66820969  0.86525629  1
  In  In24  1  0.48929618  -0.01229723  0.36790440  1
  In  In25  1  0.50587715  -0.00489109  0.88191138  1
  In  In26  1  0.49666651  0.33327589  0.35565614  1
  In  In27  1  0.48415794  0.32725079  0.87825371  1
  In  In28  1  0.50335957  0.68433231  0.37678875  1
  In  In29  1  0.50189205  0.67198349  0.86753087  1
  In  In30  1  0.82509540  0.00908625  0.38170862  1
  In  In31  1  0.84358544  0.01439803  0.86332598  1
  In  In32  1  0.82138691  0.33505098  0.37311789  1
  In  In33  1  0.83230191  0.31358675  0.87375560  1
  In  In34  1  0.84646684  0.66432188  0.37898657  1
  In  In35  1  0.83666626  0.67546897  0.86616513  1
  In  In36  1  0.00463575  0.16277035  0.38546639  1
  In  In37  1  -0.00300690  0.15965945  0.86887257  1
  In  In38  1  0.00050363  0.51918015  0.37547423  1
  In  In39  1  0.00800335  0.50323138  0.86686197  1
  In  In40  1  0.00359561  0.81784955  0.38066774  1
  In  In41  1  0.00405778  0.83839431  0.86319248  1
  In  In42  1  0.33155757  0.16320658  0.36636469  1
  In  In43  1  0.32201920  0.18271392  0.89442096  1
  In  In44  1  0.32465540  0.48930870  0.36642517  1
  In  In45  1  0.32842932  0.49329048  0.86801823  1
  In  In46  1  0.34322596  0.85069604  0.36449577  1
  In  In47  1  0.34669476  0.83736761  0.87582463  1
  In  In48  1  0.67048024  0.16995333  0.36774483  1
  In  In49  1  0.67859588  0.15600084  0.88202391  1
  In  In50  1  0.67989676  0.49191843  0.36612428  1
  In  In51  1  0.65463167  0.50802713  0.87142030  1
  In  In52  1  0.65521714  0.84332153  0.38332496  1
  In  In53  1  0.66153224  0.83488690  0.86880803  1
  In  In54  1  0.16604378  0.01569860  0.12375476  1
  In  In55  1  0.15705573  0.00005612  0.62662911  1
  In  In56  1  0.17698688  0.32228785  0.12375323  1
  In  In57  1  0.16552553  0.33292142  0.62220892  1
  In  In58  1  0.17255695  0.66410239  0.13659270  1
  In  In59  1  0.17541950  0.65897920  0.62850272  1
  In  In60  1  0.50218854  -0.00136557  0.12342507  1
  In  In61  1  0.51128661  0.00088358  0.62800369  1
  In  In62  1  0.50336223  0.32687334  0.13158652  1
  In  In63  1  0.49301453  0.31949466  0.62912567  1
  In  In64  1  0.48584957  0.65865806  0.12529603  1
  In  In65  1  0.48790936  0.67834795  0.62777483  1
  In  In66  1  0.82671996  0.00155604  0.12764727  1
  In  In67  1  0.83151034  -0.00027828  0.62132692  1
  In  In68  1  0.83807342  0.31608193  0.12540633  1
  In  In69  1  0.85155119  0.33537562  0.62340661  1
  In  In70  1  0.83419445  0.67938976  0.13084599  1
  In  In71  1  0.82498858  0.67408759  0.62989878  1
  In  In72  1  0.66735389  0.33846467  0.75188858  1
  In  In73  1  0.50136368  0.50229631  0.49029143  1
  In  In74  1  0.83969091  0.49822459  0.49670479  1
  In  In75  1  0.17219009  0.49404455  -0.00116171  1
  In  In76  1  0.00916643  -0.00427597  0.25052913  1
  In  In77  1  0.83097947  0.49349131  0.00467162  1
  In  In78  1  0.66677868  0.66480180  0.25399581  1
  In  In79  1  0.49103287  0.15757974  0.49592601  1
  In  In80  1  0.17131653  0.84150072  -0.00713536  1
  In  In81  1  0.16545863  0.83626287  0.50174428  1
  In  In82  1  -0.00478725  0.33801997  0.24924896  1
  In  In83  1  0.49390177  0.48999659  0.00754688  1
  In  In84  1  0.32581597  0.00520059  0.75537877  1
  In  In85  1  0.83426381  0.84743304  0.00400311  1
  Cu  Cu86  1  0.33974132  -0.00246943  0.00176242  1
  Cu  Cu87  1  0.50281671  0.83540570  0.24877746  1
  Cu  Cu88  1  0.66796178  0.32052328  0.49274746  1
  Cu  Cu89  1  -0.00042452  0.32373688  -0.01059048  1
  Cu  Cu90  1  0.83795829  0.50693557  0.74921526  1
  Cu  Cu91  1  0.00304728  0.67589815  0.00159731  1
  Cu  Cu92  1  0.83866732  0.83190862  0.25577153  1
  Cu  Cu93  1  0.83412074  0.16487194  0.74577182  1
  Cu  Cu94  1  0.66724504  0.00489642  0.00157651  1
  Cu  Cu95  1  0.66778687  -0.00186316  0.50061541  1
  Cu  Cu96  1  0.16008152  0.50319029  0.25342159  1
  Cu  Cu97  1  0.49643564  0.50538961  0.74792220  1
  Cu  Cu98  1  0.00063151  0.66683746  0.50581604  1
  Cu  Cu99  1  0.50190744  0.15840257  0.24381777  1
  Cu  Cu100  1  0.17335511  0.16983150  0.24962807  1
  Cu  Cu101  1  0.49661655  0.16409888  0.75690102  1
  Cu  Cu102  1  0.66189489  0.32367564  0.00476786  1
  Cu  Cu103  1  0.49905246  0.83306964  0.74963845  1
  Cu  Cu104  1  0.33873953  0.66064048  0.00599451  1
  Cu  Cu105  1  0.66474801  0.67283890  0.50461759  1
  Cu  Cu106  1  0.33032362  0.67099401  0.50099188  1
  Cu  Cu107  1  0.66266278  0.67248075  -0.00936957  1
  Cu  Cu108  1  0.33128295  0.33664867  0.49894782  1
  Cu  Cu109  1  0.82479752  0.83697341  0.74625357  1
  Cu  Cu110  1  0.83107544  0.16372793  0.24971096  1
  Cu  Cu111  1  -0.00392000  0.00130027  0.50513312  1
  Cu  Cu112  1  0.17132562  0.49619924  0.74632434  1
  Cu  Cu113  1  0.00729288  0.33059551  0.50338249  1
  Cu  Cu114  1  0.16354937  0.82891658  0.74555750  1
  Se  Se115  1  0.09435288  0.08351888  0.04356548  1
  Se  Se116  1  0.08345553  0.08366133  0.55405401  1
  Se  Se117  1  0.07490169  0.40309247  0.05445547  1
  Se  Se118  1  0.08809746  0.42133456  0.55094051  1
  Se  Se119  1  0.08729512  0.74983591  0.06070107  1
  Se  Se120  1  0.07829821  0.74927249  0.56684169  1
  Se  Se121  1  0.42027422  0.08304823  0.05548810  1
  Se  Se122  1  0.40867893  0.07773549  0.56691964  1
  Se  Se123  1  0.40073758  0.40394384  0.06476365  1
  Se  Se124  1  0.41818008  0.41211218  0.55729535  1
  Se  Se125  1  0.42237464  0.74987195  0.05238999  1
  Se  Se126  1  0.41471727  0.75557277  0.55065115  1
  Se  Se127  1  0.75377870  0.08508373  0.05489684  1
  Se  Se128  1  0.74901653  0.08543335  0.55160746  1
  Se  Se129  1  0.73648990  0.40896124  0.06501626  1
  Se  Se130  1  0.74487289  0.40464248  0.55363369  1
  Se  Se131  1  0.74236158  0.74703668  0.05598689  1
  Se  Se132  1  0.75246299  0.75394711  0.55457694  1
  Se  Se133  1  0.23876324  0.23298783  0.05206775  1
  Se  Se134  1  0.25248351  0.25090280  0.55353713  1
  Se  Se135  1  0.25938976  0.57982251  0.06494434  1
  Se  Se136  1  0.24760944  0.58359546  0.54941007  1
  Se  Se137  1  0.25896788  0.91807745  0.06289859  1
  Se  Se138  1  0.25647790  0.92888600  0.55856217  1
  Se  Se139  1  0.57790620  0.24397382  0.05861197  1
  Se  Se140  1  0.58612191  0.24911892  0.55654908  1
  Se  Se141  1  0.59016808  0.59032077  0.05532914  1
  Se  Se142  1  0.58651331  0.58603096  0.56031678  1
  Se  Se143  1  0.58646845  0.91631809  0.05217453  1
  Se  Se144  1  0.58061249  0.91779143  0.55313023  1
  Se  Se145  1  0.91453061  0.24733544  0.04713084  1
  Se  Se146  1  0.91691751  0.24837934  0.55015149  1
  Se  Se147  1  0.92170987  0.59349509  0.05826349  1
  Se  Se148  1  0.92049083  0.58402176  0.56571869  1
  Se  Se149  1  0.93116504  0.93253991  0.06094037  1
  Se  Se150  1  0.91266759  0.91307957  0.55213339  1
  Se  Se151  1  0.09015277  0.24537594  0.45097434  1
  Se  Se152  1  0.08411598  0.24481276  0.93598676  1
  Se  Se153  1  0.08404357  0.58621129  0.45158800  1
  Se  Se154  1  0.08184342  0.59281282  0.94381366  1
  Se  Se155  1  0.07720976  0.92764510  0.43954948  1
  Se  Se156  1  0.06886167  0.92528740  0.94172899  1
  Se  Se157  1  0.41589583  0.26209154  0.43719974  1
  Se  Se158  1  0.42600726  0.24529762  0.95680340  1
  Se  Se159  1  0.40696437  0.59241743  0.43585793  1
  Se  Se160  1  0.41362286  0.58182782  0.93998637  1
  Se  Se161  1  0.41355857  0.91832333  0.44605121  1
  Se  Se162  1  0.42293626  0.91133712  0.95132934  1
  Se  Se163  1  0.75575299  0.24047244  0.44296421  1
  Se  Se164  1  0.75124083  0.24791672  0.95108974  1
  Se  Se165  1  0.73985960  0.58871348  0.44322128  1
  Se  Se166  1  0.74899093  0.58976303  0.93970609  1
  Se  Se167  1  0.75263926  0.91410907  0.44834704  1
  Se  Se168  1  0.74614275  0.92706190  0.93677269  1
  Se  Se169  1  0.25786278  0.09908065  0.44852371  1
  Se  Se170  1  0.25228532  0.07244735  0.94614005  1
  Se  Se171  1  0.24838537  0.42158563  0.44674075  1
  Se  Se172  1  0.25983865  0.40260895  0.94186720  1
  Se  Se173  1  0.25380088  0.75179555  0.43751636  1
  Se  Se174  1  0.25997376  0.73827972  0.94230917  1
  Se  Se175  1  0.58760367  0.07570941  0.43626496  1
  Se  Se176  1  0.58195827  0.08724072  0.94855394  1
  Se  Se177  1  0.59093539  0.40483518  0.43509735  1
  Se  Se178  1  0.59071466  0.40961326  0.94269460  1
  Se  Se179  1  0.57923900  0.75627339  0.45405926  1
  Se  Se180  1  0.57862071  0.75452095  0.94002083  1
  Se  Se181  1  0.91378332  0.08518844  0.45033678  1
  Se  Se182  1  0.90726691  0.09156770  0.94186409  1
  Se  Se183  1  0.92874447  0.40676005  0.43705024  1
  Se  Se184  1  0.92190927  0.41432302  0.93675612  1
  Se  Se185  1  0.91554462  0.74913129  0.45393699  1
  Se  Se186  1  0.92172136  0.75327155  0.94231887  1
  Se  Se187  1  0.25422137  0.25721188  0.30121986  1
  Se  Se188  1  0.26285650  0.24579110  0.80651389  1
  Se  Se189  1  0.24262971  0.58521455  0.30794626  1
  Se  Se190  1  0.25277608  0.58239330  0.80051623  1
  Se  Se191  1  0.24055317  0.91690197  0.30310060  1
  Se  Se192  1  0.23853080  0.90675692  0.81327016  1
  Se  Se193  1  0.58428869  0.24468664  0.29698188  1
  Se  Se194  1  0.58288125  0.24610459  0.81346118  1
  Se  Se195  1  0.57566329  0.57792460  0.31476800  1
  Se  Se196  1  0.58335286  0.58885895  0.79729276  1
  Se  Se197  1  0.58773382  0.91746280  0.30212520  1
  Se  Se198  1  0.57870372  0.92070831  0.80218276  1
  Se  Se199  1  0.91459993  0.23955337  0.31069851  1
  Se  Se200  1  0.91658755  0.24904963  0.79879406  1
  Se  Se201  1  0.90365637  0.57400301  0.30486609  1
  Se  Se202  1  0.92228254  0.58913536  0.80323594  1
  Se  Se203  1  0.91594705  0.91531502  0.31607186  1
  Se  Se204  1  0.91348078  0.91690481  0.79867976  1
  Se  Se205  1  0.09360152  0.09035229  0.31121208  1
  Se  Se206  1  0.07844774  0.08053599  0.79698793  1
  Se  Se207  1  0.08611051  0.41825206  0.31529842  1
  Se  Se208  1  0.08738083  0.41547011  0.80185583  1
  Se  Se209  1  0.07899614  0.75095596  0.30287198  1
  Se  Se210  1  0.07927239  0.74463418  0.79891007  1
  Se  Se211  1  0.41644386  0.08042040  0.30058176  1
  Se  Se212  1  0.41677024  0.08747210  0.81904922  1
  Se  Se213  1  0.41345516  0.42094694  0.29523742  1
  Se  Se214  1  0.42163431  0.41663173  0.80329167  1
  Se  Se215  1  0.41925387  0.75301937  0.30225712  1
  Se  Se216  1  0.41195098  0.75073923  0.80082120  1
  Se  Se217  1  0.74917344  0.07809471  0.30176017  1
  Se  Se218  1  0.74520556  0.08569895  0.79831762  1
  Se  Se219  1  0.75164375  0.40848677  0.29482915  1
  Se  Se220  1  0.75984764  0.42698035  0.81372550  1
  Se  Se221  1  0.75361795  0.75608300  0.31641155  1
  Se  Se222  1  0.74513009  0.75134389  0.80135513  1
  Se  Se223  1  0.25312814  0.08256888  0.19705158  1
  Se  Se224  1  0.23801677  0.09385405  0.69419066  1
  Se  Se225  1  0.23641317  0.41648026  0.19662758  1
  Se  Se226  1  0.25372649  0.41233632  0.69219961  1
  Se  Se227  1  0.25652791  0.74602992  0.20064647  1
  Se  Se228  1  0.25258516  0.74723689  0.69793394  1
  Se  Se229  1  0.58902400  0.07447035  0.19525498  1
  Se  Se230  1  0.58115384  0.08324368  0.70354030  1
  Se  Se231  1  0.56568951  0.42171319  0.20329584  1
  Se  Se232  1  0.57673246  0.42469166  0.68652018  1
  Se  Se233  1  0.58221664  0.75372700  0.18780550  1
  Se  Se234  1  0.58231550  0.75188908  0.69293466  1
  Se  Se235  1  0.92076773  0.09147246  0.19082496  1
  Se  Se236  1  0.91566834  0.08284739  0.68935332  1
  Se  Se237  1  0.90685064  0.42519906  0.18613149  1
  Se  Se238  1  0.91750068  0.41601456  0.70094360  1
  Se  Se239  1  0.92117672  0.74821851  0.20345959  1
  Se  Se240  1  0.91308576  0.75210528  0.69752194  1
  Se  Se241  1  0.08101161  0.24043802  0.19103784  1
  Se  Se242  1  0.06773245  0.26805159  0.68919117  1
  Se  Se243  1  0.07733327  0.58523952  0.19881124  1
  Se  Se244  1  0.08592111  0.58135393  0.69590250  1
  Se  Se245  1  0.09796873  0.90863939  0.18852187  1
  Se  Se246  1  0.08143846  0.91947109  0.69975688  1
  Se  Se247  1  0.41485059  0.24362709  0.19559107  1
  Se  Se248  1  0.41455089  0.25027375  0.70603237  1
  Se  Se249  1  0.41552486  0.59151824  0.20582114  1
  Se  Se250  1  0.41194160  0.58509224  0.69216033  1
  Se  Se251  1  0.41914771  0.91661823  0.19350008  1
  Se  Se252  1  0.41467037  0.91449015  0.69218292  1
  Se  Se253  1  0.74849364  0.24726156  0.19577423  1
  Se  Se254  1  0.75242158  0.24924432  0.68705757  1
  Se  Se255  1  0.75407534  0.57804225  0.18884313  1
  Se  Se256  1  0.74784617  0.58652290  0.70061064  1
  Se  Se257  1  0.75719847  0.91625412  0.20174810  1
  Se  Se258  1  0.74466755  0.92227263  0.69192231  1
