# generated using pymatgen
data_In86Cu29Se144
_symmetry_space_group_name_H-M   'P 1'
_cell_length_a   17.58465315
_cell_length_b   17.57884764
_cell_length_c   23.43964734
_cell_angle_alpha   90.00858969
_cell_angle_beta   89.98003908
_cell_angle_gamma   89.97734896
_symmetry_Int_Tables_number   1
_chemical_formula_structural   In86Cu29Se144
_chemical_formula_sum   'In86 Cu29 Se144'
_cell_volume   7245.61437841
_cell_formula_units_Z   1
loop_
 _symmetry_equiv_pos_site_id
 _symmetry_equiv_pos_as_xyz
  1  'x, y, z'
loop_
 _atom_site_type_symbol
 _atom_site_label
 _atom_site_symmetry_multiplicity
 _atom_site_fract_x
 _atom_site_fract_y
 _atom_site_fract_z
 _atom_site_occupancy
  In  In0  1  -0.00501912  0.17530429  0.11953055  1
  In  In1  1  0.01351537  0.16187189  0.62338463  1
  In  In2  1  0.00953045  0.50622650  0.13138123  1
  In  In3  1  -0.00027445  0.50839167  0.61568840  1
  In  In4  1  -0.00545997  0.82916905  0.12123876  1
  In  In5  1  -0.00784411  0.81709234  0.60763039  1
  In  In6  1  0.34470003  0.15953002  0.12724712  1
  In  In7  1  0.33066344  0.17803589  0.62696936  1
  In  In8  1  0.33279846  0.48825790  0.13264184  1
  In  In9  1  0.34725961  0.50927052  0.61998805  1
  In  In10  1  0.33423162  0.82929344  0.11984630  1
  In  In11  1  0.32164229  0.81880357  0.61816032  1
  In  In12  1  0.66681590  0.16288520  0.12880059  1
  In  In13  1  0.65886024  0.15594231  0.63176867  1
  In  In14  1  0.65933723  0.51393847  0.13273841  1
  In  In15  1  0.66510369  0.49820336  0.61322608  1
  In  In16  1  0.66880054  0.83617629  0.12606396  1
  In  In17  1  0.66972608  0.83508224  0.62336381  1
  In  In18  1  0.16591318  0.00000870  0.37962653  1
  In  In19  1  0.14539004  -0.01257161  0.87726939  1
  In  In20  1  0.16458799  0.33529404  0.38437383  1
  In  In21  1  0.16719216  0.35037400  0.86743206  1
  In  In22  1  0.14765202  0.67005842  0.39353455  1
  In  In23  1  0.17005593  0.67192405  0.86614038  1
  In  In24  1  0.50162497  -0.01194982  0.37259808  1
  In  In25  1  0.50659439  -0.00387514  0.87747103  1
  In  In26  1  0.50529267  0.33961204  0.36564178  1
  In  In27  1  0.50182916  0.33092662  0.88571029  1
  In  In28  1  0.50862089  0.66009910  0.37820463  1
  In  In29  1  0.49535977  0.66962965  0.87919795  1
  In  In30  1  0.81974945  -0.00634699  0.36942374  1
  In  In31  1  0.83063693  0.01034720  0.88514814  1
  In  In32  1  0.83440933  0.34373639  0.37252880  1
  In  In33  1  0.82721668  0.32301852  0.87183051  1
  In  In34  1  0.83165650  0.67399397  0.37872733  1
  In  In35  1  0.84886566  0.66410327  0.87328622  1
  In  In36  1  0.01448377  0.17781247  0.37907568  1
  In  In37  1  -0.01403482  0.16498416  0.87053024  1
  In  In38  1  -0.02833997  0.51880650  0.40760352  1
  In  In39  1  0.00571212  0.50783238  0.85855847  1
  In  In40  1  0.01010763  0.81028831  0.39125713  1
  In  In41  1  0.00603607  0.82877660  0.88472088  1
  In  In42  1  0.31311020  0.17835175  0.37196224  1
  In  In43  1  0.33941957  0.17274514  0.88117674  1
  In  In44  1  0.34598309  0.49427978  0.38050454  1
  In  In45  1  0.33386050  0.51071728  0.87172258  1
  In  In46  1  0.33141177  0.83620833  0.38103218  1
  In  In47  1  0.33606814  0.82572529  0.87990183  1
  In  In48  1  0.65834598  0.15958451  0.36043254  1
  In  In49  1  0.67223497  0.16112049  0.88174530  1
  In  In50  1  0.66423725  0.50352718  0.37181270  1
  In  In51  1  0.66285766  0.48987361  0.87790594  1
  In  In52  1  0.66847093  0.83178157  0.37295985  1
  In  In53  1  0.65820327  0.84350868  0.88016142  1
  In  In54  1  0.17650200  -0.00265392  0.12655357  1
  In  In55  1  0.16501517  -0.00715126  0.61483778  1
  In  In56  1  0.16500759  0.34448849  0.13352235  1
  In  In57  1  0.15319527  0.33347454  0.60691933  1
  In  In58  1  0.15453698  0.66883216  0.13645373  1
  In  In59  1  0.16826591  0.66587357  0.62058728  1
  In  In60  1  0.50638886  0.00792465  0.11858603  1
  In  In61  1  0.51701076  -0.00347151  0.63481388  1
  In  In62  1  0.50232270  0.33431081  0.12710826  1
  In  In63  1  0.49685253  0.33715680  0.62560917  1
  In  In64  1  0.50954068  0.68009926  0.11638731  1
  In  In65  1  0.48480259  0.65450363  0.62169330  1
  In  In66  1  0.82760043  -0.01746305  0.11476426  1
  In  In67  1  0.83112638  -0.01574734  0.62565996  1
  In  In68  1  0.83397993  0.31931835  0.12362286  1
  In  In69  1  0.83479719  0.35194602  0.61473187  1
  In  In70  1  0.82428753  0.67838471  0.13274303  1
  In  In71  1  0.84075368  0.67277341  0.61216711  1
  In  In72  1  0.16869870  0.16363962  -0.00132438  1
  In  In73  1  0.83704242  0.16724174  0.49351303  1
  In  In74  1  0.67041172  0.33402808  0.74681967  1
  In  In75  1  0.66497720  0.66731549  0.75133884  1
  In  In76  1  0.49720451  0.16543765  0.50784143  1
  In  In77  1  0.83047375  0.49978404  -0.00150302  1
  In  In78  1  -0.00207110  -0.00289596  0.25158049  1
  In  In79  1  0.33298674  0.66424989  0.25566931  1
  In  In80  1  0.17132924  0.50397873  0.00299103  1
  In  In81  1  0.33559460  0.00334368  0.25523206  1
  In  In82  1  -0.00305334  -0.00486575  0.75156737  1
  In  In83  1  0.33564572  -0.00452635  0.75923743  1
  In  In84  1  0.33665212  0.34065185  0.74378861  1
  In  In85  1  0.00217826  0.34013705  0.25548315  1
  Cu  Cu86  1  0.15942956  0.82333895  0.74398882  1
  Cu  Cu87  1  0.33706386  0.66725512  0.49716990  1
  Cu  Cu88  1  0.16002085  0.50013394  0.73811062  1
  Cu  Cu89  1  0.82909746  0.16277562  0.24563639  1
  Cu  Cu90  1  0.66551969  0.33873594  0.49036146  1
  Cu  Cu91  1  -0.00644168  0.32967670  -0.00740378  1
  Cu  Cu92  1  0.66704030  -0.00871237  0.49958760  1
  Cu  Cu93  1  0.34303379  0.33045236  0.00789131  1
  Cu  Cu94  1  0.83190608  0.83250253  0.74608112  1
  Cu  Cu95  1  0.49244064  0.82667380  0.75477869  1
  Cu  Cu96  1  0.83441186  0.50530054  0.25830548  1
  Cu  Cu97  1  0.16909425  0.17314994  0.74095790  1
  Cu  Cu98  1  -0.00053890  0.67052825  0.00286153  1
  Cu  Cu99  1  0.50958138  0.83433053  0.24773170  1
  Cu  Cu100  1  0.33300739  0.66745523  -0.00188868  1
  Cu  Cu101  1  -0.00010975  -0.00221020  0.49910857  1
  Cu  Cu102  1  0.84311998  0.50710076  0.73925349  1
  Cu  Cu103  1  0.16011357  0.50364685  0.26381587  1
  Cu  Cu104  1  0.33542601  -0.00774027  -0.00038983  1
  Cu  Cu105  1  0.83556441  0.82784371  0.24889878  1
  Cu  Cu106  1  0.50208421  0.50102749  0.25077572  1
  Cu  Cu107  1  0.66544253  -0.00072132  0.00325431  1
  Cu  Cu108  1  0.33720448  0.00008582  0.49624318  1
  Cu  Cu109  1  0.66331447  0.67140824  0.49743146  1
  Cu  Cu110  1  0.49754666  0.17250870  0.24480094  1
  Cu  Cu111  1  0.33568088  0.33328464  0.50179072  1
  Cu  Cu112  1  0.66607514  0.67355602  0.00482673  1
  Cu  Cu113  1  0.66428027  0.32741981  0.00397921  1
  Cu  Cu114  1  0.83230665  0.16775184  0.75417438  1
  Se  Se115  1  0.08015434  0.07761912  0.06081436  1
  Se  Se116  1  0.08594370  0.08183178  0.54848242  1
  Se  Se117  1  0.07220927  0.40887856  0.05517439  1
  Se  Se118  1  0.09447679  0.43948024  0.54511397  1
  Se  Se119  1  0.08802270  0.74645426  0.05737046  1
  Se  Se120  1  0.09847527  0.75586847  0.54924021  1
  Se  Se121  1  0.41470332  0.08223631  0.05009764  1
  Se  Se122  1  0.40963247  0.07258751  0.56739762  1
  Se  Se123  1  0.41950233  0.42153354  0.05878291  1
  Se  Se124  1  0.42294613  0.41604767  0.55196551  1
  Se  Se125  1  0.41800651  0.75328318  0.04858727  1
  Se  Se126  1  0.42004735  0.75095951  0.55236411  1
  Se  Se127  1  0.74911670  0.08252283  0.05714507  1
  Se  Se128  1  0.74546368  0.07820698  0.55668042  1
  Se  Se129  1  0.74378997  0.41272066  0.06263935  1
  Se  Se130  1  0.75000306  0.42245472  0.54187040  1
  Se  Se131  1  0.75332988  0.75472109  0.05478837  1
  Se  Se132  1  0.74731233  0.75429978  0.55134085  1
  Se  Se133  1  0.25117591  0.25771484  0.06361497  1
  Se  Se134  1  0.25121457  0.24762172  0.55150346  1
  Se  Se135  1  0.25772240  0.59232709  0.06664268  1
  Se  Se136  1  0.25688986  0.58439299  0.55357276  1
  Se  Se137  1  0.24980940  0.91394347  0.05370419  1
  Se  Se138  1  0.25381261  0.91431732  0.54961648  1
  Se  Se139  1  0.58203013  0.24567434  0.05981591  1
  Se  Se140  1  0.59714908  0.25811605  0.55902849  1
  Se  Se141  1  0.58443729  0.58320421  0.05232148  1
  Se  Se142  1  0.58082090  0.58755286  0.55213361  1
  Se  Se143  1  0.58216265  0.91326370  0.05520722  1
  Se  Se144  1  0.58032723  0.91571190  0.55587654  1
  Se  Se145  1  0.91137275  0.24742011  0.04578844  1
  Se  Se146  1  0.92225568  0.25070105  0.55964890  1
  Se  Se147  1  0.92053980  0.58678354  0.06164824  1
  Se  Se148  1  0.90405168  0.57400807  0.54642118  1
  Se  Se149  1  0.92519384  0.91697949  0.04981746  1
  Se  Se150  1  0.91256204  0.91662237  0.54977193  1
  Se  Se151  1  0.08583266  0.25184025  0.45520100  1
  Se  Se152  1  0.08420418  0.25820369  0.93473345  1
  Se  Se153  1  0.09609898  0.56132267  0.45810490  1
  Se  Se154  1  0.07693131  0.58738021  0.94115691  1
  Se  Se155  1  0.08560046  0.91484569  0.44717492  1
  Se  Se156  1  0.07905967  0.91441336  0.95628649  1
  Se  Se157  1  0.41604172  0.25286624  0.43986515  1
  Se  Se158  1  0.42239073  0.24440686  0.95439558  1
  Se  Se159  1  0.42358125  0.58269435  0.44808681  1
  Se  Se160  1  0.41501687  0.58084047  0.94736838  1
  Se  Se161  1  0.42161534  0.91518183  0.44704846  1
  Se  Se162  1  0.41984103  0.91312933  0.94351282  1
  Se  Se163  1  0.73745404  0.24838367  0.43374582  1
  Se  Se164  1  0.75214246  0.25047817  0.94895467  1
  Se  Se165  1  0.74392767  0.58617031  0.44239119  1
  Se  Se166  1  0.74160212  0.59370474  0.93898835  1
  Se  Se167  1  0.75229052  0.91166676  0.44581733  1
  Se  Se168  1  0.74909369  0.91799523  0.94760877  1
  Se  Se169  1  0.25365349  0.08373194  0.44437258  1
  Se  Se170  1  0.25442403  0.06912832  0.93605427  1
  Se  Se171  1  0.25588305  0.41803665  0.44787810  1
  Se  Se172  1  0.26175952  0.40848311  0.94514310  1
  Se  Se173  1  0.25055203  0.75019957  0.44755871  1
  Se  Se174  1  0.24433533  0.74595223  0.94467381  1
  Se  Se175  1  0.58789629  0.07823724  0.44340484  1
  Se  Se176  1  0.58271707  0.08245331  0.94807870  1
  Se  Se177  1  0.57796023  0.42046948  0.44068922  1
  Se  Se178  1  0.58419776  0.41637026  0.95285113  1
  Se  Se179  1  0.58093435  0.75567327  0.44344379  1
  Se  Se180  1  0.58174275  0.75111516  0.94565994  1
  Se  Se181  1  0.92393370  0.07402296  0.43274046  1
  Se  Se182  1  0.92965511  0.08060836  0.94757084  1
  Se  Se183  1  0.92138827  0.39340030  0.45066048  1
  Se  Se184  1  0.92350837  0.41851120  0.93271360  1
  Se  Se185  1  0.91399118  0.74268452  0.45592825  1
  Se  Se186  1  0.91237452  0.74914847  0.94929565  1
  Se  Se187  1  0.24069369  0.26571211  0.30410840  1
  Se  Se188  1  0.24766094  0.24633841  0.80660750  1
  Se  Se189  1  0.24596622  0.58105115  0.32113814  1
  Se  Se190  1  0.24167204  0.57550447  0.80085843  1
  Se  Se191  1  0.24197775  0.90921530  0.30694001  1
  Se  Se192  1  0.23437130  0.90507266  0.80829690  1
  Se  Se193  1  0.58463420  0.25432088  0.29678245  1
  Se  Se194  1  0.58479666  0.24863933  0.81241100  1
  Se  Se195  1  0.58486065  0.58810649  0.30030168  1
  Se  Se196  1  0.57775684  0.57512906  0.81065983  1
  Se  Se197  1  0.59051798  0.91989368  0.30124961  1
  Se  Se198  1  0.57862718  0.91284079  0.80209558  1
  Se  Se199  1  0.91050588  0.23906125  0.30794825  1
  Se  Se200  1  0.91758782  0.25583624  0.79938964  1
  Se  Se201  1  0.91787984  0.58151275  0.31626855  1
  Se  Se202  1  0.92186927  0.59354731  0.79334142  1
  Se  Se203  1  0.91511528  0.90378857  0.31313397  1
  Se  Se204  1  0.90763177  0.90926485  0.81330249  1
  Se  Se205  1  0.09131127  0.09102816  0.30629597  1
  Se  Se206  1  0.09158672  0.09221390  0.80425104  1
  Se  Se207  1  0.07378497  0.43124638  0.32438737  1
  Se  Se208  1  0.08046990  0.41423520  0.79288322  1
  Se  Se209  1  0.08613668  0.74539349  0.31096614  1
  Se  Se210  1  0.07363485  0.75020839  0.80477736  1
  Se  Se211  1  0.42384001  0.09699432  0.31481826  1
  Se  Se212  1  0.42465550  0.09347101  0.81013819  1
  Se  Se213  1  0.41416342  0.41815118  0.29959721  1
  Se  Se214  1  0.42596533  0.41973074  0.81137377  1
  Se  Se215  1  0.42595962  0.75977969  0.30951578  1
  Se  Se216  1  0.40940282  0.74293374  0.80580525  1
  Se  Se217  1  0.74642228  0.07663176  0.29668003  1
  Se  Se218  1  0.75227222  0.08295968  0.80763807  1
  Se  Se219  1  0.74772655  0.41770494  0.30316525  1
  Se  Se220  1  0.76343046  0.43003585  0.80363655  1
  Se  Se221  1  0.74937922  0.74749310  0.30331243  1
  Se  Se222  1  0.75532003  0.75583593  0.81216380  1
  Se  Se223  1  0.24336827  0.09464265  0.19675820  1
  Se  Se224  1  0.24607023  0.08123557  0.69035750  1
  Se  Se225  1  0.24242329  0.42334306  0.20627535  1
  Se  Se226  1  0.24351389  0.42013249  0.67998761  1
  Se  Se227  1  0.24726944  0.75896285  0.19662506  1
  Se  Se228  1  0.25044007  0.74330398  0.69641079  1
  Se  Se229  1  0.57940455  0.08156682  0.19727098  1
  Se  Se230  1  0.58441578  0.08269639  0.70702889  1
  Se  Se231  1  0.58542985  0.41765133  0.19632580  1
  Se  Se232  1  0.57910042  0.42829131  0.69258536  1
  Se  Se233  1  0.58911262  0.74737219  0.19473527  1
  Se  Se234  1  0.57326946  0.75262627  0.68967920  1
  Se  Se235  1  0.91174530  0.08545324  0.18660924  1
  Se  Se236  1  0.90952157  0.08766033  0.68913442  1
  Se  Se237  1  0.90739851  0.42446058  0.19074404  1
  Se  Se238  1  0.92216525  0.41918848  0.68733091  1
  Se  Se239  1  0.92372620  0.74698359  0.19739469  1
  Se  Se240  1  0.91332032  0.75295357  0.68875661  1
  Se  Se241  1  0.08565403  0.24396195  0.19349371  1
  Se  Se242  1  0.08590820  0.25617885  0.68910647  1
  Se  Se243  1  0.07822966  0.58567655  0.20829610  1
  Se  Se244  1  0.07837960  0.58911922  0.68934887  1
  Se  Se245  1  0.08939463  0.91002385  0.19131319  1
  Se  Se246  1  0.08162165  0.90754406  0.68596371  1
  Se  Se247  1  0.41136002  0.25479914  0.19472069  1
  Se  Se248  1  0.43184611  0.23931086  0.69683611  1
  Se  Se249  1  0.42462704  0.58435275  0.18916322  1
  Se  Se250  1  0.41618310  0.58016526  0.70102678  1
  Se  Se251  1  0.42259215  0.91290024  0.19090242  1
  Se  Se252  1  0.41531263  0.90701935  0.69049602  1
  Se  Se253  1  0.74768435  0.25207327  0.19702556  1
  Se  Se254  1  0.76163372  0.24571710  0.68433105  1
  Se  Se255  1  0.75257795  0.58556573  0.19997672  1
  Se  Se256  1  0.75232201  0.58197943  0.68485796  1
  Se  Se257  1  0.75453282  0.91565285  0.19656959  1
  Se  Se258  1  0.74392019  0.91694761  0.69916740  1
