# generated using pymatgen
data_In86Cu29Se144
_symmetry_space_group_name_H-M   'P 1'
_cell_length_a   17.57980376
_cell_length_b   17.58277826
_cell_length_c   23.43612789
_cell_angle_alpha   90.02837375
_cell_angle_beta   89.96942298
_cell_angle_gamma   90.01707943
_symmetry_Int_Tables_number   1
_chemical_formula_structural   In86Cu29Se144
_chemical_formula_sum   'In86 Cu29 Se144'
_cell_volume   7244.14687078
_cell_formula_units_Z   1
loop_
 _symmetry_equiv_pos_site_id
 _symmetry_equiv_pos_as_xyz
  1  'x, y, z'
loop_
 _atom_site_type_symbol
 _atom_site_label
 _atom_site_symmetry_multiplicity
 _atom_site_fract_x
 _atom_site_fract_y
 _atom_site_fract_z
 _atom_site_occupancy
  In  In0  1  -0.00655811  0.19015343  0.11240381  1
  In  In1  1  -0.01414279  0.16564681  0.63165201  1
  In  In2  1  0.01468885  0.49715448  0.12839565  1
  In  In3  1  -0.00183318  0.51765128  0.62712987  1
  In  In4  1  -0.00448957  0.81822246  0.11634535  1
  In  In5  1  -0.00140751  0.82823778  0.62630183  1
  In  In6  1  0.34050803  0.16160001  0.13138437  1
  In  In7  1  0.34868992  0.16329636  0.62197388  1
  In  In8  1  0.31600543  0.51351678  0.14170522  1
  In  In9  1  0.32017653  0.49592130  0.62675051  1
  In  In10  1  0.33184916  0.83435367  0.12117763  1
  In  In11  1  0.33396022  0.84199002  0.62220178  1
  In  In12  1  0.66280031  0.17163680  0.11921263  1
  In  In13  1  0.66539774  0.18123576  0.62745921  1
  In  In14  1  0.65533605  0.49620525  0.12396699  1
  In  In15  1  0.67899831  0.49103429  0.62988079  1
  In  In16  1  0.67975890  0.84150776  0.11517465  1
  In  In17  1  0.66971207  0.81640661  0.63390690  1
  In  In18  1  0.16370522  -0.01672388  0.37063530  1
  In  In19  1  0.14893119  0.00337731  0.87402681  1
  In  In20  1  0.16512090  0.34279928  0.35723800  1
  In  In21  1  0.17914543  0.32664792  0.88155309  1
  In  In22  1  0.16489440  0.66984317  0.36248803  1
  In  In23  1  0.14328333  0.68307962  0.89893796  1
  In  In24  1  0.51204353  0.00622015  0.36702619  1
  In  In25  1  0.50379436  0.00139815  0.88386828  1
  In  In26  1  0.49330618  0.32559758  0.36761285  1
  In  In27  1  0.49442456  0.32927376  0.87555202  1
  In  In28  1  0.49601684  0.68084941  0.36812279  1
  In  In29  1  0.51408318  0.66223186  0.88071137  1
  In  In30  1  0.82121586  -0.00168160  0.37392645  1
  In  In31  1  0.84150444  -0.01102317  0.88030470  1
  In  In32  1  0.84016700  0.34356472  0.36283322  1
  In  In33  1  0.82481562  0.34078256  0.88046863  1
  In  In34  1  0.84598254  0.65512144  0.38866708  1
  In  In35  1  0.84667482  0.66798788  0.87137845  1
  In  In36  1  -0.01396692  0.17544718  0.36992901  1
  In  In37  1  0.01270836  0.14862939  0.87642045  1
  In  In38  1  -0.00108600  0.50204765  0.36290350  1
  In  In39  1  -0.00147434  0.51914789  0.88248462  1
  In  In40  1  0.01038881  0.82190137  0.38766393  1
  In  In41  1  -0.00411498  0.82976986  0.87720496  1
  In  In42  1  0.34277057  0.17619972  0.36591839  1
  In  In43  1  0.33064977  0.18487619  0.87883313  1
  In  In44  1  0.32169209  0.50161317  0.35697748  1
  In  In45  1  0.32879901  0.48419601  0.87760041  1
  In  In46  1  0.32322406  0.82452004  0.36045024  1
  In  In47  1  0.33356900  0.83364760  0.88614683  1
  In  In48  1  0.66307997  0.15705503  0.36858715  1
  In  In49  1  0.65997224  0.18456019  0.89195560  1
  In  In50  1  0.68528742  0.50433276  0.37174913  1
  In  In51  1  0.67022322  0.49803620  0.86850218  1
  In  In52  1  0.66940683  0.84218559  0.37293996  1
  In  In53  1  0.69139681  0.80703990  0.90030045  1
  In  In54  1  0.18077213  0.00109576  0.12617291  1
  In  In55  1  0.16864859  -0.01982713  0.62454863  1
  In  In56  1  0.15188151  0.35318371  0.14116483  1
  In  In57  1  0.16783848  0.34835180  0.62977355  1
  In  In58  1  0.16029452  0.66660262  0.12373701  1
  In  In59  1  0.14995624  0.66758146  0.62448506  1
  In  In60  1  0.50216303  0.00372448  0.12334355  1
  In  In61  1  0.48764148  0.00414834  0.62295626  1
  In  In62  1  0.50761460  0.32319150  0.12938673  1
  In  In63  1  0.50896054  0.32745994  0.62833746  1
  In  In64  1  0.49126222  0.66041587  0.12124320  1
  In  In65  1  0.50410891  0.68034750  0.62973894  1
  In  In66  1  0.82420842  -0.00584758  0.12224020  1
  In  In67  1  0.84704700  0.00147629  0.63089962  1
  In  In68  1  0.83631914  0.33180371  0.12047010  1
  In  In69  1  0.82194996  0.32859833  0.62542881  1
  In  In70  1  0.83902056  0.68247144  0.11636380  1
  In  In71  1  0.83770809  0.66439547  0.62561348  1
  In  In72  1  0.49790045  0.49598713  0.00332056  1
  In  In73  1  0.00404099  0.33008892  0.75528169  1
  In  In74  1  0.16951365  0.16526651  0.00276491  1
  In  In75  1  0.16743459  0.16407463  0.49861076  1
  In  In76  1  0.16174753  0.50607211  0.48553014  1
  In  In77  1  0.66596862  -0.00003512  0.76273856  1
  In  In78  1  0.32620932  0.00441489  0.75139444  1
  In  In79  1  0.83766014  0.50152767  0.00420834  1
  In  In80  1  0.50123067  0.83896856  0.49706019  1
  In  In81  1  0.66562273  0.66958596  0.24473860  1
  In  In82  1  0.50193049  0.50102319  0.49463995  1
  In  In83  1  0.82849149  0.16554043  0.50012295  1
  In  In84  1  0.33127774  0.65581558  0.75203557  1
  In  In85  1  -0.00508971  0.00396884  0.24883496  1
  Cu  Cu86  1  0.66615266  0.33160372  0.50005257  1
  Cu  Cu87  1  0.33476739  0.33243136  0.00964948  1
  Cu  Cu88  1  0.32404353  0.67025029  0.48760693  1
  Cu  Cu89  1  0.83696837  0.82924277  0.75551780  1
  Cu  Cu90  1  0.83403991  0.50046817  0.75139990  1
  Cu  Cu91  1  0.16382785  0.83175765  0.24481734  1
  Cu  Cu92  1  0.15803338  0.82617420  0.75225950  1
  Cu  Cu93  1  0.49583589  0.84043468  0.24359310  1
  Cu  Cu94  1  0.83579179  0.50213954  0.24518611  1
  Cu  Cu95  1  0.50183077  0.17265178  0.75253493  1
  Cu  Cu96  1  0.66252490  0.00049126  0.49736300  1
  Cu  Cu97  1  0.83145334  0.16428904  0.75650756  1
  Cu  Cu98  1  0.33972286  0.32781343  0.49556118  1
  Cu  Cu99  1  -0.00028690  -0.00711264  0.50442239  1
  Cu  Cu100  1  0.66393428  0.00551291  0.00103762  1
  Cu  Cu101  1  0.16592644  0.16751289  0.24290760  1
  Cu  Cu102  1  0.50841090  0.82980627  0.76049071  1
  Cu  Cu103  1  -0.00085470  -0.00988230  0.00202985  1
  Cu  Cu104  1  0.17053497  0.49993273  0.75627593  1
  Cu  Cu105  1  -0.00159726  0.34281219  0.48981594  1
  Cu  Cu106  1  0.83430318  0.83194641  0.24604059  1
  Cu  Cu107  1  0.67448321  0.66372014  0.50566125  1
  Cu  Cu108  1  0.32933969  0.66442441  0.00712407  1
  Cu  Cu109  1  0.33720038  0.00065524  0.00502699  1
  Cu  Cu110  1  0.49810877  0.49660848  0.24642420  1
  Cu  Cu111  1  0.82679073  0.17262815  0.24405218  1
  Cu  Cu112  1  0.33467950  -0.00052986  0.49505132  1
  Cu  Cu113  1  0.50353162  0.49228593  0.75342583  1
  Cu  Cu114  1  0.50595342  0.16439692  0.24701870  1
  Se  Se115  1  0.07459372  0.07585996  0.06310380  1
  Se  Se116  1  0.07505766  0.07984741  0.56269709  1
  Se  Se117  1  0.08116365  0.40781762  0.05505993  1
  Se  Se118  1  0.07855261  0.41682429  0.55446183  1
  Se  Se119  1  0.09198382  0.75382245  0.04961478  1
  Se  Se120  1  0.08676520  0.75676104  0.55413877  1
  Se  Se121  1  0.41848288  0.08864539  0.05425135  1
  Se  Se122  1  0.41958619  0.08331732  0.54527849  1
  Se  Se123  1  0.40930193  0.41728243  0.07094788  1
  Se  Se124  1  0.41112761  0.41409378  0.55764853  1
  Se  Se125  1  0.41681492  0.74969650  0.05320376  1
  Se  Se126  1  0.40802000  0.74166841  0.55285866  1
  Se  Se127  1  0.75033283  0.08528200  0.05471977  1
  Se  Se128  1  0.74144710  0.07612897  0.56444572  1
  Se  Se129  1  0.73760232  0.41238140  0.05468265  1
  Se  Se130  1  0.75183602  0.41363588  0.55182452  1
  Se  Se131  1  0.74713509  0.74722687  0.04682423  1
  Se  Se132  1  0.75275055  0.75181067  0.55802703  1
  Se  Se133  1  0.25127177  0.25320129  0.06874738  1
  Se  Se134  1  0.25342806  0.25922532  0.55925959  1
  Se  Se135  1  0.24723657  0.57826588  0.05750815  1
  Se  Se136  1  0.25293255  0.58946190  0.55377068  1
  Se  Se137  1  0.24756489  0.91741772  0.05076203  1
  Se  Se138  1  0.25332115  0.91448654  0.54780378  1
  Se  Se139  1  0.57819408  0.25238393  0.05008791  1
  Se  Se140  1  0.58171986  0.24799947  0.55117376  1
  Se  Se141  1  0.59281741  0.59411805  0.05235708  1
  Se  Se142  1  0.58580105  0.58848830  0.56251312  1
  Se  Se143  1  0.58299328  0.91886636  0.05378864  1
  Se  Se144  1  0.59070935  0.92055634  0.56605449  1
  Se  Se145  1  0.89439315  0.24295751  0.04158498  1
  Se  Se146  1  0.92495374  0.25993170  0.55408979  1
  Se  Se147  1  0.93159739  0.59011502  0.05960950  1
  Se  Se148  1  0.91650020  0.58371069  0.55304227  1
  Se  Se149  1  0.91223163  0.91196206  0.05657886  1
  Se  Se150  1  0.91333508  0.91467884  0.55822437  1
  Se  Se151  1  0.08062444  0.25763480  0.43656037  1
  Se  Se152  1  0.07606523  0.25294819  0.94435166  1
  Se  Se153  1  0.06882631  0.59900292  0.43550585  1
  Se  Se154  1  0.09877954  0.56517779  0.95452781  1
  Se  Se155  1  0.08810053  0.91664987  0.45086682  1
  Se  Se156  1  0.08399043  0.91297271  0.94546624  1
  Se  Se157  1  0.42284740  0.24451717  0.44470517  1
  Se  Se158  1  0.41704470  0.25274364  0.95242179  1
  Se  Se159  1  0.40828282  0.58868628  0.43313596  1
  Se  Se160  1  0.40685220  0.58653044  0.94157204  1
  Se  Se161  1  0.41087178  0.91835042  0.43111069  1
  Se  Se162  1  0.41978748  0.91753752  0.95024261  1
  Se  Se163  1  0.74768701  0.25607652  0.43523844  1
  Se  Se164  1  0.76728271  0.24568318  0.95347138  1
  Se  Se165  1  0.75333857  0.57636495  0.45299699  1
  Se  Se166  1  0.74931673  0.58579908  0.93812052  1
  Se  Se167  1  0.74818634  0.91670419  0.44908006  1
  Se  Se168  1  0.75215367  0.92107688  0.95279894  1
  Se  Se169  1  0.25427325  0.07828351  0.43355459  1
  Se  Se170  1  0.25731341  0.07537847  0.93848883  1
  Se  Se171  1  0.25824209  0.40819513  0.43659597  1
  Se  Se172  1  0.25047253  0.41267660  0.95485553  1
  Se  Se173  1  0.24195909  0.75341886  0.43619250  1
  Se  Se174  1  0.25018040  0.75294636  0.95431867  1
  Se  Se175  1  0.58205848  0.08529819  0.44547921  1
  Se  Se176  1  0.57845217  0.09075183  0.95199389  1
  Se  Se177  1  0.59188389  0.41181414  0.43497381  1
  Se  Se178  1  0.58955742  0.41201502  0.94061420  1
  Se  Se179  1  0.59390139  0.74112152  0.44316305  1
  Se  Se180  1  0.56933299  0.75989815  0.94988177  1
  Se  Se181  1  0.92372838  0.07476229  0.44212204  1
  Se  Se182  1  0.92326443  0.07748606  0.94631844  1
  Se  Se183  1  0.91581582  0.42384162  0.43665856  1
  Se  Se184  1  0.92773533  0.41201533  0.94301315  1
  Se  Se185  1  0.89321833  0.77349420  0.44220625  1
  Se  Se186  1  0.91674521  0.74693293  0.94727865  1
  Se  Se187  1  0.24927099  0.24908097  0.29957751  1
  Se  Se188  1  0.24449708  0.24596006  0.80414105  1
  Se  Se189  1  0.23848871  0.58368006  0.29248414  1
  Se  Se190  1  0.24047001  0.58343480  0.82113780  1
  Se  Se191  1  0.24813340  0.91835059  0.29448426  1
  Se  Se192  1  0.24306992  0.90590185  0.80986836  1
  Se  Se193  1  0.58679821  0.24916062  0.30301850  1
  Se  Se194  1  0.58609631  0.25093455  0.80886452  1
  Se  Se195  1  0.57746981  0.57785508  0.30898606  1
  Se  Se196  1  0.58288603  0.58144593  0.80359178  1
  Se  Se197  1  0.58549386  0.91370773  0.29952077  1
  Se  Se198  1  0.58755286  0.90355271  0.82359722  1
  Se  Se199  1  0.91614591  0.25413710  0.29409188  1
  Se  Se200  1  0.91331121  0.24374719  0.81698500  1
  Se  Se201  1  0.91014094  0.59056628  0.30142526  1
  Se  Se202  1  0.92253305  0.58197432  0.79997590  1
  Se  Se203  1  0.91252313  0.91078362  0.31055830  1
  Se  Se204  1  0.92085066  0.91616306  0.80435807  1
  Se  Se205  1  0.08847762  0.09244754  0.31070188  1
  Se  Se206  1  0.09194965  0.08796706  0.79604447  1
  Se  Se207  1  0.07444699  0.41707772  0.29352210  1
  Se  Se208  1  0.08879535  0.42163124  0.81707525  1
  Se  Se209  1  0.07525404  0.75722734  0.30096361  1
  Se  Se210  1  0.08059275  0.74281937  0.80942253  1
  Se  Se211  1  0.42015922  0.08278174  0.30163451  1
  Se  Se212  1  0.42228723  0.08931323  0.81085472  1
  Se  Se213  1  0.41489867  0.41459478  0.30102932  1
  Se  Se214  1  0.41525853  0.41360033  0.80479454  1
  Se  Se215  1  0.41519940  0.75007698  0.29291770  1
  Se  Se216  1  0.41765920  0.75023782  0.81220884  1
  Se  Se217  1  0.75286148  0.08281671  0.29928292  1
  Se  Se218  1  0.75234895  0.09153337  0.82221244  1
  Se  Se219  1  0.74848750  0.41913761  0.29530015  1
  Se  Se220  1  0.75189765  0.41261421  0.80069188  1
  Se  Se221  1  0.75623257  0.75077924  0.30954647  1
  Se  Se222  1  0.75118665  0.74839093  0.80912090  1
  Se  Se223  1  0.25410626  0.08076253  0.20057083  1
  Se  Se224  1  0.24396258  0.08851295  0.68268181  1
  Se  Se225  1  0.26135948  0.40440657  0.20261616  1
  Se  Se226  1  0.25400476  0.41550716  0.70474059  1
  Se  Se227  1  0.24879011  0.75160997  0.19004929  1
  Se  Se228  1  0.24857547  0.75529066  0.69162310  1
  Se  Se229  1  0.58918225  0.08326613  0.19202728  1
  Se  Se230  1  0.57743111  0.08542475  0.69380245  1
  Se  Se231  1  0.58517111  0.41378024  0.19841521  1
  Se  Se232  1  0.58812779  0.41315961  0.69573682  1
  Se  Se233  1  0.57771514  0.75880966  0.18354387  1
  Se  Se234  1  0.58759894  0.74285729  0.70757279  1
  Se  Se235  1  0.91125108  0.09370864  0.18432135  1
  Se  Se236  1  0.91780050  0.08177535  0.70689392  1
  Se  Se237  1  0.91526089  0.41848584  0.18883396  1
  Se  Se238  1  0.91434587  0.41720274  0.69030868  1
  Se  Se239  1  0.91855311  0.74792892  0.19588384  1
  Se  Se240  1  0.91749772  0.74709776  0.69753892  1
  Se  Se241  1  0.07569638  0.24652807  0.19418091  1
  Se  Se242  1  0.09048987  0.24464340  0.68831747  1
  Se  Se243  1  0.09085067  0.58147675  0.19909706  1
  Se  Se244  1  0.08763418  0.58154375  0.70120046  1
  Se  Se245  1  0.08260236  0.91472765  0.18634995  1
  Se  Se246  1  0.08084162  0.91336233  0.69703679  1
  Se  Se247  1  0.41887278  0.24964540  0.19963384  1
  Se  Se248  1  0.41724806  0.25018015  0.69488506  1
  Se  Se249  1  0.41796732  0.58881745  0.20028626  1
  Se  Se250  1  0.42680939  0.57165666  0.68807335  1
  Se  Se251  1  0.41252375  0.92215491  0.18960049  1
  Se  Se252  1  0.42679851  0.90792673  0.69970030  1
  Se  Se253  1  0.74613024  0.25577698  0.18921889  1
  Se  Se254  1  0.75086414  0.24853232  0.70195298  1
  Se  Se255  1  0.75612432  0.58126338  0.18291782  1
  Se  Se256  1  0.75171195  0.58412736  0.69604576  1
  Se  Se257  1  0.74762182  0.91520341  0.19741209  1
  Se  Se258  1  0.75515449  0.91305201  0.69732927  1
