# generated using pymatgen
data_In86Cu29Se144
_symmetry_space_group_name_H-M   'P 1'
_cell_length_a   17.59320589
_cell_length_b   17.59762222
_cell_length_c   23.45892328
_cell_angle_alpha   90.00755515
_cell_angle_beta   89.98563777
_cell_angle_gamma   90.00055443
_symmetry_Int_Tables_number   1
_chemical_formula_structural   In86Cu29Se144
_chemical_formula_sum   'In86 Cu29 Se144'
_cell_volume   7262.84929828
_cell_formula_units_Z   1
loop_
 _symmetry_equiv_pos_site_id
 _symmetry_equiv_pos_as_xyz
  1  'x, y, z'
loop_
 _atom_site_type_symbol
 _atom_site_label
 _atom_site_symmetry_multiplicity
 _atom_site_fract_x
 _atom_site_fract_y
 _atom_site_fract_z
 _atom_site_occupancy
  In  In0  1  -0.01237588  0.16973964  0.13531540  1
  In  In1  1  -0.00224821  0.17072138  0.63351432  1
  In  In2  1  -0.01737061  0.49411436  0.11965991  1
  In  In3  1  -0.01716199  0.51386220  0.62220917  1
  In  In4  1  0.00207433  0.84242278  0.12005826  1
  In  In5  1  0.01445337  0.83148373  0.62234701  1
  In  In6  1  0.32821420  0.15494669  0.12599828  1
  In  In7  1  0.32791801  0.17281356  0.62238765  1
  In  In8  1  0.35010330  0.50514214  0.12461946  1
  In  In9  1  0.34319389  0.50146386  0.62924343  1
  In  In10  1  0.33687304  0.83451560  0.12988651  1
  In  In11  1  0.32892075  0.82735772  0.62079481  1
  In  In12  1  0.68565154  0.17793393  0.11357750  1
  In  In13  1  0.68681952  0.15912120  0.64747577  1
  In  In14  1  0.66606101  0.49590080  0.11740895  1
  In  In15  1  0.68268905  0.48524158  0.64029130  1
  In  In16  1  0.66686996  0.83558004  0.11411533  1
  In  In17  1  0.66040012  0.84213188  0.63064937  1
  In  In18  1  0.16316558  -0.00103300  0.38149204  1
  In  In19  1  0.13749283  0.00879471  0.87145803  1
  In  In20  1  0.13829839  0.32918373  0.37610248  1
  In  In21  1  0.14909293  0.32994074  0.86532724  1
  In  In22  1  0.18079581  0.66390777  0.37342278  1
  In  In23  1  0.17003410  0.64587545  0.86373653  1
  In  In24  1  0.48728752  0.00128417  0.37512602  1
  In  In25  1  0.50808173  -0.01256996  0.88439949  1
  In  In26  1  0.50807512  0.32270168  0.37085489  1
  In  In27  1  0.51551539  0.32048398  0.88464664  1
  In  In28  1  0.50157020  0.68318879  0.37574867  1
  In  In29  1  0.50142850  0.66520144  0.87431013  1
  In  In30  1  0.84981462  0.00396914  0.37038046  1
  In  In31  1  0.82844274  0.00023125  0.87247407  1
  In  In32  1  0.83357283  0.32738485  0.37853075  1
  In  In33  1  0.84086026  0.32694964  0.87015985  1
  In  In34  1  0.82082469  0.66182363  0.37774430  1
  In  In35  1  0.82480968  0.68185938  0.88563345  1
  In  In36  1  -0.00486497  0.16555085  0.38192757  1
  In  In37  1  -0.04319522  0.13809152  0.82073019  1
  In  In38  1  -0.00464849  0.47969108  0.37466400  1
  In  In39  1  -0.00139338  0.49037308  0.87581496  1
  In  In40  1  -0.00003485  0.85112906  0.37610459  1
  In  In41  1  -0.01612357  0.83583424  0.88109748  1
  In  In42  1  0.33000514  0.14575059  0.37268490  1
  In  In43  1  0.33366340  0.17622050  0.87829199  1
  In  In44  1  0.32246831  0.50337778  0.37032752  1
  In  In45  1  0.33262497  0.51205949  0.87410645  1
  In  In46  1  0.33014323  0.83605008  0.37724963  1
  In  In47  1  0.34555175  0.83117170  0.87573908  1
  In  In48  1  0.66839593  0.17974088  0.37078033  1
  In  In49  1  0.67358320  0.16107576  0.87182541  1
  In  In50  1  0.68065998  0.49369573  0.37942544  1
  In  In51  1  0.66857639  0.49814229  0.87609035  1
  In  In52  1  0.66211875  0.82422952  0.38066238  1
  In  In53  1  0.66562353  0.83305437  0.87347943  1
  In  In54  1  0.16239429  0.00775756  0.13652172  1
  In  In55  1  0.16163766  -0.00459802  0.62569144  1
  In  In56  1  0.15811601  0.31845921  0.12910055  1
  In  In57  1  0.15586848  0.31599153  0.62759822  1
  In  In58  1  0.17568872  0.67971429  0.12832704  1
  In  In59  1  0.16256243  0.68433421  0.62423131  1
  In  In60  1  0.49462436  -0.00532763  0.11730805  1
  In  In61  1  0.51780386  -0.00011865  0.62590477  1
  In  In62  1  0.51859905  0.34408672  0.11498528  1
  In  In63  1  0.50503769  0.33900689  0.62935973  1
  In  In64  1  0.49794449  0.66810866  0.12137839  1
  In  In65  1  0.49617990  0.67380681  0.63382030  1
  In  In66  1  0.85374631  0.01379290  0.10462199  1
  In  In67  1  0.82752917  0.00899407  0.63641830  1
  In  In68  1  0.82921946  0.33031367  0.12577197  1
  In  In69  1  0.83634434  0.33542141  0.63022693  1
  In  In70  1  0.83395313  0.66011860  0.10788107  1
  In  In71  1  0.83791081  0.64864862  0.62526688  1
  In  In72  1  0.15556639  0.50594569  0.50136227  1
  In  In73  1  0.16304323  0.16756964  -0.00208043  1
  In  In74  1  0.33380544  0.33059863  0.24724119  1
  In  In75  1  0.33232809  0.33959123  0.75390312  1
  In  In76  1  0.50087554  0.16410086  0.50029777  1
  In  In77  1  0.66173121  0.66269627  0.24511491  1
  In  In78  1  0.67215095  0.00675632  0.24480206  1
  In  In79  1  0.16234472  0.83373469  -0.00577221  1
  In  In80  1  0.00380423  0.66482565  0.24811665  1
  In  In81  1  0.16844560  0.49651623  -0.01080360  1
  In  In82  1  0.00042296  0.66869023  0.74816382  1
  In  In83  1  0.50143523  0.50251890  0.50879906  1
  In  In84  1  0.83613659  0.83302687  0.49879730  1
  In  In85  1  0.33172542  -0.00405940  0.74980667  1
  Cu  Cu86  1  0.32935383  -0.00867035  0.49937101  1
  Cu  Cu87  1  -0.00194383  0.00609982  0.50487735  1
  Cu  Cu88  1  0.16754898  0.50169802  0.25067249  1
  Cu  Cu89  1  0.50416487  0.16285396  0.75702968  1
  Cu  Cu90  1  0.66699403  0.00045756  -0.00466116  1
  Cu  Cu91  1  0.67362118  0.32968224  0.50740538  1
  Cu  Cu92  1  0.50631008  0.16900142  0.24495705  1
  Cu  Cu93  1  0.65800178  0.66509704  -0.00561890  1
  Cu  Cu94  1  0.82877044  0.83275010  0.75361607  1
  Cu  Cu95  1  0.67752815  0.33147094  -0.00522943  1
  Cu  Cu96  1  -0.01232309  0.32605795  0.50397352  1
  Cu  Cu97  1  0.33494403  0.67264410  0.50001746  1
  Cu  Cu98  1  0.31849194  0.32476357  0.49693177  1
  Cu  Cu99  1  0.50395312  0.83023176  0.75542044  1
  Cu  Cu100  1  0.50395039  0.50404194  0.24328449  1
  Cu  Cu101  1  -0.00630577  0.32742995  -0.00232824  1
  Cu  Cu102  1  0.50597480  0.50124208  0.75385899  1
  Cu  Cu103  1  0.83237072  0.48778361  0.24986150  1
  Cu  Cu104  1  0.82916453  0.50358732  0.75522523  1
  Cu  Cu105  1  0.16118417  0.16229699  0.25737449  1
  Cu  Cu106  1  0.83717501  0.83715253  0.24338771  1
  Cu  Cu107  1  0.17192904  0.84085740  0.25212863  1
  Cu  Cu108  1  0.33995780  0.66784836  -0.00098506  1
  Cu  Cu109  1  0.49129218  0.84317875  0.25158889  1
  Cu  Cu110  1  0.33171408  -0.00041482  0.00075242  1
  Cu  Cu111  1  0.34483713  0.33686368  -0.00133744  1
  Cu  Cu112  1  0.16799991  0.83361121  0.74881502  1
  Cu  Cu113  1  0.66581087  0.66450518  0.50523550  1
  Cu  Cu114  1  0.67141358  0.00223468  0.50687565  1
  Se  Se115  1  0.07696460  0.08233795  0.06340038  1
  Se  Se116  1  0.07909918  0.08606538  0.56337692  1
  Se  Se117  1  0.08230303  0.40538910  0.05464681  1
  Se  Se118  1  0.07125467  0.41035388  0.56105054  1
  Se  Se119  1  0.07890087  0.73951314  0.05690391  1
  Se  Se120  1  0.07841152  0.74525835  0.54824279  1
  Se  Se121  1  0.41316904  0.08593207  0.05218199  1
  Se  Se122  1  0.41011339  0.07205558  0.56117019  1
  Se  Se123  1  0.42325912  0.42270439  0.05233864  1
  Se  Se124  1  0.40472822  0.40111177  0.55523864  1
  Se  Se125  1  0.41416808  0.75500953  0.05591819  1
  Se  Se126  1  0.42160279  0.74907360  0.55581865  1
  Se  Se127  1  0.75415708  0.08533671  0.04373901  1
  Se  Se128  1  0.74828753  0.08632004  0.56209766  1
  Se  Se129  1  0.75559826  0.41614328  0.05249314  1
  Se  Se130  1  0.75380074  0.41849615  0.55785939  1
  Se  Se131  1  0.74381800  0.74558286  0.04858885  1
  Se  Se132  1  0.74716693  0.74759082  0.56343755  1
  Se  Se133  1  0.25897114  0.25892309  0.05692444  1
  Se  Se134  1  0.23881209  0.24336076  0.55238134  1
  Se  Se135  1  0.25500195  0.58744165  0.05661667  1
  Se  Se136  1  0.25804583  0.58762582  0.55931032  1
  Se  Se137  1  0.24717325  0.92351634  0.06078294  1
  Se  Se138  1  0.24490201  0.91342566  0.55661966  1
  Se  Se139  1  0.58918693  0.25014251  0.04813094  1
  Se  Se140  1  0.58913145  0.24912705  0.56436277  1
  Se  Se141  1  0.58054202  0.58375350  0.05491168  1
  Se  Se142  1  0.59337987  0.58418088  0.57095025  1
  Se  Se143  1  0.58154818  0.91787391  0.04838007  1
  Se  Se144  1  0.58507170  0.91469767  0.55085988  1
  Se  Se145  1  0.91602719  0.24695790  0.05782623  1
  Se  Se146  1  0.90892292  0.24369132  0.56121646  1
  Se  Se147  1  0.91921774  0.57700713  0.04457129  1
  Se  Se148  1  0.92192699  0.59654203  0.54466473  1
  Se  Se149  1  0.90324062  0.89644960  0.05056739  1
  Se  Se150  1  0.91695954  0.92460361  0.56435608  1
  Se  Se151  1  0.07891098  0.24622906  0.45451584  1
  Se  Se152  1  0.07021332  0.24768528  0.93602332  1
  Se  Se153  1  0.07364520  0.58762023  0.43096466  1
  Se  Se154  1  0.07520688  0.59343432  0.94140582  1
  Se  Se155  1  0.08006237  0.91879226  0.45352047  1
  Se  Se156  1  0.06548799  0.93101417  0.95017096  1
  Se  Se157  1  0.40724145  0.25230977  0.43789749  1
  Se  Se158  1  0.42159403  0.24396411  0.94997739  1
  Se  Se159  1  0.41139349  0.58584368  0.44111302  1
  Se  Se160  1  0.41999336  0.58137171  0.94614590  1
  Se  Se161  1  0.41892549  0.91380127  0.44735001  1
  Se  Se162  1  0.41517018  0.91253037  0.95138164  1
  Se  Se163  1  0.74884351  0.24533665  0.44874179  1
  Se  Se164  1  0.75694557  0.24607034  0.94004831  1
  Se  Se165  1  0.74861632  0.58080817  0.45267648  1
  Se  Se166  1  0.74791007  0.58366529  0.94598329  1
  Se  Se167  1  0.74604262  0.92530413  0.43828121  1
  Se  Se168  1  0.74943481  0.91503721  0.94265039  1
  Se  Se169  1  0.24893195  0.08192603  0.45067116  1
  Se  Se170  1  0.25061914  0.07212577  0.93662592  1
  Se  Se171  1  0.24557762  0.41168842  0.43910038  1
  Se  Se172  1  0.25914266  0.40189945  0.93388146  1
  Se  Se173  1  0.24783475  0.75097766  0.44666141  1
  Se  Se174  1  0.25250978  0.73768995  0.93703954  1
  Se  Se175  1  0.59259609  0.07632378  0.43843682  1
  Se  Se176  1  0.58439099  0.08637021  0.94348128  1
  Se  Se177  1  0.58685233  0.40626215  0.44768264  1
  Se  Se178  1  0.58756696  0.41693334  0.94874471  1
  Se  Se179  1  0.58213592  0.74883290  0.45422229  1
  Se  Se180  1  0.57833780  0.75381259  0.94306140  1
  Se  Se181  1  0.91015724  0.08305602  0.45133825  1
  Se  Se182  1  0.92700133  0.08990777  0.92205831  1
  Se  Se183  1  0.91040607  0.41516829  0.45033680  1
  Se  Se184  1  0.91357646  0.41380930  0.94529689  1
  Se  Se185  1  0.92116734  0.74550229  0.43396363  1
  Se  Se186  1  0.92012978  0.74835164  0.95367262  1
  Se  Se187  1  0.24411121  0.24790710  0.31415730  1
  Se  Se188  1  0.24106933  0.23983819  0.80378584  1
  Se  Se189  1  0.25422571  0.58735110  0.29571450  1
  Se  Se190  1  0.25943418  0.57892641  0.79369949  1
  Se  Se191  1  0.25084899  0.92354261  0.30974134  1
  Se  Se192  1  0.24163560  0.91226241  0.81581520  1
  Se  Se193  1  0.58893512  0.25438841  0.29517211  1
  Se  Se194  1  0.58801766  0.24914587  0.80548610  1
  Se  Se195  1  0.57859411  0.57597537  0.31537846  1
  Se  Se196  1  0.58856149  0.58486146  0.80683468  1
  Se  Se197  1  0.58266049  0.91443078  0.30925831  1
  Se  Se198  1  0.58426276  0.91988449  0.80456133  1
  Se  Se199  1  0.93415241  0.26391557  0.31350373  1
  Se  Se200  1  0.94825562  0.28258888  0.79824538  1
  Se  Se201  1  0.90766011  0.57702065  0.30737150  1
  Se  Se202  1  0.91094068  0.58552476  0.81360783  1
  Se  Se203  1  0.92033602  0.91774037  0.29764749  1
  Se  Se204  1  0.91552865  0.91397522  0.80404069  1
  Se  Se205  1  0.07898959  0.08069784  0.31314652  1
  Se  Se206  1  0.09006479  0.08941114  0.78948470  1
  Se  Se207  1  0.08158374  0.41668381  0.29789658  1
  Se  Se208  1  0.11097378  0.45083878  0.81113748  1
  Se  Se209  1  0.08943158  0.75776594  0.31013804  1
  Se  Se210  1  0.08817147  0.75710900  0.81358356  1
  Se  Se211  1  0.42291062  0.08671306  0.29878566  1
  Se  Se212  1  0.41956260  0.08425481  0.81388594  1
  Se  Se213  1  0.42533211  0.42340556  0.30799141  1
  Se  Se214  1  0.42911741  0.41798381  0.81583197  1
  Se  Se215  1  0.41452352  0.75459865  0.30588218  1
  Se  Se216  1  0.41635447  0.74637219  0.80310180  1
  Se  Se217  1  0.76060946  0.09363205  0.30681037  1
  Se  Se218  1  0.75530476  0.08527907  0.79938873  1
  Se  Se219  1  0.74878286  0.40914738  0.30636921  1
  Se  Se220  1  0.75172967  0.41415685  0.80755150  1
  Se  Se221  1  0.75470484  0.75861807  0.30319819  1
  Se  Se222  1  0.74763732  0.74681430  0.80498900  1
  Se  Se223  1  0.25073369  0.08564619  0.20426117  1
  Se  Se224  1  0.24517536  0.09067858  0.69267977  1
  Se  Se225  1  0.24531319  0.42235513  0.18540666  1
  Se  Se226  1  0.24354988  0.41734582  0.68488314  1
  Se  Se227  1  0.25488182  0.75415306  0.20159182  1
  Se  Se228  1  0.25227935  0.75081293  0.69714203  1
  Se  Se229  1  0.58194201  0.08985577  0.18076818  1
  Se  Se230  1  0.58571665  0.07901093  0.70279314  1
  Se  Se231  1  0.58888841  0.42006506  0.19435293  1
  Se  Se232  1  0.58503592  0.41151803  0.70333605  1
  Se  Se233  1  0.57615134  0.76435831  0.19281232  1
  Se  Se234  1  0.58818209  0.74996494  0.69936987  1
  Se  Se235  1  0.91583051  0.06861599  0.19429661  1
  Se  Se236  1  0.91727083  0.08638719  0.70358029  1
  Se  Se237  1  0.91895647  0.41012636  0.19546197  1
  Se  Se238  1  0.91512014  0.42901246  0.69650700  1
  Se  Se239  1  0.90970645  0.74727713  0.18623429  1
  Se  Se240  1  0.90879840  0.75834129  0.68744283  1
  Se  Se241  1  0.07944344  0.24604044  0.20331847  1
  Se  Se242  1  0.06202792  0.26865077  0.70440946  1
  Se  Se243  1  0.08944370  0.57526509  0.18357520  1
  Se  Se244  1  0.08981558  0.58062635  0.68633820  1
  Se  Se245  1  0.08177499  0.91334191  0.19690118  1
  Se  Se246  1  0.08143130  0.91516032  0.69845880  1
  Se  Se247  1  0.42497284  0.24858010  0.18326953  1
  Se  Se248  1  0.42355820  0.24148285  0.69526990  1
  Se  Se249  1  0.41936285  0.59146131  0.19788898  1
  Se  Se250  1  0.42012266  0.58159559  0.70049663  1
  Se  Se251  1  0.41308804  0.92761080  0.19585537  1
  Se  Se252  1  0.42609616  0.90977123  0.69037552  1
  Se  Se253  1  0.75096737  0.24594539  0.19585858  1
  Se  Se254  1  0.74531897  0.26886244  0.70268473  1
  Se  Se255  1  0.76014453  0.57705769  0.19011007  1
  Se  Se256  1  0.74882113  0.58998649  0.70197676  1
  Se  Se257  1  0.75572915  0.91419088  0.18347334  1
  Se  Se258  1  0.74696888  0.91807731  0.69980016  1
