# generated using pymatgen
data_In86Cu29Se144
_symmetry_space_group_name_H-M   'P 1'
_cell_length_a   17.58458005
_cell_length_b   17.58836909
_cell_length_c   23.44530425
_cell_angle_alpha   89.99666069
_cell_angle_beta   90.00851993
_cell_angle_gamma   89.99777453
_symmetry_Int_Tables_number   1
_chemical_formula_structural   In86Cu29Se144
_chemical_formula_sum   'In86 Cu29 Se144'
_cell_volume   7251.25935191
_cell_formula_units_Z   1
loop_
 _symmetry_equiv_pos_site_id
 _symmetry_equiv_pos_as_xyz
  1  'x, y, z'
loop_
 _atom_site_type_symbol
 _atom_site_label
 _atom_site_symmetry_multiplicity
 _atom_site_fract_x
 _atom_site_fract_y
 _atom_site_fract_z
 _atom_site_occupancy
  In  In0  1  -0.01029183  0.15799597  0.12596958  1
  In  In1  1  -0.01799149  0.12548214  0.58906343  1
  In  In2  1  0.00469044  0.48779435  0.12570372  1
  In  In3  1  0.00573081  0.50858650  0.62184231  1
  In  In4  1  0.00882809  0.83682310  0.12990422  1
  In  In5  1  -0.00663876  0.83532775  0.61852694  1
  In  In6  1  0.35482723  0.14781085  0.14751213  1
  In  In7  1  0.31270672  0.13494840  0.59632859  1
  In  In8  1  0.33585247  0.49428810  0.12334301  1
  In  In9  1  0.33115578  0.48983736  0.61705082  1
  In  In10  1  0.34932871  0.83543323  0.13433634  1
  In  In11  1  0.33156810  0.85908148  0.61648564  1
  In  In12  1  0.67049509  0.16603406  0.12043646  1
  In  In13  1  0.65244089  0.15758796  0.61731302  1
  In  In14  1  0.66152053  0.51534569  0.12667734  1
  In  In15  1  0.67461897  0.50743459  0.61911187  1
  In  In16  1  0.64857260  0.83145826  0.12787029  1
  In  In17  1  0.67710481  0.82433536  0.63088500  1
  In  In18  1  0.16827761  0.00941213  0.38133182  1
  In  In19  1  0.16409565  -0.00319571  0.86080393  1
  In  In20  1  0.17918972  0.32718442  0.38115457  1
  In  In21  1  0.18057487  0.33291681  0.87297123  1
  In  In22  1  0.15891181  0.67231508  0.38572975  1
  In  In23  1  0.15376738  0.66770261  0.87368362  1
  In  In24  1  0.49197119  0.01141685  0.37605930  1
  In  In25  1  0.49986983  -0.00077659  0.87604279  1
  In  In26  1  0.49826636  0.33517844  0.37056446  1
  In  In27  1  0.49934074  0.32996809  0.88453461  1
  In  In28  1  0.49705001  0.66283104  0.37229549  1
  In  In29  1  0.51376345  0.66284578  0.88652346  1
  In  In30  1  0.83623220  -0.00177759  0.38742120  1
  In  In31  1  0.83676674  0.00519387  0.86761372  1
  In  In32  1  0.83976632  0.32467606  0.38706287  1
  In  In33  1  0.82196361  0.33007126  0.87579388  1
  In  In34  1  0.82456320  0.68053641  0.38103975  1
  In  In35  1  0.83337313  0.67062883  0.86627955  1
  In  In36  1  0.00019620  0.15615940  0.38464221  1
  In  In37  1  -0.00246108  0.15161627  0.86577992  1
  In  In38  1  0.00185456  0.49511698  0.38611651  1
  In  In39  1  -0.00636590  0.51288948  0.87301771  1
  In  In40  1  -0.01571621  0.86878863  0.40620455  1
  In  In41  1  -0.00285645  0.83215406  0.86149696  1
  In  In42  1  0.32918379  0.16423821  0.37423989  1
  In  In43  1  0.34001337  0.16594227  0.87230832  1
  In  In44  1  0.34343831  0.49773355  0.38004459  1
  In  In45  1  0.33674643  0.49526539  0.88257825  1
  In  In46  1  0.32313952  0.84176432  0.38068227  1
  In  In47  1  0.33655486  0.84677548  0.87372981  1
  In  In48  1  0.66576347  0.16483005  0.38332828  1
  In  In49  1  0.67159696  0.16095562  0.88021420  1
  In  In50  1  0.66098737  0.51088823  0.37890474  1
  In  In51  1  0.65803468  0.50580056  0.87740377  1
  In  In52  1  0.68392393  0.83473023  0.36935915  1
  In  In53  1  0.65486704  0.82754715  0.87132707  1
  In  In54  1  0.16450444  0.00229603  0.13500467  1
  In  In55  1  0.15786512  -0.00439808  0.61413667  1
  In  In56  1  0.17366864  0.34394232  0.12632378  1
  In  In57  1  0.16432234  0.32813521  0.61932711  1
  In  In58  1  0.18082021  0.66535151  0.12521979  1
  In  In59  1  0.16027317  0.65784029  0.62015744  1
  In  In60  1  0.49817533  -0.00354226  0.12213893  1
  In  In61  1  0.49585316  0.00545226  0.63084254  1
  In  In62  1  0.48991355  0.32083321  0.12109900  1
  In  In63  1  0.49179280  0.32652112  0.61935103  1
  In  In64  1  0.51707299  0.67683601  0.10643111  1
  In  In65  1  0.51566622  0.67139667  0.62583880  1
  In  In66  1  0.82880681  0.01051092  0.13090814  1
  In  In67  1  0.83173670  -0.00504792  0.62086008  1
  In  In68  1  0.84468463  0.32210330  0.12703826  1
  In  In69  1  0.82737088  0.32839872  0.61731276  1
  In  In70  1  0.82603778  0.66574088  0.13355476  1
  In  In71  1  0.83370937  0.66987698  0.62352090  1
  In  In72  1  0.66275415  0.33552410  0.75544483  1
  In  In73  1  0.33812684  0.67201099  0.25069627  1
  In  In74  1  0.33419347  0.67287864  0.74690450  1
  In  In75  1  0.82988816  0.49668766  -0.00238131  1
  In  In76  1  0.33700859  0.32457866  0.74882072  1
  In  In77  1  0.17410726  0.17304299  -0.00069628  1
  In  In78  1  0.66380515  -0.00397138  0.25326177  1
  In  In79  1  0.00560935  0.32912124  0.73570010  1
  In  In80  1  0.82607609  0.83497222  0.00402809  1
  In  In81  1  0.17386286  0.83076817  -0.00233913  1
  In  In82  1  0.00555937  0.32370555  0.26195298  1
  In  In83  1  0.49663227  0.83672464  0.49496495  1
  In  In84  1  -0.00350859  0.67634382  0.25755917  1
  In  In85  1  0.66621735  0.32862614  0.24842045  1
  Cu  Cu86  1  0.83601302  0.16251051  0.74143213  1
  Cu  Cu87  1  0.33322407  0.33286990  0.00405894  1
  Cu  Cu88  1  0.66338105  0.33513468  0.49628787  1
  Cu  Cu89  1  -0.00388943  0.66082308  0.50282942  1
  Cu  Cu90  1  0.16370044  0.16821929  0.25873522  1
  Cu  Cu91  1  0.83454757  0.51538050  0.74370525  1
  Cu  Cu92  1  0.00675906  0.32738550  0.00393294  1
  Cu  Cu93  1  0.67173265  0.66670864  0.50220308  1
  Cu  Cu94  1  0.33796067  0.65930873  0.50133980  1
  Cu  Cu95  1  0.16224074  0.15114376  0.73335404  1
  Cu  Cu96  1  0.66312824  0.00506260  -0.00005417  1
  Cu  Cu97  1  0.66859895  0.32921201  0.00284257  1
  Cu  Cu98  1  0.49568881  0.15323515  0.74820200  1
  Cu  Cu99  1  0.33775284  0.65831856  0.00282010  1
  Cu  Cu100  1  0.34540895  0.34148303  0.49225527  1
  Cu  Cu101  1  0.50596945  0.50686113  0.74989829  1
  Cu  Cu102  1  0.50347210  0.83827149  0.74983791  1
  Cu  Cu103  1  -0.00195641  0.34141597  0.50386448  1
  Cu  Cu104  1  0.16086176  0.50527622  0.74990248  1
  Cu  Cu105  1  -0.00388434  0.00201739  -0.00668879  1
  Cu  Cu106  1  0.49755027  0.50233725  0.25185991  1
  Cu  Cu107  1  0.66557791  -0.00488606  0.50116824  1
  Cu  Cu108  1  0.33838749  0.00199981  0.00249981  1
  Cu  Cu109  1  0.82799059  0.49977954  0.25768342  1
  Cu  Cu110  1  -0.00105609  0.65943913  -0.00371167  1
  Cu  Cu111  1  0.17355623  0.50638899  0.24911492  1
  Cu  Cu112  1  0.15989396  0.84725874  0.26142849  1
  Cu  Cu113  1  0.83401868  0.83991464  0.74526427  1
  Cu  Cu114  1  0.16355868  0.83643509  0.74103011  1
  Se  Se115  1  0.08237243  0.07660762  0.05381115  1
  Se  Se116  1  0.11429784  0.10359760  0.54251642  1
  Se  Se117  1  0.08767022  0.41561448  0.05245506  1
  Se  Se118  1  0.08650534  0.42047660  0.55582362  1
  Se  Se119  1  0.07829860  0.74010518  0.05703700  1
  Se  Se120  1  0.07906383  0.74546490  0.55496076  1
  Se  Se121  1  0.41622150  0.08801221  0.05733477  1
  Se  Se122  1  0.43820289  0.09042159  0.55199371  1
  Se  Se123  1  0.42127447  0.41654892  0.05294222  1
  Se  Se124  1  0.42712568  0.42288353  0.55015306  1
  Se  Se125  1  0.40920125  0.75204655  0.05495657  1
  Se  Se126  1  0.41153012  0.74632322  0.56253789  1
  Se  Se127  1  0.75350873  0.08191098  0.05246925  1
  Se  Se128  1  0.74691904  0.08191194  0.55384310  1
  Se  Se129  1  0.74789410  0.40833034  0.06575391  1
  Se  Se130  1  0.74748780  0.41630810  0.55153723  1
  Se  Se131  1  0.73985824  0.74049713  0.06040674  1
  Se  Se132  1  0.75393311  0.75427055  0.55232273  1
  Se  Se133  1  0.26280475  0.24872817  0.06797199  1
  Se  Se134  1  0.26776693  0.26510064  0.55653260  1
  Se  Se135  1  0.25039502  0.57826142  0.05446809  1
  Se  Se136  1  0.25012115  0.57937516  0.55376328  1
  Se  Se137  1  0.25444235  0.92315116  0.06189570  1
  Se  Se138  1  0.23077248  0.90320119  0.54402811  1
  Se  Se139  1  0.58313863  0.24669181  0.05457650  1
  Se  Se140  1  0.58098776  0.25168310  0.55098650  1
  Se  Se141  1  0.58499216  0.57554120  0.04581031  1
  Se  Se142  1  0.58324921  0.58523842  0.55221432  1
  Se  Se143  1  0.58334019  0.91815639  0.05247899  1
  Se  Se144  1  0.58713474  0.91485141  0.56332548  1
  Se  Se145  1  0.91982941  0.24415481  0.05195514  1
  Se  Se146  1  0.91839069  0.25083074  0.55270616  1
  Se  Se147  1  0.92045175  0.58611322  0.06240393  1
  Se  Se148  1  0.91052464  0.57921694  0.55563387  1
  Se  Se149  1  0.92473686  0.92194141  0.05889216  1
  Se  Se150  1  0.92488353  0.92883187  0.54930684  1
  Se  Se151  1  0.07295136  0.26280310  0.44051320  1
  Se  Se152  1  0.07806101  0.25166876  0.93349986  1
  Se  Se153  1  0.08526899  0.57967886  0.45201298  1
  Se  Se154  1  0.08555372  0.57747866  0.94570269  1
  Se  Se155  1  0.11188600  0.90737529  0.45273424  1
  Se  Se156  1  0.07795230  0.91846618  0.93791964  1
  Se  Se157  1  0.41819707  0.24994691  0.43917270  1
  Se  Se158  1  0.41092083  0.24664225  0.94769280  1
  Se  Se159  1  0.42571963  0.58225977  0.44805093  1
  Se  Se160  1  0.42182701  0.57837367  0.94713785  1
  Se  Se161  1  0.40162052  0.93434629  0.44977748  1
  Se  Se162  1  0.41875660  0.91648172  0.94866553  1
  Se  Se163  1  0.74975172  0.24568314  0.45199549  1
  Se  Se164  1  0.75268268  0.24690240  0.94928516  1
  Se  Se165  1  0.75367690  0.58326193  0.44678047  1
  Se  Se166  1  0.74735955  0.59573055  0.94193587  1
  Se  Se167  1  0.74897159  0.91037635  0.45039431  1
  Se  Se168  1  0.74460241  0.92517075  0.93870396  1
  Se  Se169  1  0.23457675  0.10675544  0.45045169  1
  Se  Se170  1  0.25219549  0.07171312  0.93881229  1
  Se  Se171  1  0.25139158  0.42242246  0.44681431  1
  Se  Se172  1  0.24911225  0.41388214  0.94892367  1
  Se  Se173  1  0.25787187  0.74448359  0.44783310  1
  Se  Se174  1  0.26180473  0.73798549  0.93701237  1
  Se  Se175  1  0.58225818  0.07824356  0.44832847  1
  Se  Se176  1  0.57804303  0.08716171  0.94590051  1
  Se  Se177  1  0.58137839  0.41687940  0.44038968  1
  Se  Se178  1  0.58987731  0.41259044  0.94604482  1
  Se  Se179  1  0.59125587  0.74586500  0.43988915  1
  Se  Se180  1  0.58186311  0.75969562  0.95121840  1
  Se  Se181  1  0.91827690  0.08078805  0.45728307  1
  Se  Se182  1  0.91363781  0.08666158  0.94243776  1
  Se  Se183  1  0.90930339  0.42164830  0.45250205  1
  Se  Se184  1  0.92593923  0.40600330  0.93997638  1
  Se  Se185  1  0.91836846  0.74920684  0.44981419  1
  Se  Se186  1  0.92281682  0.74820802  0.94143005  1
  Se  Se187  1  0.25181430  0.25409485  0.30295175  1
  Se  Se188  1  0.23606807  0.23101049  0.79958263  1
  Se  Se189  1  0.24652220  0.58675811  0.31322298  1
  Se  Se190  1  0.24930270  0.57720100  0.80949729  1
  Se  Se191  1  0.25020672  0.92721423  0.30916338  1
  Se  Se192  1  0.25043831  0.91171411  0.79798767  1
  Se  Se193  1  0.57866787  0.23674832  0.30675329  1
  Se  Se194  1  0.57031489  0.24031876  0.80866438  1
  Se  Se195  1  0.58290622  0.58554631  0.30234188  1
  Se  Se196  1  0.58542929  0.58990910  0.80450418  1
  Se  Se197  1  0.57369252  0.90980550  0.31526342  1
  Se  Se198  1  0.58536545  0.92291216  0.80422793  1
  Se  Se199  1  0.90693943  0.23541881  0.31137992  1
  Se  Se200  1  0.90967649  0.24951568  0.80264229  1
  Se  Se201  1  0.91357474  0.57682565  0.31504480  1
  Se  Se202  1  0.92170843  0.59259704  0.79835798  1
  Se  Se203  1  0.91224177  0.91204155  0.31718316  1
  Se  Se204  1  0.91883861  0.92313448  0.79833303  1
  Se  Se205  1  0.08058979  0.08344311  0.30921419  1
  Se  Se206  1  0.07782363  0.07591985  0.79304026  1
  Se  Se207  1  0.09378134  0.42608921  0.31010018  1
  Se  Se208  1  0.08569074  0.41716345  0.80812881  1
  Se  Se209  1  0.08109667  0.76549847  0.31973813  1
  Se  Se210  1  0.08623114  0.74979868  0.79762014  1
  Se  Se211  1  0.40932358  0.08218959  0.30313113  1
  Se  Se212  1  0.41029700  0.07494905  0.80424338  1
  Se  Se213  1  0.41381024  0.41893266  0.30259032  1
  Se  Se214  1  0.42668225  0.42108302  0.80682128  1
  Se  Se215  1  0.42035692  0.76574685  0.31226757  1
  Se  Se216  1  0.42571492  0.75440972  0.81117954  1
  Se  Se217  1  0.75400548  0.08391291  0.31384729  1
  Se  Se218  1  0.75053296  0.09004973  0.80254377  1
  Se  Se219  1  0.75365389  0.41305441  0.31560863  1
  Se  Se220  1  0.75923810  0.43295278  0.80663389  1
  Se  Se221  1  0.75007562  0.74360135  0.29953365  1
  Se  Se222  1  0.75169385  0.75915883  0.80342371  1
  Se  Se223  1  0.24532652  0.08354687  0.20377917  1
  Se  Se224  1  0.25197601  0.07064404  0.68407821  1
  Se  Se225  1  0.25503148  0.41996091  0.19900281  1
  Se  Se226  1  0.24176333  0.42009433  0.69522388  1
  Se  Se227  1  0.23742917  0.76539238  0.19811778  1
  Se  Se228  1  0.24763232  0.75834984  0.68185150  1
  Se  Se229  1  0.58143721  0.08924008  0.19070530  1
  Se  Se230  1  0.58981726  0.07860094  0.69856517  1
  Se  Se231  1  0.57718459  0.42129780  0.18996812  1
  Se  Se232  1  0.57731813  0.41998478  0.68839033  1
  Se  Se233  1  0.56937516  0.74606730  0.19448954  1
  Se  Se234  1  0.58701402  0.75019850  0.70137079  1
  Se  Se235  1  0.92545743  0.07185950  0.19913891  1
  Se  Se236  1  0.91952385  0.08350451  0.68524118  1
  Se  Se237  1  0.91230384  0.41961885  0.20053388  1
  Se  Se238  1  0.90655562  0.42287132  0.68798233  1
  Se  Se239  1  0.90774596  0.76280704  0.19387577  1
  Se  Se240  1  0.91576929  0.75349657  0.69253783  1
  Se  Se241  1  0.08993035  0.24407052  0.18850971  1
  Se  Se242  1  0.07983014  0.22920568  0.67534574  1
  Se  Se243  1  0.08619526  0.58294394  0.19314797  1
  Se  Se244  1  0.07901449  0.58862902  0.69812034  1
  Se  Se245  1  0.07641527  0.92365197  0.20244702  1
  Se  Se246  1  0.07824371  0.91791567  0.68837219  1
  Se  Se247  1  0.41274585  0.26083845  0.20237039  1
  Se  Se248  1  0.41658200  0.23164061  0.68641171  1
  Se  Se249  1  0.42404108  0.58446982  0.18740534  1
  Se  Se250  1  0.41947458  0.57646057  0.68796315  1
  Se  Se251  1  0.41313609  0.93246419  0.19938891  1
  Se  Se252  1  0.41547575  0.91642432  0.69692003  1
  Se  Se253  1  0.76302275  0.23621326  0.19603028  1
  Se  Se254  1  0.74772017  0.24527807  0.69104480  1
  Se  Se255  1  0.74725948  0.58170932  0.20243184  1
  Se  Se256  1  0.74346822  0.59251674  0.69365895  1
  Se  Se257  1  0.75140150  0.90759644  0.18938745  1
  Se  Se258  1  0.74739269  0.92264684  0.69543747  1
