# generated using pymatgen
data_In86Cu29Se144
_symmetry_space_group_name_H-M   'P 1'
_cell_length_a   17.58261549
_cell_length_b   17.57922993
_cell_length_c   23.44353154
_cell_angle_alpha   90.01025979
_cell_angle_beta   90.03998779
_cell_angle_gamma   89.99504123
_symmetry_Int_Tables_number   1
_chemical_formula_structural   In86Cu29Se144
_chemical_formula_sum   'In86 Cu29 Se144'
_cell_volume   7246.13207432
_cell_formula_units_Z   1
loop_
 _symmetry_equiv_pos_site_id
 _symmetry_equiv_pos_as_xyz
  1  'x, y, z'
loop_
 _atom_site_type_symbol
 _atom_site_label
 _atom_site_symmetry_multiplicity
 _atom_site_fract_x
 _atom_site_fract_y
 _atom_site_fract_z
 _atom_site_occupancy
  In  In0  1  0.00419566  0.15330001  0.11970920  1
  In  In1  1  -0.01338652  0.17367387  0.63432017  1
  In  In2  1  0.00944488  0.50778531  0.11641082  1
  In  In3  1  -0.00322876  0.49948595  0.63871902  1
  In  In4  1  -0.00400197  0.82087061  0.12256341  1
  In  In5  1  0.00426628  0.83315312  0.62971715  1
  In  In6  1  0.33518810  0.17281307  0.13552057  1
  In  In7  1  0.33694964  0.14366194  0.62165854  1
  In  In8  1  0.33215321  0.49876132  0.12073539  1
  In  In9  1  0.34214768  0.49015174  0.62440778  1
  In  In10  1  0.34035191  0.84145757  0.11808359  1
  In  In11  1  0.33607715  0.85860579  0.61470800  1
  In  In12  1  0.65641023  0.16849344  0.13939823  1
  In  In13  1  0.66930208  0.16209670  0.62278450  1
  In  In14  1  0.64922950  0.48256052  0.10028612  1
  In  In15  1  0.65370428  0.49986715  0.62469083  1
  In  In16  1  0.66169399  0.85294271  0.12346856  1
  In  In17  1  0.68226901  0.83293633  0.61915575  1
  In  In18  1  0.16566766  -0.01077061  0.37476509  1
  In  In19  1  0.16891718  -0.00049580  0.87458345  1
  In  In20  1  0.17176329  0.31661394  0.37281818  1
  In  In21  1  0.15865931  0.34141965  0.88456913  1
  In  In22  1  0.16571085  0.68520744  0.37249895  1
  In  In23  1  0.15869507  0.67209399  0.87920856  1
  In  In24  1  0.50599752  0.01437635  0.36231406  1
  In  In25  1  0.49672211  -0.00078683  0.86894432  1
  In  In26  1  0.50338999  0.32814109  0.37320109  1
  In  In27  1  0.51465583  0.33467692  0.87774916  1
  In  In28  1  0.48517400  0.65778528  0.38136987  1
  In  In29  1  0.51364965  0.66499202  0.89125576  1
  In  In30  1  0.79946423  0.02478505  0.40968097  1
  In  In31  1  0.82938972  -0.00415566  0.86509760  1
  In  In32  1  0.81373607  0.33320608  0.37336128  1
  In  In33  1  0.83368793  0.33393767  0.87278317  1
  In  In34  1  0.84505162  0.66885423  0.37200069  1
  In  In35  1  0.82924435  0.65277394  0.87466059  1
  In  In36  1  0.00103255  0.15013662  0.38249671  1
  In  In37  1  0.00319551  0.17313418  0.87005132  1
  In  In38  1  -0.01384805  0.50388421  0.36851477  1
  In  In39  1  -0.00266431  0.49892052  0.87543371  1
  In  In40  1  -0.00267871  0.83654943  0.38010439  1
  In  In41  1  0.00947647  0.84354234  0.86445531  1
  In  In42  1  0.34919057  0.17913776  0.35756723  1
  In  In43  1  0.33782705  0.15119065  0.87326132  1
  In  In44  1  0.35024321  0.50032291  0.37388921  1
  In  In45  1  0.33690212  0.49539938  0.88653079  1
  In  In46  1  0.31481089  0.83551431  0.37867191  1
  In  In47  1  0.33027915  0.83715695  0.87798060  1
  In  In48  1  0.66211610  0.16810947  0.37289709  1
  In  In49  1  0.66692800  0.16864457  0.86851294  1
  In  In50  1  0.65812170  0.47835205  0.36716153  1
  In  In51  1  0.68606138  0.48842276  0.90090680  1
  In  In52  1  0.66277435  0.86099813  0.38169683  1
  In  In53  1  0.65587672  0.84073779  0.87880128  1
  In  In54  1  0.17781150  0.01000046  0.11209704  1
  In  In55  1  0.17624335  -0.00858443  0.63020413  1
  In  In56  1  0.17739061  0.34397113  0.11772655  1
  In  In57  1  0.16012563  0.31999712  0.62742963  1
  In  In58  1  0.15833895  0.65995839  0.11739701  1
  In  In59  1  0.15421966  0.66927944  0.63061340  1
  In  In60  1  0.50507170  -0.00344307  0.13399581  1
  In  In61  1  0.49676141  0.00544723  0.62513959  1
  In  In62  1  0.49423223  0.33218966  0.13275636  1
  In  In63  1  0.51298155  0.33490848  0.62093060  1
  In  In64  1  0.50228717  0.66442702  0.11140660  1
  In  In65  1  0.50835749  0.66449286  0.61880130  1
  In  In66  1  0.82484022  -0.00201376  0.12715928  1
  In  In67  1  0.83037758  0.00138714  0.62752229  1
  In  In68  1  0.81299478  0.33583574  0.12384478  1
  In  In69  1  0.83464985  0.32655256  0.63209274  1
  In  In70  1  0.84693206  0.66939660  0.12731300  1
  In  In71  1  0.84023335  0.67589835  0.62561783  1
  In  In72  1  0.00151542  0.33340217  0.25057285  1
  In  In73  1  0.32921320  0.32547485  0.74884847  1
  In  In74  1  0.82996922  0.83123711  -0.00516436  1
  In  In75  1  0.67333158  0.66841761  0.24195846  1
  In  In76  1  0.49849054  0.16917874  0.00441435  1
  In  In77  1  0.83188944  0.16926717  0.00124127  1
  In  In78  1  0.82722261  0.49989432  0.49882914  1
  In  In79  1  0.32981777  0.66875248  0.24954703  1
  In  In80  1  0.49863041  0.83799255  0.49701184  1
  In  In81  1  0.17362125  0.15201911  0.50312263  1
  In  In82  1  0.17468724  0.50757660  0.50068899  1
  In  In83  1  0.33215306  0.67267880  0.75503446  1
  In  In84  1  0.66952087  0.66554568  0.75204400  1
  In  In85  1  -0.00163483  -0.01246114  0.25525470  1
  Cu  Cu86  1  0.15881295  0.49787994  0.75808716  1
  Cu  Cu87  1  0.82914966  0.16399690  0.25803438  1
  Cu  Cu88  1  0.82575493  0.16453523  0.74841517  1
  Cu  Cu89  1  0.66525689  0.65973706  0.49677633  1
  Cu  Cu90  1  0.32928397  0.66759525  -0.00059612  1
  Cu  Cu91  1  0.16120610  0.83348667  0.24820069  1
  Cu  Cu92  1  0.50454439  0.16417875  0.74749739  1
  Cu  Cu93  1  0.00505410  0.67394692  0.50059403  1
  Cu  Cu94  1  0.15931773  0.16292380  0.75103001  1
  Cu  Cu95  1  0.16759896  0.50121400  0.24198868  1
  Cu  Cu96  1  0.65971755  0.32285554  0.49718193  1
  Cu  Cu97  1  0.00204440  0.66652380  -0.00367224  1
  Cu  Cu98  1  -0.00315175  0.33238930  0.50890929  1
  Cu  Cu99  1  0.83870298  0.83386964  0.74600384  1
  Cu  Cu100  1  0.49996635  0.83969849  0.75043087  1
  Cu  Cu101  1  0.49613069  0.83969050  0.24873440  1
  Cu  Cu102  1  0.17566803  0.16750195  0.24294605  1
  Cu  Cu103  1  0.33243744  -0.00289496  -0.00365778  1
  Cu  Cu104  1  0.50655817  0.49909392  0.75320593  1
  Cu  Cu105  1  -0.00182190  0.33350104  -0.00496621  1
  Cu  Cu106  1  0.17057759  0.83826337  0.75202369  1
  Cu  Cu107  1  -0.00307653  -0.00692302  0.50890897  1
  Cu  Cu108  1  0.50546207  0.49544673  0.24758849  1
  Cu  Cu109  1  0.83111536  0.49334933  0.75641458  1
  Cu  Cu110  1  0.34502258  0.33163492  0.49771566  1
  Cu  Cu111  1  0.33298044  0.32958776  0.00786022  1
  Cu  Cu112  1  0.83329283  0.50462624  0.24385463  1
  Cu  Cu113  1  0.00520023  -0.00380248  -0.00697769  1
  Cu  Cu114  1  0.83051225  0.84124929  0.25421393  1
  Se  Se115  1  0.08571883  0.08461322  0.04449391  1
  Se  Se116  1  0.07476464  0.07988616  0.56790746  1
  Se  Se117  1  0.08363858  0.41499167  0.05068132  1
  Se  Se118  1  0.07983034  0.41648851  0.56097312  1
  Se  Se119  1  0.08295194  0.75214980  0.04973386  1
  Se  Se120  1  0.08747114  0.75447522  0.55579378  1
  Se  Se121  1  0.40855644  0.07694014  0.06128356  1
  Se  Se122  1  0.41303207  0.07002129  0.54769801  1
  Se  Se123  1  0.41944467  0.41294182  0.05776039  1
  Se  Se124  1  0.42462960  0.41570513  0.55328939  1
  Se  Se125  1  0.41462026  0.75102410  0.05053869  1
  Se  Se126  1  0.41124139  0.74731022  0.55963414  1
  Se  Se127  1  0.73842429  0.08416575  0.06222605  1
  Se  Se128  1  0.75828184  0.08620263  0.55473612  1
  Se  Se129  1  0.76269805  0.42333833  0.04539846  1
  Se  Se130  1  0.73973361  0.40723983  0.55784405  1
  Se  Se131  1  0.74791619  0.75232334  0.06677032  1
  Se  Se132  1  0.75076875  0.73820872  0.55103539  1
  Se  Se133  1  0.25218060  0.24262972  0.05909324  1
  Se  Se134  1  0.26061898  0.25507037  0.55877046  1
  Se  Se135  1  0.24851737  0.58071529  0.05269346  1
  Se  Se136  1  0.25796507  0.59156482  0.56850346  1
  Se  Se137  1  0.24797073  0.91166379  0.04799987  1
  Se  Se138  1  0.24630512  0.92818594  0.54609480  1
  Se  Se139  1  0.59126923  0.25766943  0.06138818  1
  Se  Se140  1  0.57914356  0.23941095  0.55297264  1
  Se  Se141  1  0.59011410  0.59225171  0.04326842  1
  Se  Se142  1  0.58064347  0.57727150  0.54771836  1
  Se  Se143  1  0.57158166  0.91994473  0.05394897  1
  Se  Se144  1  0.59174081  0.92118571  0.55815821  1
  Se  Se145  1  0.92326093  0.25821765  0.06349393  1
  Se  Se146  1  0.91094176  0.24872382  0.55669783  1
  Se  Se147  1  0.91782479  0.58709228  0.05171290  1
  Se  Se148  1  0.92724557  0.58440096  0.55696307  1
  Se  Se149  1  0.92135673  0.92476934  0.05690647  1
  Se  Se150  1  0.91423607  0.91086327  0.56276324  1
  Se  Se151  1  0.07883954  0.25237943  0.44865824  1
  Se  Se152  1  0.08167432  0.24531564  0.94737491  1
  Se  Se153  1  0.07472899  0.58663937  0.43838543  1
  Se  Se154  1  0.08432522  0.57871856  0.94472483  1
  Se  Se155  1  0.08111825  0.91943617  0.44855232  1
  Se  Se156  1  0.08871480  0.91089224  0.94316563  1
  Se  Se157  1  0.41986044  0.24465611  0.44183376  1
  Se  Se158  1  0.40861391  0.25656540  0.93857547  1
  Se  Se159  1  0.40767187  0.58118037  0.45361435  1
  Se  Se160  1  0.41733224  0.58412363  0.95049272  1
  Se  Se161  1  0.41577700  0.92360557  0.43002759  1
  Se  Se162  1  0.41986654  0.91864061  0.94268622  1
  Se  Se163  1  0.75072678  0.24563649  0.44667890  1
  Se  Se164  1  0.73927648  0.25725716  0.94350260  1
  Se  Se165  1  0.74134543  0.58325464  0.43017593  1
  Se  Se166  1  0.74245305  0.60368664  0.95362952  1
  Se  Se167  1  0.76404368  0.89670283  0.45549895  1
  Se  Se168  1  0.74302385  0.93274928  0.94505162  1
  Se  Se169  1  0.25767616  0.08686108  0.42625359  1
  Se  Se170  1  0.24987422  0.08402994  0.94581150  1
  Se  Se171  1  0.25513448  0.40610143  0.44093883  1
  Se  Se172  1  0.25073424  0.41375460  0.95226787  1
  Se  Se173  1  0.25316535  0.74121086  0.44835834  1
  Se  Se174  1  0.24847906  0.75103742  0.94435570  1
  Se  Se175  1  0.59261282  0.07234209  0.43986176  1
  Se  Se176  1  0.58501107  0.08293107  0.93952844  1
  Se  Se177  1  0.58051220  0.41433292  0.44679096  1
  Se  Se178  1  0.57342009  0.42355314  0.95165143  1
  Se  Se179  1  0.58864805  0.74363586  0.43581948  1
  Se  Se180  1  0.58726139  0.76038361  0.95364741  1
  Se  Se181  1  0.91894462  0.08458930  0.45823930  1
  Se  Se182  1  0.91802383  0.07662135  0.93875991  1
  Se  Se183  1  0.92093831  0.40733871  0.44138031  1
  Se  Se184  1  0.91319988  0.41618869  0.94409051  1
  Se  Se185  1  0.91504074  0.74979626  0.44787951  1
  Se  Se186  1  0.92495976  0.74777919  0.93372433  1
  Se  Se187  1  0.25377606  0.25756364  0.29388404  1
  Se  Se188  1  0.24029644  0.24236805  0.81349818  1
  Se  Se189  1  0.24249336  0.57702699  0.31127125  1
  Se  Se190  1  0.24790679  0.57383029  0.81281723  1
  Se  Se191  1  0.24679531  0.91518735  0.30002420  1
  Se  Se192  1  0.25594103  0.91991760  0.80458132  1
  Se  Se193  1  0.60570214  0.27124926  0.30637659  1
  Se  Se194  1  0.58181421  0.25199537  0.80142467  1
  Se  Se195  1  0.57812519  0.58403131  0.30690696  1
  Se  Se196  1  0.58441909  0.57695264  0.81510650  1
  Se  Se197  1  0.58542634  0.91870600  0.29909105  1
  Se  Se198  1  0.58762759  0.92087215  0.80136972  1
  Se  Se199  1  0.91652158  0.24111306  0.31471279  1
  Se  Se200  1  0.90992955  0.24684501  0.80379392  1
  Se  Se201  1  0.91667917  0.58845586  0.29503967  1
  Se  Se202  1  0.91593330  0.58117309  0.80338722  1
  Se  Se203  1  0.89953679  0.92252628  0.32109756  1
  Se  Se204  1  0.91985140  0.92081174  0.79827149  1
  Se  Se205  1  0.09204644  0.09022473  0.30397899  1
  Se  Se206  1  0.07965184  0.07839158  0.80638293  1
  Se  Se207  1  0.09328191  0.42380550  0.31117743  1
  Se  Se208  1  0.07767171  0.40954487  0.80731859  1
  Se  Se209  1  0.07524671  0.75679362  0.30383206  1
  Se  Se210  1  0.08821223  0.74913507  0.80079145  1
  Se  Se211  1  0.42188632  0.08893627  0.29015808  1
  Se  Se212  1  0.41664670  0.08139483  0.79692739  1
  Se  Se213  1  0.42098195  0.41499511  0.30251132  1
  Se  Se214  1  0.41869692  0.41904592  0.80745742  1
  Se  Se215  1  0.42051472  0.75765979  0.31038636  1
  Se  Se216  1  0.43155865  0.75291548  0.81344916  1
  Se  Se217  1  0.75232221  0.07644317  0.31241353  1
  Se  Se218  1  0.74324996  0.07995017  0.80072430  1
  Se  Se219  1  0.75258686  0.41749563  0.29515182  1
  Se  Se220  1  0.74179877  0.42021260  0.81175040  1
  Se  Se221  1  0.74898367  0.75798835  0.31246658  1
  Se  Se222  1  0.75707677  0.75966365  0.81131568  1
  Se  Se223  1  0.25206729  0.07498691  0.19390463  1
  Se  Se224  1  0.24843701  0.08542290  0.69833365  1
  Se  Se225  1  0.25472237  0.41772839  0.19482703  1
  Se  Se226  1  0.23829143  0.42316700  0.69260724  1
  Se  Se227  1  0.24164710  0.75499957  0.18590725  1
  Se  Se228  1  0.25094703  0.76124860  0.68862806  1
  Se  Se229  1  0.57996187  0.08088399  0.20488429  1
  Se  Se230  1  0.58620232  0.07974030  0.69375788  1
  Se  Se231  1  0.58969715  0.41987059  0.18983382  1
  Se  Se232  1  0.58565709  0.41382187  0.69858641  1
  Se  Se233  1  0.57263785  0.75534730  0.18905158  1
  Se  Se234  1  0.57904041  0.75725588  0.69050639  1
  Se  Se235  1  0.91127856  0.08804697  0.19592919  1
  Se  Se236  1  0.91360620  0.08026533  0.70015446  1
  Se  Se237  1  0.91539263  0.42024414  0.18617159  1
  Se  Se238  1  0.91475185  0.41118881  0.70136941  1
  Se  Se239  1  0.91414806  0.75742173  0.20179158  1
  Se  Se240  1  0.92315791  0.74581395  0.69954980  1
  Se  Se241  1  0.08808006  0.24455730  0.18641903  1
  Se  Se242  1  0.07763623  0.25194166  0.70187559  1
  Se  Se243  1  0.08108983  0.58574898  0.19488016  1
  Se  Se244  1  0.08138980  0.58505563  0.70313644  1
  Se  Se245  1  0.08710044  0.91482504  0.18310980  1
  Se  Se246  1  0.08452468  0.91951059  0.69853108  1
  Se  Se247  1  0.43316763  0.23620366  0.20247005  1
  Se  Se248  1  0.42128034  0.24223693  0.68625296  1
  Se  Se249  1  0.42540387  0.58184093  0.19102613  1
  Se  Se250  1  0.42545491  0.58014269  0.69505376  1
  Se  Se251  1  0.40790296  0.91879379  0.19698180  1
  Se  Se252  1  0.41588917  0.91955074  0.69534185  1
  Se  Se253  1  0.75265602  0.24840646  0.20040477  1
  Se  Se254  1  0.74239059  0.25007295  0.69635352  1
  Se  Se255  1  0.75018618  0.57317384  0.17873575  1
  Se  Se256  1  0.75873908  0.57420296  0.68884259  1
  Se  Se257  1  0.74562237  0.92120022  0.20001198  1
  Se  Se258  1  0.74873486  0.91368243  0.69666564  1
