# generated using pymatgen
data_In86Cu29Se144
_symmetry_space_group_name_H-M   'P 1'
_cell_length_a   17.56650510
_cell_length_b   17.56781836
_cell_length_c   23.42220560
_cell_angle_alpha   90.00133205
_cell_angle_beta   90.00956774
_cell_angle_gamma   90.01382024
_symmetry_Int_Tables_number   1
_chemical_formula_structural   In86Cu29Se144
_chemical_formula_sum   'In86 Cu29 Se144'
_cell_volume   7228.21344377
_cell_formula_units_Z   1
loop_
 _symmetry_equiv_pos_site_id
 _symmetry_equiv_pos_as_xyz
  1  'x, y, z'
loop_
 _atom_site_type_symbol
 _atom_site_label
 _atom_site_symmetry_multiplicity
 _atom_site_fract_x
 _atom_site_fract_y
 _atom_site_fract_z
 _atom_site_occupancy
  In  In0  1  -0.00288336  0.16411793  0.12318571  1
  In  In1  1  -0.01021630  0.17094289  0.62464428  1
  In  In2  1  -0.02565940  0.51144494  0.14556222  1
  In  In3  1  0.01103998  0.50083498  0.61617223  1
  In  In4  1  -0.01259247  0.84423105  0.13232322  1
  In  In5  1  -0.00134248  0.82705065  0.62745030  1
  In  In6  1  0.33846716  0.17032089  0.11070280  1
  In  In7  1  0.33272800  0.14760895  0.63031061  1
  In  In8  1  0.33648121  0.49368716  0.12229393  1
  In  In9  1  0.32964434  0.51500922  0.62761027  1
  In  In10  1  0.34395231  0.82561153  0.12017153  1
  In  In11  1  0.32492773  0.83731729  0.63442418  1
  In  In12  1  0.65978915  0.15588071  0.11969071  1
  In  In13  1  0.67288503  0.16186808  0.63453266  1
  In  In14  1  0.66928324  0.50917946  0.12709798  1
  In  In15  1  0.66228339  0.50268984  0.63225672  1
  In  In16  1  0.66890543  0.83209987  0.12205728  1
  In  In17  1  0.68288836  0.82464567  0.65130705  1
  In  In18  1  0.15405367  -0.00160924  0.37786389  1
  In  In19  1  0.16961027  0.00333355  0.87207962  1
  In  In20  1  0.16058625  0.34565435  0.38059859  1
  In  In21  1  0.15421601  0.32832444  0.87881322  1
  In  In22  1  0.15307179  0.67733134  0.38793625  1
  In  In23  1  0.17656704  0.67489158  0.86583091  1
  In  In24  1  0.51683388  0.00636777  0.36608558  1
  In  In25  1  0.50635046  -0.00609476  0.87305323  1
  In  In26  1  0.52043913  0.33622294  0.36867244  1
  In  In27  1  0.53019074  0.31586124  0.90261224  1
  In  In28  1  0.50385160  0.66580603  0.37007247  1
  In  In29  1  0.50495789  0.66757402  0.87253444  1
  In  In30  1  0.82790320  -0.00611965  0.37162661  1
  In  In31  1  0.83666814  0.00002835  0.87232541  1
  In  In32  1  0.83661634  0.34218833  0.35134264  1
  In  In33  1  0.81250756  0.33138911  0.88228980  1
  In  In34  1  0.84177818  0.67430691  0.37074224  1
  In  In35  1  0.83895555  0.68320414  0.86406869  1
  In  In36  1  -0.00554225  0.15765891  0.36415311  1
  In  In37  1  0.00623532  0.15880480  0.88535547  1
  In  In38  1  -0.00394923  0.50702016  0.36959113  1
  In  In39  1  -0.00854737  0.51253865  0.87681133  1
  In  In40  1  -0.00285081  0.83495241  0.37810841  1
  In  In41  1  -0.01375958  0.83279827  0.86373343  1
  In  In42  1  0.33528696  0.16347380  0.37212961  1
  In  In43  1  0.34374681  0.15098871  0.88540020  1
  In  In44  1  0.32411630  0.49168722  0.37619023  1
  In  In45  1  0.35015893  0.51699091  0.86747236  1
  In  In46  1  0.33385240  0.82479469  0.37933246  1
  In  In47  1  0.35768550  0.84780132  0.84793905  1
  In  In48  1  0.67190472  0.17523765  0.35489014  1
  In  In49  1  0.67020100  0.16409763  0.88356617  1
  In  In50  1  0.69166863  0.51683871  0.34761838  1
  In  In51  1  0.65963199  0.49254834  0.87383980  1
  In  In52  1  0.67715275  0.84807200  0.36430672  1
  In  In53  1  0.67124025  0.83267743  0.86730398  1
  In  In54  1  0.14970824  0.00144155  0.12626692  1
  In  In55  1  0.18085910  -0.01159063  0.63396651  1
  In  In56  1  0.16336563  0.32636034  0.12281653  1
  In  In57  1  0.15257466  0.34487167  0.61989308  1
  In  In58  1  0.15990120  0.65742782  0.12646497  1
  In  In59  1  0.15903884  0.66599642  0.62372455  1
  In  In60  1  0.51218450  0.00295329  0.11522795  1
  In  In61  1  0.51299005  -0.02215103  0.65029206  1
  In  In62  1  0.50737394  0.33641492  0.10990246  1
  In  In63  1  0.51406662  0.34017761  0.62835399  1
  In  In64  1  0.52801936  0.68868713  0.10550222  1
  In  In65  1  0.50038599  0.67722449  0.64875702  1
  In  In66  1  0.83002713  -0.00201117  0.12014902  1
  In  In67  1  0.86434404  -0.02854155  0.66097332  1
  In  In68  1  0.83880500  0.32472855  0.12966687  1
  In  In69  1  0.82757243  0.32486077  0.62707653  1
  In  In70  1  0.82222876  0.67736501  0.13245089  1
  In  In71  1  0.82396902  0.67978716  0.63541549  1
  In  In72  1  0.16996486  0.83703226  -0.00514606  1
  In  In73  1  0.49622078  0.50619040  0.50004216  1
  In  In74  1  0.83108687  0.49995458  0.00512174  1
  In  In75  1  0.34118109  0.00065372  0.24318844  1
  In  In76  1  0.16856636  0.49116159  0.00387083  1
  In  In77  1  -0.00784822  0.33526704  0.74422087  1
  In  In78  1  0.83650203  0.50299522  0.48847356  1
  In  In79  1  0.50020107  0.16513426  0.49239386  1
  In  In80  1  0.33814677  0.66928605  0.25022580  1
  In  In81  1  0.49687652  0.83362203  0.50738492  1
  In  In82  1  0.34154182  0.32861433  0.75522751  1
  In  In83  1  0.82980201  0.16509481  0.50252556  1
  In  In84  1  0.33501619  0.33366223  0.24567492  1
  In  In85  1  0.16143329  0.16421298  0.50250353  1
  Cu  Cu86  1  0.34677782  0.66972061  -0.00649632  1
  Cu  Cu87  1  -0.00181053  -0.01046775  0.50656228  1
  Cu  Cu88  1  0.51149552  0.49080995  0.75548775  1
  Cu  Cu89  1  0.16912561  0.16001772  0.75494546  1
  Cu  Cu90  1  0.83777459  0.83419820  0.24910685  1
  Cu  Cu91  1  0.83231265  0.15448895  0.23926134  1
  Cu  Cu92  1  -0.00535735  0.66889349  0.50030969  1
  Cu  Cu93  1  0.16011775  0.16770911  0.24566180  1
  Cu  Cu94  1  -0.00932517  0.00132290  0.00155003  1
  Cu  Cu95  1  0.66975691  -0.00984411  -0.00471532  1
  Cu  Cu96  1  0.31959432  0.66880391  0.50574949  1
  Cu  Cu97  1  0.15446596  0.50704906  0.25586322  1
  Cu  Cu98  1  0.82759898  0.17329492  0.75893692  1
  Cu  Cu99  1  0.32448468  0.33677016  0.50036049  1
  Cu  Cu100  1  0.82923767  0.50867811  0.75492979  1
  Cu  Cu101  1  0.67391440  0.66868694  -0.00692816  1
  Cu  Cu102  1  0.33416025  -0.00488774  -0.00790731  1
  Cu  Cu103  1  0.66330452  0.67731916  0.50640426  1
  Cu  Cu104  1  0.67857497  -0.00670766  0.50163768  1
  Cu  Cu105  1  0.16351916  0.50432833  0.74680449  1
  Cu  Cu106  1  0.50459391  0.16797579  0.76401529  1
  Cu  Cu107  1  0.00204075  0.67668987  -0.00479820  1
  Cu  Cu108  1  0.15481476  0.82541497  0.74729108  1
  Cu  Cu109  1  0.33173611  0.33595713  -0.00389883  1
  Cu  Cu110  1  -0.00054278  0.32895758  0.00650796  1
  Cu  Cu111  1  0.50319618  0.50896462  0.23987407  1
  Cu  Cu112  1  0.34019909  -0.00534231  0.50796892  1
  Cu  Cu113  1  0.16239409  0.83100911  0.25615765  1
  Cu  Cu114  1  0.67066275  0.33719482  0.49321819  1
  Se  Se115  1  0.08036321  0.08288311  0.05090200  1
  Se  Se116  1  0.07693282  0.07311114  0.56617692  1
  Se  Se117  1  0.06757423  0.42050814  0.06666250  1
  Se  Se118  1  0.07559280  0.41230495  0.54313595  1
  Se  Se119  1  0.08115757  0.75099920  0.06040883  1
  Se  Se120  1  0.08032218  0.75077055  0.55347219  1
  Se  Se121  1  0.41636399  0.07606475  0.04937865  1
  Se  Se122  1  0.42761907  0.07193706  0.56323703  1
  Se  Se123  1  0.41481304  0.42055398  0.04771666  1
  Se  Se124  1  0.41055819  0.41109615  0.56213089  1
  Se  Se125  1  0.42638429  0.75935293  0.04380866  1
  Se  Se126  1  0.41000889  0.73835233  0.56641662  1
  Se  Se127  1  0.74800677  0.07793149  0.04952379  1
  Se  Se128  1  0.75195093  0.07306631  0.56647721  1
  Se  Se129  1  0.74529165  0.40691037  0.06247065  1
  Se  Se130  1  0.74613978  0.41755532  0.55692600  1
  Se  Se131  1  0.75412029  0.74949770  0.05144477  1
  Se  Se132  1  0.74328310  0.75954766  0.56264651  1
  Se  Se133  1  0.24691829  0.25443949  0.04968002  1
  Se  Se134  1  0.25702322  0.25049974  0.56415201  1
  Se  Se135  1  0.26130037  0.59478989  0.05423465  1
  Se  Se136  1  0.24003747  0.57805358  0.55443863  1
  Se  Se137  1  0.25581046  0.92470267  0.06228527  1
  Se  Se138  1  0.25133418  0.91190825  0.55492804  1
  Se  Se139  1  0.57414626  0.23480327  0.04954007  1
  Se  Se140  1  0.59344415  0.25421899  0.55484462  1
  Se  Se141  1  0.59367670  0.58167439  0.04728749  1
  Se  Se142  1  0.58065192  0.59880390  0.56517832  1
  Se  Se143  1  0.58445421  0.90840161  0.04856765  1
  Se  Se144  1  0.59198200  0.92051448  0.56399522  1
  Se  Se145  1  0.91193472  0.24425687  0.05337501  1
  Se  Se146  1  0.92404706  0.26531027  0.55242661  1
  Se  Se147  1  0.92414449  0.59579595  0.05862181  1
  Se  Se148  1  0.91083607  0.59248660  0.56101787  1
  Se  Se149  1  0.91308199  0.91022329  0.05134481  1
  Se  Se150  1  0.91058044  0.91664912  0.56393063  1
  Se  Se151  1  0.07303253  0.24686239  0.43747078  1
  Se  Se152  1  0.08535958  0.24708663  0.95414987  1
  Se  Se153  1  0.07356531  0.58045131  0.44705823  1
  Se  Se154  1  0.08683580  0.59213612  0.94291527  1
  Se  Se155  1  0.08426710  0.91249800  0.45023199  1
  Se  Se156  1  0.07172372  0.92181235  0.93876066  1
  Se  Se157  1  0.40926925  0.26488110  0.43729720  1
  Se  Se158  1  0.41667687  0.24601613  0.95059463  1
  Se  Se159  1  0.40205183  0.59618542  0.44029123  1
  Se  Se160  1  0.42957861  0.58005739  0.94718853  1
  Se  Se161  1  0.41942630  0.92793890  0.43731809  1
  Se  Se162  1  0.41421759  0.91108454  0.93841933  1
  Se  Se163  1  0.74917140  0.25512158  0.43416499  1
  Se  Se164  1  0.74001525  0.25360097  0.95596220  1
  Se  Se165  1  0.73573324  0.59507881  0.44029472  1
  Se  Se166  1  0.75557987  0.58818128  0.93365078  1
  Se  Se167  1  0.75706640  0.90903253  0.44617147  1
  Se  Se168  1  0.75416142  0.91210524  0.93881220  1
  Se  Se169  1  0.25999569  0.07472338  0.44559704  1
  Se  Se170  1  0.24341551  0.08110641  0.94893783  1
  Se  Se171  1  0.24202624  0.42454066  0.45271418  1
  Se  Se172  1  0.25681231  0.41613246  0.93182109  1
  Se  Se173  1  0.24518987  0.75787300  0.45122456  1
  Se  Se174  1  0.26361032  0.75056858  0.93682266  1
  Se  Se175  1  0.60556758  0.08094008  0.44060034  1
  Se  Se176  1  0.58326587  0.07526948  0.94603459  1
  Se  Se177  1  0.59426859  0.42718429  0.43857646  1
  Se  Se178  1  0.59005062  0.42757946  0.95712317  1
  Se  Se179  1  0.58588759  0.75196228  0.44003229  1
  Se  Se180  1  0.58922184  0.75107595  0.93994051  1
  Se  Se181  1  0.92395238  0.07367109  0.44439393  1
  Se  Se182  1  0.90818615  0.08652825  0.94779367  1
  Se  Se183  1  0.91924095  0.40238336  0.43451319  1
  Se  Se184  1  0.92462833  0.40997595  0.94222884  1
  Se  Se185  1  0.91248070  0.75266058  0.44746236  1
  Se  Se186  1  0.91525275  0.75566496  0.94294067  1
  Se  Se187  1  0.24001739  0.24681452  0.30880863  1
  Se  Se188  1  0.24644021  0.24221483  0.81513554  1
  Se  Se189  1  0.24232864  0.58433826  0.31186495  1
  Se  Se190  1  0.25178025  0.58091294  0.80043623  1
  Se  Se191  1  0.24942111  0.91316519  0.30934266  1
  Se  Se192  1  0.23688851  0.90829821  0.80354251  1
  Se  Se193  1  0.57033408  0.24332107  0.29411770  1
  Se  Se194  1  0.58849690  0.25232939  0.81367307  1
  Se  Se195  1  0.58464853  0.59241983  0.29584490  1
  Se  Se196  1  0.59032223  0.58462794  0.80338467  1
  Se  Se197  1  0.58573526  0.91896253  0.29633559  1
  Se  Se198  1  0.56679838  0.89644021  0.80159713  1
  Se  Se199  1  0.91259910  0.23937348  0.29568108  1
  Se  Se200  1  0.91354295  0.25174932  0.81648255  1
  Se  Se201  1  0.88672377  0.56094459  0.30833439  1
  Se  Se202  1  0.92094413  0.58926407  0.80062530  1
  Se  Se203  1  0.92007897  0.91766245  0.30547440  1
  Se  Se204  1  0.91723308  0.92669097  0.79599257  1
  Se  Se205  1  0.08593585  0.07770002  0.30017411  1
  Se  Se206  1  0.07819407  0.08356180  0.80666058  1
  Se  Se207  1  0.07787017  0.41449625  0.30561172  1
  Se  Se208  1  0.08370370  0.42510030  0.80742998  1
  Se  Se209  1  0.07890642  0.74801241  0.30875814  1
  Se  Se210  1  0.07546663  0.74299415  0.80394519  1
  Se  Se211  1  0.42842648  0.09829924  0.30080315  1
  Se  Se212  1  0.41745653  0.08005484  0.80690657  1
  Se  Se213  1  0.42544779  0.43005986  0.30490699  1
  Se  Se214  1  0.43358763  0.40948145  0.81793806  1
  Se  Se215  1  0.42857938  0.76607225  0.30422989  1
  Se  Se216  1  0.39383424  0.71737091  0.80800818  1
  Se  Se217  1  0.75101455  0.07627517  0.29909509  1
  Se  Se218  1  0.74655271  0.08465646  0.80840966  1
  Se  Se219  1  0.71122433  0.38525862  0.30392041  1
  Se  Se220  1  0.75201489  0.41827887  0.80538347  1
  Se  Se221  1  0.75308918  0.75061066  0.30254662  1
  Se  Se222  1  0.75460542  0.75762195  0.79368619  1
  Se  Se223  1  0.24612047  0.09289467  0.18655362  1
  Se  Se224  1  0.25556379  0.07498567  0.70628385  1
  Se  Se225  1  0.23725844  0.42928319  0.19421790  1
  Se  Se226  1  0.24499623  0.41598856  0.69367685  1
  Se  Se227  1  0.24207927  0.75783268  0.19047060  1
  Se  Se228  1  0.24263763  0.74402795  0.69495753  1
  Se  Se229  1  0.58748368  0.07040041  0.19358176  1
  Se  Se230  1  0.58341293  0.08725617  0.70311212  1
  Se  Se231  1  0.57768592  0.42009374  0.18559121  1
  Se  Se232  1  0.59625937  0.40825276  0.70320114  1
  Se  Se233  1  0.59703882  0.74010518  0.19253658  1
  Se  Se234  1  0.56854165  0.77498683  0.71192755  1
  Se  Se235  1  0.92090823  0.07242618  0.19021077  1
  Se  Se236  1  0.91781425  0.09859764  0.70308524  1
  Se  Se237  1  0.91820315  0.40240078  0.20298889  1
  Se  Se238  1  0.90441014  0.43129232  0.68636305  1
  Se  Se239  1  0.92056274  0.74605506  0.19885045  1
  Se  Se240  1  0.90924055  0.76080271  0.70118809  1
  Se  Se241  1  0.07816204  0.25154234  0.19276793  1
  Se  Se242  1  0.09419854  0.24326113  0.69296468  1
  Se  Se243  1  0.07445397  0.59280798  0.20166601  1
  Se  Se244  1  0.07573683  0.58254224  0.69395866  1
  Se  Se245  1  0.08281502  0.91512782  0.20008058  1
  Se  Se246  1  0.08060679  0.91696458  0.69461932  1
  Se  Se247  1  0.42220559  0.24736593  0.18387997  1
  Se  Se248  1  0.42939233  0.23867349  0.69078002  1
  Se  Se249  1  0.42253882  0.58868740  0.18059849  1
  Se  Se250  1  0.42449511  0.57032983  0.70057062  1
  Se  Se251  1  0.42909048  0.90729080  0.18813651  1
  Se  Se252  1  0.40346739  0.91706259  0.70583073  1
  Se  Se253  1  0.74697896  0.23806958  0.18863382  1
  Se  Se254  1  0.74672392  0.25506035  0.70239457  1
  Se  Se255  1  0.77142929  0.56589255  0.19405568  1
  Se  Se256  1  0.74315780  0.58792386  0.69877285  1
  Se  Se257  1  0.75404463  0.91262908  0.19192912  1
  Se  Se258  1  0.72847479  0.94963171  0.69762875  1
