# generated using pymatgen
data_In86Cu29Se144
_symmetry_space_group_name_H-M   'P 1'
_cell_length_a   17.57710231
_cell_length_b   17.57505384
_cell_length_c   23.43552240
_cell_angle_alpha   90.00990966
_cell_angle_beta   90.02927485
_cell_angle_gamma   89.99724572
_symmetry_Int_Tables_number   1
_chemical_formula_structural   In86Cu29Se144
_chemical_formula_sum   'In86 Cu29 Se144'
_cell_volume   7239.66581885
_cell_formula_units_Z   1
loop_
 _symmetry_equiv_pos_site_id
 _symmetry_equiv_pos_as_xyz
  1  'x, y, z'
loop_
 _atom_site_type_symbol
 _atom_site_label
 _atom_site_symmetry_multiplicity
 _atom_site_fract_x
 _atom_site_fract_y
 _atom_site_fract_z
 _atom_site_occupancy
  In  In0  1  -0.02176071  0.15133481  0.11669617  1
  In  In1  1  0.00635077  0.16202777  0.63037653  1
  In  In2  1  -0.00385679  0.50874831  0.12732200  1
  In  In3  1  0.00193548  0.49209802  0.61994537  1
  In  In4  1  -0.00622084  0.84122842  0.13433176  1
  In  In5  1  0.01072040  0.84167858  0.62154198  1
  In  In6  1  0.33950234  0.16159937  0.12189214  1
  In  In7  1  0.31941944  0.17012038  0.62472481  1
  In  In8  1  0.35822201  0.48954187  0.15599708  1
  In  In9  1  0.33860828  0.50316899  0.60956434  1
  In  In10  1  0.33779716  0.83393046  0.12713772  1
  In  In11  1  0.34034449  0.84028491  0.62078629  1
  In  In12  1  0.66236462  0.16852819  0.12143371  1
  In  In13  1  0.67781879  0.17378051  0.63216220  1
  In  In14  1  0.66826756  0.46130212  0.12777575  1
  In  In15  1  0.65281221  0.51355169  0.64567486  1
  In  In16  1  0.67769565  0.84685176  0.11792679  1
  In  In17  1  0.64774028  0.83129058  0.62464271  1
  In  In18  1  0.16807579  -0.00418137  0.37705196  1
  In  In19  1  0.17073726  0.01535945  0.86993087  1
  In  In20  1  0.17620675  0.32184369  0.37580741  1
  In  In21  1  0.15404105  0.31666952  0.87830705  1
  In  In22  1  0.16932213  0.67033807  0.37473525  1
  In  In23  1  0.17325358  0.66511790  0.87012418  1
  In  In24  1  0.48953515  -0.01057621  0.36549698  1
  In  In25  1  0.48916639  -0.00013325  0.88781334  1
  In  In26  1  0.50438280  0.34512137  0.36309733  1
  In  In27  1  0.49926001  0.32541130  0.87473153  1
  In  In28  1  0.49129874  0.67413923  0.37877027  1
  In  In29  1  0.51660730  0.66091148  0.87516548  1
  In  In30  1  0.83965382  0.00980262  0.35768088  1
  In  In31  1  0.83577426  -0.00578458  0.87980363  1
  In  In32  1  0.82574286  0.33385273  0.36202637  1
  In  In33  1  0.81897571  0.35348845  0.90652343  1
  In  In34  1  0.83794729  0.65424329  0.36644952  1
  In  In35  1  0.81916515  0.68115649  0.88371163  1
  In  In36  1  0.00740646  0.16615049  0.37138975  1
  In  In37  1  0.00724334  0.16515923  0.88960269  1
  In  In38  1  0.00004826  0.51374236  0.36568538  1
  In  In39  1  -0.00715401  0.48253771  0.87742106  1
  In  In40  1  0.02480806  0.85303451  0.36295457  1
  In  In41  1  -0.02067588  0.84039503  0.87679894  1
  In  In42  1  0.32274691  0.15418275  0.36250368  1
  In  In43  1  0.34590017  0.14657349  0.89651283  1
  In  In44  1  0.33536853  0.49982398  0.37155262  1
  In  In45  1  0.34815854  0.48786442  0.87493199  1
  In  In46  1  0.33292877  0.83373370  0.37504122  1
  In  In47  1  0.32253693  0.84919347  0.88157160  1
  In  In48  1  0.66701489  0.16655847  0.35785254  1
  In  In49  1  0.65972533  0.17853402  0.89055106  1
  In  In50  1  0.66641181  0.48906191  0.37335691  1
  In  In51  1  0.66776537  0.50925393  0.87185162  1
  In  In52  1  0.65188771  0.83237541  0.37524597  1
  In  In53  1  0.66519427  0.83132255  0.88432489  1
  In  In54  1  0.16722766  0.00345499  0.12836804  1
  In  In55  1  0.16651098  0.00417349  0.62376521  1
  In  In56  1  0.18023569  0.32638691  0.12861950  1
  In  In57  1  0.17034400  0.33307817  0.60920443  1
  In  In58  1  0.17278105  0.65907718  0.13599781  1
  In  In59  1  0.17514969  0.67408571  0.61038405  1
  In  In60  1  0.49951723  0.00648749  0.12145089  1
  In  In61  1  0.49772875  -0.01660772  0.62460737  1
  In  In62  1  0.51817081  0.31996770  0.13764891  1
  In  In63  1  0.50122769  0.34097384  0.62648590  1
  In  In64  1  0.48806909  0.66270399  0.12905575  1
  In  In65  1  0.50031477  0.66601516  0.62249163  1
  In  In66  1  0.83720814  0.00268391  0.12942110  1
  In  In67  1  0.83987917  0.01525882  0.62840968  1
  In  In68  1  0.80224663  0.30192080  0.08816745  1
  In  In69  1  0.82595186  0.32560833  0.63016571  1
  In  In70  1  0.83596029  0.67348437  0.11947334  1
  In  In71  1  0.82703709  0.65291645  0.62939775  1
  In  In72  1  -0.00257494  0.67211153  0.74639237  1
  In  In73  1  0.16802719  0.50330933  0.00408098  1
  In  In74  1  0.16303430  0.84091462  0.01451959  1
  In  In75  1  0.66317899  0.66691684  0.24775976  1
  In  In76  1  0.83680457  0.83327132  0.49786256  1
  In  In77  1  0.49343872  0.16340076  0.49188794  1
  In  In78  1  0.50178473  0.49961679  0.00653511  1
  In  In79  1  0.66370166  -0.00118107  0.75204936  1
  In  In80  1  0.83877872  0.16822033  0.49276658  1
  In  In81  1  0.83475012  0.49582457  0.49630894  1
  In  In82  1  -0.00708425  0.32686640  0.24070839  1
  In  In83  1  0.34269690  0.67414887  0.73881930  1
  In  In84  1  -0.00919932  0.32716630  0.75453902  1
  In  In85  1  0.33853987  0.32942814  0.75408399  1
  Cu  Cu86  1  0.50296188  0.84312624  0.24724978  1
  Cu  Cu87  1  0.00784902  0.33518563  0.49453091  1
  Cu  Cu88  1  0.82522678  0.83610437  0.75512859  1
  Cu  Cu89  1  0.16812989  0.15935991  0.24842672  1
  Cu  Cu90  1  0.82770730  0.49308996  0.24137321  1
  Cu  Cu91  1  0.33093213  0.66957198  0.01025594  1
  Cu  Cu92  1  0.17513129  0.50141700  0.74289401  1
  Cu  Cu93  1  0.66450554  -0.00407514  0.49348374  1
  Cu  Cu94  1  0.16593914  0.50131505  0.25417055  1
  Cu  Cu95  1  0.49451343  0.82980453  0.75031655  1
  Cu  Cu96  1  0.66522378  0.66531543  0.00423709  1
  Cu  Cu97  1  0.33138037  0.66420283  0.49362673  1
  Cu  Cu98  1  0.50092873  0.15859559  0.76137874  1
  Cu  Cu99  1  0.33629854  0.33529223  0.49127213  1
  Cu  Cu100  1  -0.00354427  0.66591343  0.00123710  1
  Cu  Cu101  1  0.82682093  0.50345014  0.76327422  1
  Cu  Cu102  1  0.17380483  0.83108446  0.25189025  1
  Cu  Cu103  1  -0.00246079  -0.00870729  0.00500628  1
  Cu  Cu104  1  0.83644106  0.16816885  0.76224807  1
  Cu  Cu105  1  0.15921745  0.85054674  0.75039583  1
  Cu  Cu106  1  0.50082554  0.16959449  0.24616971  1
  Cu  Cu107  1  0.83795898  0.83165363  0.24509384  1
  Cu  Cu108  1  0.33198775  0.33069700  0.00524748  1
  Cu  Cu109  1  0.65727815  0.66486114  0.50338439  1
  Cu  Cu110  1  0.00705160  0.67236762  0.49018686  1
  Cu  Cu111  1  0.32966830  -0.00309617  0.49537105  1
  Cu  Cu112  1  0.66593454  -0.00102582  0.00293078  1
  Cu  Cu113  1  0.16783786  0.16173535  0.75225316  1
  Cu  Cu114  1  0.65886320  0.33797741  0.49929534  1
  Se  Se115  1  0.08017494  0.07653996  0.05667343  1
  Se  Se116  1  0.08935555  0.09536602  0.55743986  1
  Se  Se117  1  0.08617747  0.41440372  0.06766619  1
  Se  Se118  1  0.08715224  0.42350218  0.54642507  1
  Se  Se119  1  0.07784264  0.73886627  0.06625890  1
  Se  Se120  1  0.08284731  0.75589732  0.54954451  1
  Se  Se121  1  0.43363365  0.09934475  0.05008487  1
  Se  Se122  1  0.40988779  0.07589103  0.55964603  1
  Se  Se123  1  0.40969228  0.41209411  0.06580006  1
  Se  Se124  1  0.42181842  0.41059235  0.54925084  1
  Se  Se125  1  0.42077895  0.75201048  0.05635318  1
  Se  Se126  1  0.41140183  0.74344077  0.55597379  1
  Se  Se127  1  0.74953186  0.07866897  0.05904779  1
  Se  Se128  1  0.74105263  0.07905486  0.55443088  1
  Se  Se129  1  0.75640203  0.42954482  0.04454669  1
  Se  Se130  1  0.74538098  0.41173924  0.55989665  1
  Se  Se131  1  0.75101283  0.75311736  0.05117129  1
  Se  Se132  1  0.74379322  0.74267697  0.56032211  1
  Se  Se133  1  0.24927998  0.24322942  0.05352958  1
  Se  Se134  1  0.25553303  0.24869687  0.54431387  1
  Se  Se135  1  0.26485345  0.57764445  0.06908269  1
  Se  Se136  1  0.24562375  0.57860175  0.54516241  1
  Se  Se137  1  0.26465048  0.93198411  0.05746107  1
  Se  Se138  1  0.24944924  0.91787669  0.55588859  1
  Se  Se139  1  0.59407267  0.26713325  0.05388106  1
  Se  Se140  1  0.58840430  0.24663777  0.55675510  1
  Se  Se141  1  0.59246934  0.58613629  0.06889584  1
  Se  Se142  1  0.58493295  0.57569867  0.55935689  1
  Se  Se143  1  0.57929735  0.91595763  0.05351026  1
  Se  Se144  1  0.58109802  0.91519736  0.54828050  1
  Se  Se145  1  0.93235515  0.25896585  0.04989640  1
  Se  Se146  1  0.92374611  0.26038304  0.55781282  1
  Se  Se147  1  0.91357658  0.58191472  0.05272101  1
  Se  Se148  1  0.92554927  0.59411896  0.55362209  1
  Se  Se149  1  0.91247436  0.91118328  0.05848305  1
  Se  Se150  1  0.92066989  0.93054196  0.55683710  1
  Se  Se151  1  0.08619732  0.24516740  0.44425477  1
  Se  Se152  1  0.07614398  0.25894806  0.95890779  1
  Se  Se153  1  0.08441672  0.58118709  0.44035316  1
  Se  Se154  1  0.07800749  0.59123003  0.93794325  1
  Se  Se155  1  0.08833586  0.91424744  0.44888079  1
  Se  Se156  1  0.07979116  0.91914785  0.93898659  1
  Se  Se157  1  0.41118214  0.25317473  0.42822766  1
  Se  Se158  1  0.41921436  0.25327835  0.94998709  1
  Se  Se159  1  0.41746575  0.58014070  0.44461786  1
  Se  Se160  1  0.40837641  0.59063114  0.94460115  1
  Se  Se161  1  0.41846885  0.91598979  0.44554500  1
  Se  Se162  1  0.41855652  0.90300404  0.95214610  1
  Se  Se163  1  0.73942327  0.25771366  0.43875049  1
  Se  Se164  1  0.76286311  0.23587949  0.95665216  1
  Se  Se165  1  0.74127573  0.59108684  0.44172695  1
  Se  Se166  1  0.74770452  0.58387055  0.94745512  1
  Se  Se167  1  0.75038214  0.92263600  0.43385813  1
  Se  Se168  1  0.74999753  0.91550567  0.94892676  1
  Se  Se169  1  0.25127122  0.08519080  0.44393795  1
  Se  Se170  1  0.23205433  0.09188540  0.95143092  1
  Se  Se171  1  0.24906027  0.41760720  0.44071403  1
  Se  Se172  1  0.25463981  0.40879360  0.94032159  1
  Se  Se173  1  0.24968107  0.75327510  0.44546539  1
  Se  Se174  1  0.24648937  0.74340963  0.94932821  1
  Se  Se175  1  0.58933380  0.07923796  0.43263811  1
  Se  Se176  1  0.58116340  0.08153593  0.94997922  1
  Se  Se177  1  0.57736339  0.41895156  0.44456684  1
  Se  Se178  1  0.58639864  0.41451826  0.94021328  1
  Se  Se179  1  0.57881572  0.75162982  0.44981689  1
  Se  Se180  1  0.58029830  0.74664037  0.95112588  1
  Se  Se181  1  0.92611177  0.07171293  0.43960385  1
  Se  Se182  1  0.91757503  0.07672788  0.94910446  1
  Se  Se183  1  0.92274255  0.40749613  0.43236456  1
  Se  Se184  1  0.93247298  0.41339163  0.96077067  1
  Se  Se185  1  0.92048615  0.74556481  0.43141343  1
  Se  Se186  1  0.91396424  0.75293426  0.95068925  1
  Se  Se187  1  0.24964111  0.24989751  0.29651489  1
  Se  Se188  1  0.24920498  0.23949794  0.81361462  1
  Se  Se189  1  0.25019405  0.58630828  0.30542757  1
  Se  Se190  1  0.25798146  0.57484506  0.80452745  1
  Se  Se191  1  0.25290588  0.91821007  0.30547471  1
  Se  Se192  1  0.24962011  0.92434480  0.80421788  1
  Se  Se193  1  0.58479369  0.25732355  0.29620364  1
  Se  Se194  1  0.58613875  0.24465420  0.80744491  1
  Se  Se195  1  0.57841570  0.58232820  0.31330622  1
  Se  Se196  1  0.58041109  0.57868944  0.79935906  1
  Se  Se197  1  0.59090814  0.92214626  0.30061114  1
  Se  Se198  1  0.57297496  0.91146364  0.81208890  1
  Se  Se199  1  0.90554895  0.23526336  0.30336124  1
  Se  Se200  1  0.90785054  0.25094110  0.82614733  1
  Se  Se201  1  0.91325278  0.57860142  0.29041215  1
  Se  Se202  1  0.91502093  0.58495411  0.81629934  1
  Se  Se203  1  0.92182030  0.91545975  0.29822090  1
  Se  Se204  1  0.91248336  0.92220175  0.79972287  1
  Se  Se205  1  0.08688761  0.07937678  0.30503263  1
  Se  Se206  1  0.07411408  0.09079954  0.80639355  1
  Se  Se207  1  0.08308398  0.41281744  0.30787314  1
  Se  Se208  1  0.09408358  0.42167171  0.80430957  1
  Se  Se209  1  0.08504105  0.74650308  0.30116048  1
  Se  Se210  1  0.08719607  0.76177721  0.81026022  1
  Se  Se211  1  0.41898228  0.08271968  0.29813109  1
  Se  Se212  1  0.41363433  0.07943661  0.81192125  1
  Se  Se213  1  0.40542892  0.41159618  0.29931686  1
  Se  Se214  1  0.43885078  0.42460425  0.79969779  1
  Se  Se215  1  0.42348267  0.76000882  0.30404644  1
  Se  Se216  1  0.41666762  0.75384117  0.81662981  1
  Se  Se217  1  0.74867373  0.08309590  0.29307148  1
  Se  Se218  1  0.74823081  0.08757738  0.81574227  1
  Se  Se219  1  0.74112974  0.41480482  0.29515371  1
  Se  Se220  1  0.75482127  0.41127116  0.81648493  1
  Se  Se221  1  0.75569629  0.75692059  0.30918422  1
  Se  Se222  1  0.74155104  0.75409064  0.80648965  1
  Se  Se223  1  0.25694899  0.08192886  0.19472116  1
  Se  Se224  1  0.25216068  0.08190647  0.69708600  1
  Se  Se225  1  0.24690672  0.41498291  0.20226985  1
  Se  Se226  1  0.25194097  0.41624027  0.68514813  1
  Se  Se227  1  0.25640784  0.75003255  0.19632292  1
  Se  Se228  1  0.23723563  0.76214714  0.69150928  1
  Se  Se229  1  0.58404506  0.08509426  0.19344401  1
  Se  Se230  1  0.57440789  0.08825778  0.68813936  1
  Se  Se231  1  0.55350896  0.44305946  0.19299664  1
  Se  Se232  1  0.60512315  0.39144438  0.69324178  1
  Se  Se233  1  0.58175133  0.76147520  0.18614438  1
  Se  Se234  1  0.57803536  0.74649145  0.69797850  1
  Se  Se235  1  0.92905442  0.07164074  0.20024885  1
  Se  Se236  1  0.91744656  0.09218079  0.70228200  1
  Se  Se237  1  0.90403987  0.41280839  0.17959044  1
  Se  Se238  1  0.90517166  0.42894945  0.69541915  1
  Se  Se239  1  0.91835077  0.74227575  0.19636996  1
  Se  Se240  1  0.90433452  0.76121544  0.68675792  1
  Se  Se241  1  0.08585593  0.23470276  0.18610005  1
  Se  Se242  1  0.09681094  0.25493948  0.69330594  1
  Se  Se243  1  0.08061269  0.58170363  0.20065106  1
  Se  Se244  1  0.09093444  0.58135752  0.68594072  1
  Se  Se245  1  0.09114226  0.91365943  0.19658241  1
  Se  Se246  1  0.07556396  0.92948754  0.69550516  1
  Se  Se247  1  0.41235076  0.25051291  0.19435179  1
  Se  Se248  1  0.42636239  0.23667161  0.69201443  1
  Se  Se249  1  0.41147324  0.60381895  0.21089200  1
  Se  Se250  1  0.42343106  0.56765467  0.68944921  1
  Se  Se251  1  0.41796898  0.92333554  0.19315924  1
  Se  Se252  1  0.41255765  0.91669775  0.69993552  1
  Se  Se253  1  0.74632797  0.26145948  0.18369921  1
  Se  Se254  1  0.75276142  0.25063176  0.70802370  1
  Se  Se255  1  0.74715186  0.57683345  0.18316340  1
  Se  Se256  1  0.74777820  0.59048490  0.70918171  1
  Se  Se257  1  0.75190730  0.91697442  0.19730271  1
  Se  Se258  1  0.75164510  0.91301556  0.68582360  1
