# generated using pymatgen
data_In86Cu29Se144
_symmetry_space_group_name_H-M   'P 1'
_cell_length_a   17.59077987
_cell_length_b   17.58469161
_cell_length_c   23.45086942
_cell_angle_alpha   89.99877114
_cell_angle_beta   89.96935971
_cell_angle_gamma   89.98611607
_symmetry_Int_Tables_number   1
_chemical_formula_structural   In86Cu29Se144
_chemical_formula_sum   'In86 Cu29 Se144'
_cell_volume   7254.01958527
_cell_formula_units_Z   1
loop_
 _symmetry_equiv_pos_site_id
 _symmetry_equiv_pos_as_xyz
  1  'x, y, z'
loop_
 _atom_site_type_symbol
 _atom_site_label
 _atom_site_symmetry_multiplicity
 _atom_site_fract_x
 _atom_site_fract_y
 _atom_site_fract_z
 _atom_site_occupancy
  In  In0  1  -0.01354659  0.16333187  0.12720545  1
  In  In1  1  0.00508720  0.18023694  0.62511060  1
  In  In2  1  -0.00257421  0.50208433  0.11895364  1
  In  In3  1  -0.00120475  0.48078535  0.62484267  1
  In  In4  1  0.00614787  0.84446113  0.12470926  1
  In  In5  1  0.00229059  0.84024022  0.61210842  1
  In  In6  1  0.33581637  0.15842973  0.12861073  1
  In  In7  1  0.31840276  0.17497928  0.64820555  1
  In  In8  1  0.34639676  0.49244066  0.12865422  1
  In  In9  1  0.33578383  0.49876940  0.62535719  1
  In  In10  1  0.33129226  0.82993511  0.12943695  1
  In  In11  1  0.31812193  0.83806587  0.63921503  1
  In  In12  1  0.67136634  0.17685790  0.11903997  1
  In  In13  1  0.66991332  0.16729533  0.63245319  1
  In  In14  1  0.65360644  0.48385369  0.11611846  1
  In  In15  1  0.65880177  0.50396937  0.62996003  1
  In  In16  1  0.66782671  0.83776390  0.11451222  1
  In  In17  1  0.66924857  0.82250747  0.62623955  1
  In  In18  1  0.16032690  -0.00788678  0.36792614  1
  In  In19  1  0.18888881  0.00682661  0.86454050  1
  In  In20  1  0.18431368  0.32771262  0.37739419  1
  In  In21  1  0.17132665  0.32333031  0.86055609  1
  In  In22  1  0.17792291  0.65886255  0.38814285  1
  In  In23  1  0.17427541  0.66793113  0.86513167  1
  In  In24  1  0.49427278  0.01627113  0.37190943  1
  In  In25  1  0.48993133  0.00687382  0.88439769  1
  In  In26  1  0.50460210  0.33948078  0.37143153  1
  In  In27  1  0.50632698  0.33710506  0.87192336  1
  In  In28  1  0.48490057  0.66699681  0.37638545  1
  In  In29  1  0.50188601  0.66414237  0.87691554  1
  In  In30  1  0.84425403  -0.00336645  0.38631308  1
  In  In31  1  0.83362708  0.00095728  0.88326493  1
  In  In32  1  0.81659859  0.32405676  0.37240502  1
  In  In33  1  0.82984900  0.33885260  0.87676054  1
  In  In34  1  0.84574792  0.66948569  0.37695076  1
  In  In35  1  0.82012564  0.67313107  0.87714684  1
  In  In36  1  0.00380061  0.13430657  0.37950891  1
  In  In37  1  -0.01463798  0.17427492  0.88234687  1
  In  In38  1  0.00312573  0.50994286  0.37796344  1
  In  In39  1  -0.00241194  0.48133889  0.87390662  1
  In  In40  1  -0.00003777  0.84844530  0.38873177  1
  In  In41  1  -0.00438740  0.82961526  0.87699568  1
  In  In42  1  0.32238022  0.16877578  0.35840867  1
  In  In43  1  0.36557824  0.19161337  0.84421980  1
  In  In44  1  0.33768545  0.49891844  0.37958498  1
  In  In45  1  0.34477116  0.50946394  0.87014170  1
  In  In46  1  0.32823781  0.82520212  0.37241552  1
  In  In47  1  0.34643510  0.84498514  0.86438800  1
  In  In48  1  0.67028841  0.18710205  0.37746961  1
  In  In49  1  0.65084657  0.18160275  0.88075785  1
  In  In50  1  0.66177000  0.47613348  0.37651369  1
  In  In51  1  0.66517672  0.49911259  0.87547092  1
  In  In52  1  0.67156161  0.84558401  0.37525755  1
  In  In53  1  0.67283103  0.82548096  0.87791770  1
  In  In54  1  0.16817054  -0.00046662  0.14141535  1
  In  In55  1  0.17303081  0.00109032  0.62110807  1
  In  In56  1  0.17160892  0.34275159  0.12859139  1
  In  In57  1  0.15905276  0.33597502  0.62991444  1
  In  In58  1  0.16963484  0.67806855  0.12603153  1
  In  In59  1  0.17952318  0.67499743  0.61894464  1
  In  In60  1  0.49206076  -0.00757516  0.11574316  1
  In  In61  1  0.49019291  0.00159217  0.62905922  1
  In  In62  1  0.49866213  0.33452974  0.12049685  1
  In  In63  1  0.48784208  0.33710439  0.63345686  1
  In  In64  1  0.49446419  0.65969240  0.11843615  1
  In  In65  1  0.50736496  0.65749713  0.63218186  1
  In  In66  1  0.83799007  0.00628530  0.12096182  1
  In  In67  1  0.84322663  0.00768642  0.61357290  1
  In  In68  1  0.82546257  0.31573451  0.11413296  1
  In  In69  1  0.83322717  0.32918431  0.63298902  1
  In  In70  1  0.83361269  0.66520768  0.11506653  1
  In  In71  1  0.82061015  0.66564346  0.62714476  1
  In  In72  1  0.00945646  0.00774008  0.74248178  1
  In  In73  1  0.49913170  0.82923616  0.50525218  1
  In  In74  1  0.16398337  0.16540701  0.50137696  1
  In  In75  1  0.00507181  0.32661930  0.25170948  1
  In  In76  1  0.16724703  0.49703786  -0.00225386  1
  In  In77  1  0.66023598  0.66032576  0.24339286  1
  In  In78  1  0.00136064  0.66142048  0.74895046  1
  In  In79  1  0.16806319  0.16531243  -0.00176963  1
  In  In80  1  0.83407502  0.50164598  0.50095151  1
  In  In81  1  0.66221091  0.00065163  0.75060935  1
  In  In82  1  0.00708735  0.67092992  0.25238167  1
  In  In83  1  0.66394300  0.00634686  0.24826051  1
  In  In84  1  0.16532773  0.83546029  -0.00478665  1
  In  In85  1  0.49963137  0.17121225  0.50350180  1
  Cu  Cu86  1  0.33969924  0.66779035  0.00061715  1
  Cu  Cu87  1  0.83739740  0.83575689  0.25549899  1
  Cu  Cu88  1  -0.00032719  0.33232934  0.50138242  1
  Cu  Cu89  1  0.50124771  0.82653330  0.75088023  1
  Cu  Cu90  1  0.82788964  0.17534906  0.75758430  1
  Cu  Cu91  1  0.66577253  -0.00027164  -0.00318689  1
  Cu  Cu92  1  0.48810341  0.83603358  0.24429857  1
  Cu  Cu93  1  0.82768489  0.49608400  0.75048616  1
  Cu  Cu94  1  0.33995664  0.33279485  -0.00633563  1
  Cu  Cu95  1  0.66523662  0.66494477  -0.00193269  1
  Cu  Cu96  1  0.33273422  -0.00016913  0.50274576  1
  Cu  Cu97  1  0.33539873  0.00360807  -0.00071358  1
  Cu  Cu98  1  0.33789203  0.33666253  0.50032952  1
  Cu  Cu99  1  0.83382605  0.16263163  0.24696004  1
  Cu  Cu100  1  0.66621518  0.33440398  -0.00440599  1
  Cu  Cu101  1  0.17006795  0.83195595  0.25519859  1
  Cu  Cu102  1  0.17855227  0.50462510  0.25653690  1
  Cu  Cu103  1  0.33719917  0.66138681  0.50427888  1
  Cu  Cu104  1  0.82798149  0.48814351  0.24365034  1
  Cu  Cu105  1  0.49531690  0.17336117  0.24618514  1
  Cu  Cu106  1  0.67020883  0.66668345  0.50351617  1
  Cu  Cu107  1  0.00570371  0.66888285  0.50053255  1
  Cu  Cu108  1  0.50060339  0.49994798  0.75302211  1
  Cu  Cu109  1  0.67518892  0.00189761  0.50266902  1
  Cu  Cu110  1  -0.01060110  0.66032188  -0.00795441  1
  Cu  Cu111  1  -0.00198038  -0.00114479  0.00095264  1
  Cu  Cu112  1  0.17174531  0.49667642  0.74770169  1
  Cu  Cu113  1  0.49341266  0.49861732  0.24752418  1
  Cu  Cu114  1  0.83371872  0.83555463  0.75065467  1
  Se  Se115  1  0.08340988  0.07267739  0.06169253  1
  Se  Se116  1  0.07071757  0.07569568  0.55831488  1
  Se  Se117  1  0.07584588  0.40497875  0.05465635  1
  Se  Se118  1  0.08707333  0.41371002  0.55132728  1
  Se  Se119  1  0.07162063  0.74042850  0.05288809  1
  Se  Se120  1  0.08990686  0.75212644  0.55184897  1
  Se  Se121  1  0.41749119  0.08928396  0.05202122  1
  Se  Se122  1  0.40226735  0.08704644  0.56336104  1
  Se  Se123  1  0.41812087  0.41977239  0.04920082  1
  Se  Se124  1  0.42080276  0.41773494  0.55491834  1
  Se  Se125  1  0.41493161  0.75516734  0.05681289  1
  Se  Se126  1  0.41077622  0.74444894  0.56779804  1
  Se  Se127  1  0.74696279  0.08133824  0.05506381  1
  Se  Se128  1  0.74808435  0.09189340  0.55715668  1
  Se  Se129  1  0.75148702  0.41401372  0.05177867  1
  Se  Se130  1  0.74712593  0.41564267  0.56325484  1
  Se  Se131  1  0.74986947  0.74983777  0.05026168  1
  Se  Se132  1  0.75423409  0.75212479  0.55157580  1
  Se  Se133  1  0.25761900  0.26001106  0.05724812  1
  Se  Se134  1  0.25806755  0.25372969  0.56018444  1
  Se  Se135  1  0.25420996  0.58972447  0.05947746  1
  Se  Se136  1  0.25022980  0.57768546  0.55422677  1
  Se  Se137  1  0.24997599  0.92640649  0.05908359  1
  Se  Se138  1  0.25419867  0.91253732  0.55544176  1
  Se  Se139  1  0.58199394  0.25203866  0.05102352  1
  Se  Se140  1  0.58585251  0.25779000  0.56557526  1
  Se  Se141  1  0.58239505  0.58141275  0.05210453  1
  Se  Se142  1  0.58464364  0.58493224  0.55413610  1
  Se  Se143  1  0.58013265  0.91549665  0.04784842  1
  Se  Se144  1  0.59005707  0.92568292  0.56202227  1
  Se  Se145  1  0.92218592  0.24382230  0.05095355  1
  Se  Se146  1  0.91547703  0.25514622  0.55749370  1
  Se  Se147  1  0.91211593  0.57622177  0.04852449  1
  Se  Se148  1  0.92520166  0.59020310  0.56316904  1
  Se  Se149  1  0.91644540  0.91384694  0.05467117  1
  Se  Se150  1  0.91107459  0.91404517  0.54759165  1
  Se  Se151  1  0.07606477  0.25404623  0.43659845  1
  Se  Se152  1  0.08295279  0.26160248  0.94112277  1
  Se  Se153  1  0.08611630  0.57885962  0.45223841  1
  Se  Se154  1  0.08052241  0.59019380  0.93473497  1
  Se  Se155  1  0.09271055  0.92562148  0.45064560  1
  Se  Se156  1  0.08079597  0.93077318  0.93502769  1
  Se  Se157  1  0.40638921  0.24955044  0.43696713  1
  Se  Se158  1  0.41903395  0.24900773  0.93737372  1
  Se  Se159  1  0.42178276  0.58005436  0.45099487  1
  Se  Se160  1  0.42002639  0.58088237  0.94857163  1
  Se  Se161  1  0.41629496  0.92386581  0.44163981  1
  Se  Se162  1  0.41386165  0.91113538  0.94935915  1
  Se  Se163  1  0.74756012  0.25635205  0.45413343  1
  Se  Se164  1  0.75049777  0.24883158  0.94491618  1
  Se  Se165  1  0.74351266  0.58778396  0.43545388  1
  Se  Se166  1  0.74946379  0.58125603  0.94557356  1
  Se  Se167  1  0.75311929  0.91354966  0.44982839  1
  Se  Se168  1  0.75044151  0.91367194  0.94682314  1
  Se  Se169  1  0.25841344  0.08192508  0.43951782  1
  Se  Se170  1  0.26584810  0.08856301  0.93722688  1
  Se  Se171  1  0.25032156  0.41809091  0.44866378  1
  Se  Se172  1  0.25574736  0.40990157  0.93431286  1
  Se  Se173  1  0.25762139  0.75112820  0.45212939  1
  Se  Se174  1  0.25867444  0.74527696  0.93958956  1
  Se  Se175  1  0.59243584  0.07890575  0.44271324  1
  Se  Se176  1  0.58122934  0.08566866  0.94784860  1
  Se  Se177  1  0.57949684  0.40924300  0.45043764  1
  Se  Se178  1  0.58072017  0.41956180  0.94612580  1
  Se  Se179  1  0.59088636  0.74560243  0.43898907  1
  Se  Se180  1  0.58239177  0.75022471  0.94585231  1
  Se  Se181  1  0.90239900  0.09955199  0.45174199  1
  Se  Se182  1  0.91341419  0.08528818  0.95223482  1
  Se  Se183  1  0.91985122  0.41003007  0.43688479  1
  Se  Se184  1  0.91278369  0.41819346  0.94792913  1
  Se  Se185  1  0.91944144  0.75083623  0.44857746  1
  Se  Se186  1  0.91009294  0.75273666  0.94454421  1
  Se  Se187  1  0.24965863  0.26224950  0.29393053  1
  Se  Se188  1  0.24771517  0.24135025  0.79085404  1
  Se  Se189  1  0.25730991  0.58866003  0.31118545  1
  Se  Se190  1  0.25385741  0.58144853  0.79978003  1
  Se  Se191  1  0.25645351  0.91757229  0.30430012  1
  Se  Se192  1  0.23884346  0.89946754  0.80196529  1
  Se  Se193  1  0.58123949  0.24929234  0.30286058  1
  Se  Se194  1  0.57936003  0.24847904  0.80078330  1
  Se  Se195  1  0.57611289  0.57512862  0.31079462  1
  Se  Se196  1  0.58472735  0.58421111  0.80579581  1
  Se  Se197  1  0.57056915  0.91171276  0.30624964  1
  Se  Se198  1  0.57739529  0.91015656  0.81320276  1
  Se  Se199  1  0.91387686  0.23850038  0.31212171  1
  Se  Se200  1  0.91636943  0.25672110  0.80685077  1
  Se  Se201  1  0.90751082  0.57268389  0.30105867  1
  Se  Se202  1  0.90867303  0.57759819  0.81093662  1
  Se  Se203  1  0.91868321  0.91710952  0.31054040  1
  Se  Se204  1  0.91427999  0.91871980  0.80567212  1
  Se  Se205  1  0.09974750  0.09637096  0.30408970  1
  Se  Se206  1  0.08224576  0.09291959  0.81593832  1
  Se  Se207  1  0.09035450  0.42542801  0.31092131  1
  Se  Se208  1  0.08618603  0.41584111  0.80086875  1
  Se  Se209  1  0.09086977  0.75468368  0.31973915  1
  Se  Se210  1  0.08681169  0.76114133  0.80417794  1
  Se  Se211  1  0.41408320  0.08489390  0.29660423  1
  Se  Se212  1  0.40361882  0.05992688  0.80543733  1
  Se  Se213  1  0.41356734  0.41608148  0.30552821  1
  Se  Se214  1  0.41559050  0.41533257  0.80352349  1
  Se  Se215  1  0.41473171  0.74862719  0.30147691  1
  Se  Se216  1  0.41794581  0.74304500  0.80473422  1
  Se  Se217  1  0.75350910  0.08790993  0.31335419  1
  Se  Se218  1  0.75145988  0.08780820  0.81373093  1
  Se  Se219  1  0.74484450  0.40987543  0.29946598  1
  Se  Se220  1  0.74414774  0.41395532  0.80481352  1
  Se  Se221  1  0.75270171  0.75083547  0.30689902  1
  Se  Se222  1  0.74862896  0.75093678  0.79939577  1
  Se  Se223  1  0.24923091  0.08940704  0.20091824  1
  Se  Se224  1  0.24280327  0.07214968  0.70047603  1
  Se  Se225  1  0.25464000  0.42050837  0.19796331  1
  Se  Se226  1  0.25387533  0.41274151  0.69343486  1
  Se  Se227  1  0.25050604  0.74750980  0.20087816  1
  Se  Se228  1  0.25172673  0.73680790  0.70170984  1
  Se  Se229  1  0.57477212  0.09104146  0.18524687  1
  Se  Se230  1  0.56864256  0.09231596  0.69685465  1
  Se  Se231  1  0.57859239  0.41502998  0.19537906  1
  Se  Se232  1  0.58139424  0.41629967  0.69784711  1
  Se  Se233  1  0.57686461  0.76043244  0.18756965  1
  Se  Se234  1  0.58832258  0.74715222  0.69820910  1
  Se  Se235  1  0.91744674  0.07452659  0.19982964  1
  Se  Se236  1  0.90602485  0.09642865  0.69378099  1
  Se  Se237  1  0.91530523  0.41276367  0.18723268  1
  Se  Se238  1  0.91626435  0.41388371  0.70104716  1
  Se  Se239  1  0.91094668  0.75395226  0.19126008  1
  Se  Se240  1  0.91403666  0.75650908  0.68893723  1
  Se  Se241  1  0.09099739  0.24062843  0.18685383  1
  Se  Se242  1  0.09158318  0.24197515  0.69868951  1
  Se  Se243  1  0.09340054  0.57463813  0.19185646  1
  Se  Se244  1  0.08856972  0.57375845  0.68610670  1
  Se  Se245  1  0.08093544  0.91247114  0.20412501  1
  Se  Se246  1  0.08993797  0.90535532  0.68909579  1
  Se  Se247  1  0.41358714  0.25493453  0.19020757  1
  Se  Se248  1  0.42200635  0.24415670  0.70409785  1
  Se  Se249  1  0.41545702  0.58889920  0.19617964  1
  Se  Se250  1  0.41615223  0.58100540  0.69758491  1
  Se  Se251  1  0.40953587  0.92446769  0.19285605  1
  Se  Se252  1  0.41944995  0.91217275  0.69828485  1
  Se  Se253  1  0.75114083  0.24870363  0.19614423  1
  Se  Se254  1  0.74339507  0.25509671  0.70280538  1
  Se  Se255  1  0.75357017  0.57326406  0.18450782  1
  Se  Se256  1  0.74660214  0.58338161  0.69915460  1
  Se  Se257  1  0.75455045  0.90999558  0.19298509  1
  Se  Se258  1  0.75849133  0.91813444  0.68806799  1
