# generated using pymatgen
data_In86Cu29Se144
_symmetry_space_group_name_H-M   'P 1'
_cell_length_a   17.57581037
_cell_length_b   17.57355438
_cell_length_c   23.43690461
_cell_angle_alpha   89.98310993
_cell_angle_beta   89.99451663
_cell_angle_gamma   89.99783738
_symmetry_Int_Tables_number   1
_chemical_formula_structural   In86Cu29Se144
_chemical_formula_sum   'In86 Cu29 Se144'
_cell_volume   7238.94369860
_cell_formula_units_Z   1
loop_
 _symmetry_equiv_pos_site_id
 _symmetry_equiv_pos_as_xyz
  1  'x, y, z'
loop_
 _atom_site_type_symbol
 _atom_site_label
 _atom_site_symmetry_multiplicity
 _atom_site_fract_x
 _atom_site_fract_y
 _atom_site_fract_z
 _atom_site_occupancy
  In  In0  1  0.00774460  0.18543591  0.10961955  1
  In  In1  1  -0.00117773  0.14587289  0.63382709  1
  In  In2  1  -0.00152828  0.46770933  0.11816132  1
  In  In3  1  0.01140240  0.51432147  0.60551932  1
  In  In4  1  0.00349025  0.82459182  0.12438762  1
  In  In5  1  0.00614339  0.83517734  0.62048396  1
  In  In6  1  0.33592610  0.17107444  0.11170195  1
  In  In7  1  0.33254887  0.16794538  0.62698781  1
  In  In8  1  0.32539079  0.49143987  0.11290368  1
  In  In9  1  0.33312825  0.49628838  0.63284318  1
  In  In10  1  0.32929819  0.84476620  0.11866519  1
  In  In11  1  0.33327912  0.83729592  0.63276615  1
  In  In12  1  0.66762388  0.16732334  0.12397052  1
  In  In13  1  0.67115247  0.18818017  0.63116419  1
  In  In14  1  0.65692990  0.50066418  0.12512205  1
  In  In15  1  0.66205237  0.49555216  0.61843367  1
  In  In16  1  0.68507201  0.83533651  0.12879183  1
  In  In17  1  0.66132037  0.83455569  0.61629476  1
  In  In18  1  0.16446679  -0.00010999  0.38486643  1
  In  In19  1  0.16553612  0.00135015  0.87224668  1
  In  In20  1  0.15933806  0.33945350  0.38332364  1
  In  In21  1  0.16868556  0.32621023  0.87653256  1
  In  In22  1  0.16461552  0.65855755  0.39279418  1
  In  In23  1  0.18174680  0.66251782  0.87720531  1
  In  In24  1  0.50915037  -0.00622576  0.38679901  1
  In  In25  1  0.50018728  0.01329651  0.87143190  1
  In  In26  1  0.50902272  0.32252515  0.38249395  1
  In  In27  1  0.49897831  0.33195782  0.87334200  1
  In  In28  1  0.50209094  0.66696234  0.38805077  1
  In  In29  1  0.46988433  0.65846761  0.86163354  1
  In  In30  1  0.82389284  0.00452826  0.37849587  1
  In  In31  1  0.85499618  0.01224807  0.85643801  1
  In  In32  1  0.83606637  0.33913748  0.36161939  1
  In  In33  1  0.82062261  0.33131997  0.87134182  1
  In  In34  1  0.84322746  0.65882267  0.39669571  1
  In  In35  1  0.83380540  0.66726139  0.86938835  1
  In  In36  1  -0.00642069  0.17929115  0.37565711  1
  In  In37  1  0.01238510  0.16506874  0.88103952  1
  In  In38  1  0.00217087  0.49010791  0.38329002  1
  In  In39  1  0.00945539  0.50177063  0.87642047  1
  In  In40  1  0.01012373  0.81986343  0.39409363  1
  In  In41  1  0.00140391  0.85687867  0.86526101  1
  In  In42  1  0.33321035  0.16807429  0.38691117  1
  In  In43  1  0.33267567  0.16822066  0.87043751  1
  In  In44  1  0.32894068  0.50344399  0.38728237  1
  In  In45  1  0.33316963  0.50021822  0.86837474  1
  In  In46  1  0.33136018  0.83157216  0.39037940  1
  In  In47  1  0.32458855  0.81923100  0.85539004  1
  In  In48  1  0.66769434  0.16117389  0.36983772  1
  In  In49  1  0.64778464  0.17431640  0.88385829  1
  In  In50  1  0.67039280  0.48700161  0.38058330  1
  In  In51  1  0.66831663  0.47953218  0.87010292  1
  In  In52  1  0.66592493  0.83928917  0.38769217  1
  In  In53  1  0.66490755  0.83253981  0.87299002  1
  In  In54  1  0.16466468  0.00399715  0.11375407  1
  In  In55  1  0.16882305  -0.00184729  0.63018110  1
  In  In56  1  0.15940402  0.32822210  0.10715825  1
  In  In57  1  0.18106976  0.34277636  0.62253989  1
  In  In58  1  0.16194397  0.66548361  0.11680349  1
  In  In59  1  0.17066081  0.67286484  0.62145781  1
  In  In60  1  0.50478393  0.01033469  0.12130592  1
  In  In61  1  0.48267319  -0.00835347  0.62077345  1
  In  In62  1  0.50196656  0.33534813  0.11859420  1
  In  In63  1  0.49940062  0.33518828  0.62640136  1
  In  In64  1  0.50918786  0.65347654  0.12512414  1
  In  In65  1  0.49144980  0.66362816  0.62469333  1
  In  In66  1  0.81906534  0.00069115  0.13063789  1
  In  In67  1  0.84639652  0.00031404  0.63691012  1
  In  In68  1  0.84540068  0.32495520  0.13851545  1
  In  In69  1  0.82477245  0.33387091  0.62915534  1
  In  In70  1  0.83310954  0.66580005  0.12498410  1
  In  In71  1  0.84617626  0.67122421  0.60173487  1
  In  In72  1  0.65923684  0.00381450  0.74495633  1
  In  In73  1  -0.01035682  0.00432351  0.25463067  1
  In  In74  1  0.00470169  0.66809732  0.73671295  1
  In  In75  1  -0.00102494  0.65876853  0.26323677  1
  In  In76  1  0.83836716  0.49358948  0.00618312  1
  In  In77  1  0.67105982  0.66220444  0.25211433  1
  In  In78  1  0.33316169  0.66618767  0.26229526  1
  In  In79  1  0.83317729  0.16633327  0.50453670  1
  In  In80  1  0.66784414  0.66298241  0.73777816  1
  In  In81  1  0.83809008  0.84203587  -0.00173046  1
  In  In82  1  0.33847587  0.00653789  0.24547686  1
  In  In83  1  0.33412173  0.33470296  0.24867516  1
  In  In84  1  0.49434953  0.83307394  -0.00751734  1
  In  In85  1  0.00568545  0.33446757  0.75238687  1
  Cu  Cu86  1  0.00338850  0.32691302  0.50169643  1
  Cu  Cu87  1  0.66473204  0.00914770  0.50374393  1
  Cu  Cu88  1  0.33513598  0.66540342  -0.00773160  1
  Cu  Cu89  1  0.65757382  0.66729881  0.50372516  1
  Cu  Cu90  1  0.49764422  0.49461188  0.24984510  1
  Cu  Cu91  1  0.00963724  0.67477508  -0.00475008  1
  Cu  Cu92  1  0.00729875  -0.00613068  0.50847705  1
  Cu  Cu93  1  0.51481324  0.84241927  0.25950126  1
  Cu  Cu94  1  0.17266372  0.83870307  0.24934653  1
  Cu  Cu95  1  0.16104370  0.83278524  0.74553709  1
  Cu  Cu96  1  0.82999240  0.83444321  0.26210342  1
  Cu  Cu97  1  0.65970572  0.65496428  -0.00668120  1
  Cu  Cu98  1  0.15055531  0.49078445  0.25199283  1
  Cu  Cu99  1  0.33452971  0.33525044  0.50617322  1
  Cu  Cu100  1  0.33641600  0.33506607  -0.01031061  1
  Cu  Cu101  1  0.83849488  0.49656682  0.74030663  1
  Cu  Cu102  1  0.49572692  0.17389800  0.75013498  1
  Cu  Cu103  1  0.16139047  0.17704879  0.24563416  1
  Cu  Cu104  1  0.83106482  0.17087875  0.24628622  1
  Cu  Cu105  1  0.66823434  0.00303361  -0.00120878  1
  Cu  Cu106  1  0.00238215  0.00527349  -0.00710274  1
  Cu  Cu107  1  0.16766307  0.16515171  0.75208989  1
  Cu  Cu108  1  0.32550699  -0.00163192  -0.00653532  1
  Cu  Cu109  1  0.66522438  0.33387936  0.49999220  1
  Cu  Cu110  1  0.32799233  0.00066745  0.50819487  1
  Cu  Cu111  1  0.50455945  0.49495020  0.74677428  1
  Cu  Cu112  1  0.66235330  0.32871643  -0.00045621  1
  Cu  Cu113  1  0.33464883  0.66828941  0.51085318  1
  Cu  Cu114  1  0.50959273  0.16155381  0.25131231  1
  Se  Se115  1  0.08526606  0.09007749  0.04738935  1
  Se  Se116  1  0.08690708  0.08241096  0.55891948  1
  Se  Se117  1  0.10208663  0.43783603  0.04669769  1
  Se  Se118  1  0.08912032  0.41124948  0.55139025  1
  Se  Se119  1  0.08960270  0.76043826  0.04965648  1
  Se  Se120  1  0.06411676  0.72918275  0.55803443  1
  Se  Se121  1  0.41288813  0.07492532  0.05014164  1
  Se  Se122  1  0.41515309  0.08837747  0.55365539  1
  Se  Se123  1  0.41767565  0.41506090  0.04939296  1
  Se  Se124  1  0.41717082  0.42027533  0.55850958  1
  Se  Se125  1  0.41289673  0.74038704  0.06127919  1
  Se  Se126  1  0.41626389  0.75745124  0.55954164  1
  Se  Se127  1  0.75204294  0.08294712  0.05448647  1
  Se  Se128  1  0.74540255  0.08045984  0.56858162  1
  Se  Se129  1  0.74222370  0.40770009  0.06162458  1
  Se  Se130  1  0.75219260  0.41356966  0.55305209  1
  Se  Se131  1  0.74273276  0.73952478  0.05003669  1
  Se  Se132  1  0.74599879  0.75398230  0.54784928  1
  Se  Se133  1  0.25253344  0.25043712  0.04387470  1
  Se  Se134  1  0.24950432  0.24761680  0.55442018  1
  Se  Se135  1  0.25026916  0.58740393  0.05038231  1
  Se  Se136  1  0.25307537  0.57987946  0.56031664  1
  Se  Se137  1  0.24300760  0.91436752  0.04695476  1
  Se  Se138  1  0.24748169  0.91304733  0.55991418  1
  Se  Se139  1  0.57996819  0.24364986  0.05426454  1
  Se  Se140  1  0.58392997  0.25215806  0.55566512  1
  Se  Se141  1  0.57713035  0.57319558  0.04797096  1
  Se  Se142  1  0.57603622  0.58256891  0.55608208  1
  Se  Se143  1  0.59376200  0.91286594  0.05701082  1
  Se  Se144  1  0.57892444  0.92330018  0.55238138  1
  Se  Se145  1  0.90833866  0.26191421  0.05242132  1
  Se  Se146  1  0.92561916  0.25096519  0.56628802  1
  Se  Se147  1  0.93044499  0.59458084  0.05845594  1
  Se  Se148  1  0.89964266  0.56038387  0.54339476  1
  Se  Se149  1  0.92688295  0.92954260  0.06328691  1
  Se  Se150  1  0.91371314  0.92005596  0.55901596  1
  Se  Se151  1  0.08494782  0.24247164  0.44765031  1
  Se  Se152  1  0.08134700  0.25743782  0.94877352  1
  Se  Se153  1  0.07046401  0.58190151  0.45271558  1
  Se  Se154  1  0.08883906  0.58705295  0.94347551  1
  Se  Se155  1  0.09271254  0.91152344  0.45519019  1
  Se  Se156  1  0.08377437  0.91749685  0.94411066  1
  Se  Se157  1  0.41794724  0.25124465  0.45198663  1
  Se  Se158  1  0.41855682  0.24581462  0.94174059  1
  Se  Se159  1  0.41488274  0.58524056  0.45284048  1
  Se  Se160  1  0.41803923  0.57810599  0.94403560  1
  Se  Se161  1  0.41427976  0.92083667  0.45245777  1
  Se  Se162  1  0.40630501  0.92030675  0.93146863  1
  Se  Se163  1  0.74901576  0.25451826  0.43938007  1
  Se  Se164  1  0.74761283  0.24880137  0.94543554  1
  Se  Se165  1  0.73800513  0.58243063  0.44903060  1
  Se  Se166  1  0.74977167  0.58069375  0.93786015  1
  Se  Se167  1  0.75136612  0.92470028  0.45348213  1
  Se  Se168  1  0.74766169  0.92625970  0.93577584  1
  Se  Se169  1  0.24709555  0.08415664  0.45114187  1
  Se  Se170  1  0.24753910  0.08647532  0.94009832  1
  Se  Se171  1  0.24766159  0.41574638  0.45163025  1
  Se  Se172  1  0.25157555  0.41838844  0.93886403  1
  Se  Se173  1  0.24711771  0.74790236  0.45557980  1
  Se  Se174  1  0.25734740  0.75760291  0.94300278  1
  Se  Se175  1  0.58602679  0.09249944  0.44717558  1
  Se  Se176  1  0.57443315  0.08179203  0.95225125  1
  Se  Se177  1  0.57747096  0.41822943  0.45042434  1
  Se  Se178  1  0.58289490  0.41383350  0.94481248  1
  Se  Se179  1  0.57738065  0.75859369  0.45334021  1
  Se  Se180  1  0.58174181  0.73633043  0.93399003  1
  Se  Se181  1  0.92781441  0.07500397  0.44511299  1
  Se  Se182  1  0.91375919  0.08396407  0.94210715  1
  Se  Se183  1  0.91489578  0.39972399  0.44406245  1
  Se  Se184  1  0.92040618  0.41041535  0.93658573  1
  Se  Se185  1  0.90800177  0.76059859  0.45765854  1
  Se  Se186  1  0.92457581  0.74942619  0.93562816  1
  Se  Se187  1  0.24564780  0.24515222  0.31056077  1
  Se  Se188  1  0.24945560  0.25241786  0.80184540  1
  Se  Se189  1  0.23255135  0.57138860  0.31108940  1
  Se  Se190  1  0.26756699  0.60061712  0.80201598  1
  Se  Se191  1  0.25193346  0.91571119  0.31128296  1
  Se  Se192  1  0.24336082  0.91776162  0.79994913  1
  Se  Se193  1  0.58589157  0.25107018  0.30434076  1
  Se  Se194  1  0.58426560  0.25236397  0.80263540  1
  Se  Se195  1  0.57254251  0.57963300  0.31096984  1
  Se  Se196  1  0.58426103  0.57848846  0.80842781  1
  Se  Se197  1  0.59530772  0.92483930  0.31180412  1
  Se  Se198  1  0.57289136  0.91020936  0.80699223  1
  Se  Se199  1  0.91996937  0.25043491  0.29723510  1
  Se  Se200  1  0.91696885  0.24569940  0.81213761  1
  Se  Se201  1  0.90263305  0.57110856  0.31625742  1
  Se  Se202  1  0.91486317  0.57576962  0.80270100  1
  Se  Se203  1  0.91833457  0.90653402  0.32111903  1
  Se  Se204  1  0.90412673  0.90490197  0.79261654  1
  Se  Se205  1  0.09106020  0.09041018  0.30876792  1
  Se  Se206  1  0.08027231  0.08335366  0.80336160  1
  Se  Se207  1  0.07356292  0.40618642  0.30735626  1
  Se  Se208  1  0.09803748  0.42831374  0.80557278  1
  Se  Se209  1  0.09707475  0.75522671  0.31202861  1
  Se  Se210  1  0.08528109  0.75235600  0.81043942  1
  Se  Se211  1  0.42351996  0.08935686  0.31331919  1
  Se  Se212  1  0.41447777  0.08506916  0.79938232  1
  Se  Se213  1  0.41794813  0.42196478  0.31553749  1
  Se  Se214  1  0.41972752  0.41562535  0.80285964  1
  Se  Se215  1  0.42763753  0.76323542  0.31422192  1
  Se  Se216  1  0.42772910  0.75994154  0.79070000  1
  Se  Se217  1  0.75529265  0.08299819  0.30081449  1
  Se  Se218  1  0.73917047  0.08899230  0.81444651  1
  Se  Se219  1  0.73582997  0.41116506  0.30157291  1
  Se  Se220  1  0.75456789  0.41584621  0.79423847  1
  Se  Se221  1  0.75498541  0.74758433  0.32055213  1
  Se  Se222  1  0.75501411  0.75550834  0.80172921  1
  Se  Se223  1  0.24226681  0.09492735  0.18733212  1
  Se  Se224  1  0.25167676  0.08343029  0.69711094  1
  Se  Se225  1  0.23885152  0.42084498  0.19015774  1
  Se  Se226  1  0.25817845  0.40678931  0.70191687  1
  Se  Se227  1  0.25013838  0.75425343  0.19103411  1
  Se  Se228  1  0.24743622  0.74846049  0.69680873  1
  Se  Se229  1  0.58966465  0.07825565  0.19521613  1
  Se  Se230  1  0.57214143  0.09523810  0.68461508  1
  Se  Se231  1  0.57865193  0.41358520  0.19416590  1
  Se  Se232  1  0.59061631  0.41437810  0.69443018  1
  Se  Se233  1  0.58045506  0.75715100  0.19201861  1
  Se  Se234  1  0.57477204  0.75918160  0.68975533  1
  Se  Se235  1  0.91572741  0.09405902  0.18460963  1
  Se  Se236  1  0.90775399  0.09051661  0.70931041  1
  Se  Se237  1  0.91113300  0.42953904  0.19884615  1
  Se  Se238  1  0.92666943  0.42449156  0.68293906  1
  Se  Se239  1  0.90967537  0.75614706  0.19905447  1
  Se  Se240  1  0.90502178  0.75363214  0.68592762  1
  Se  Se241  1  0.08390308  0.25888602  0.18802725  1
  Se  Se242  1  0.09049422  0.24421028  0.68814971  1
  Se  Se243  1  0.08116421  0.57938054  0.18965156  1
  Se  Se244  1  0.09603617  0.57018068  0.68973188  1
  Se  Se245  1  0.08737750  0.91656101  0.19290027  1
  Se  Se246  1  0.07646466  0.91802616  0.69605510  1
  Se  Se247  1  0.42297565  0.23798414  0.19183109  1
  Se  Se248  1  0.41277423  0.25562556  0.69498585  1
  Se  Se249  1  0.41304618  0.57530249  0.19254571  1
  Se  Se250  1  0.41972993  0.58154473  0.69940926  1
  Se  Se251  1  0.42973510  0.90853325  0.19138446  1
  Se  Se252  1  0.41133007  0.92467520  0.70148737  1
  Se  Se253  1  0.74234386  0.25265706  0.19641898  1
  Se  Se254  1  0.76308866  0.24707647  0.70379412  1
  Se  Se255  1  0.76007925  0.57108608  0.19220198  1
  Se  Se256  1  0.76404052  0.58023363  0.67950561  1
  Se  Se257  1  0.74944352  0.91724407  0.20653771  1
  Se  Se258  1  0.74944410  0.90815559  0.69068776  1
