# generated using pymatgen
data_In86Cu29Se144
_symmetry_space_group_name_H-M   'P 1'
_cell_length_a   17.58022699
_cell_length_b   17.57987449
_cell_length_c   23.43924399
_cell_angle_alpha   90.01605012
_cell_angle_beta   90.00202441
_cell_angle_gamma   89.99298848
_symmetry_Int_Tables_number   1
_chemical_formula_structural   In86Cu29Se144
_chemical_formula_sum   'In86 Cu29 Se144'
_cell_volume   7244.08983699
_cell_formula_units_Z   1
loop_
 _symmetry_equiv_pos_site_id
 _symmetry_equiv_pos_as_xyz
  1  'x, y, z'
loop_
 _atom_site_type_symbol
 _atom_site_label
 _atom_site_symmetry_multiplicity
 _atom_site_fract_x
 _atom_site_fract_y
 _atom_site_fract_z
 _atom_site_occupancy
  In  In0  1  0.02485937  0.14841604  0.14251982  1
  In  In1  1  -0.00809363  0.14828803  0.62724533  1
  In  In2  1  -0.00198940  0.49581076  0.12317079  1
  In  In3  1  0.01906691  0.49949421  0.62272380  1
  In  In4  1  0.01055789  0.84125425  0.11859018  1
  In  In5  1  -0.00169664  0.83674656  0.62769365  1
  In  In6  1  0.31227497  0.17969304  0.14487574  1
  In  In7  1  0.32557989  0.15946234  0.62721112  1
  In  In8  1  0.31903072  0.51476982  0.13028792  1
  In  In9  1  0.34317651  0.50939857  0.61878284  1
  In  In10  1  0.32941776  0.83669367  0.12786271  1
  In  In11  1  0.32553044  0.84081217  0.63345821  1
  In  In12  1  0.65916998  0.16008881  0.12455048  1
  In  In13  1  0.68512818  0.15549610  0.64901895  1
  In  In14  1  0.67998987  0.50133936  0.12089145  1
  In  In15  1  0.64904352  0.50201222  0.62663280  1
  In  In16  1  0.66845131  0.83267854  0.12600328  1
  In  In17  1  0.67839516  0.83572327  0.62409025  1
  In  In18  1  0.15702513  -0.01545336  0.35870975  1
  In  In19  1  0.16488853  -0.00289657  0.87633481  1
  In  In20  1  0.17695830  0.33941497  0.36032678  1
  In  In21  1  0.16006433  0.33513719  0.88761920  1
  In  In22  1  0.17337973  0.66099244  0.38044119  1
  In  In23  1  0.16648904  0.67170806  0.87929892  1
  In  In24  1  0.50252689  0.00058764  0.37026960  1
  In  In25  1  0.49687962  0.00506511  0.86371863  1
  In  In26  1  0.49315947  0.34782038  0.37874426  1
  In  In27  1  0.50102505  0.31805426  0.86721341  1
  In  In28  1  0.49131690  0.65632768  0.36983709  1
  In  In29  1  0.48929546  0.66823997  0.86904137  1
  In  In30  1  0.83319881  -0.00186743  0.36831477  1
  In  In31  1  0.82496971  -0.01320514  0.87414182  1
  In  In32  1  0.83544753  0.31953331  0.37045746  1
  In  In33  1  0.83644891  0.34594567  0.87313605  1
  In  In34  1  0.84195822  0.68790379  0.37543219  1
  In  In35  1  0.84472952  0.65777382  0.88133992  1
  In  In36  1  0.00516981  0.15936439  0.35908584  1
  In  In37  1  0.01449503  0.16871892  0.87777163  1
  In  In38  1  0.01649188  0.50808157  0.37479759  1
  In  In39  1  -0.00763899  0.50404505  0.87921568  1
  In  In40  1  -0.00205381  0.84831334  0.38612541  1
  In  In41  1  0.00063193  0.83157247  0.87869118  1
  In  In42  1  0.31276024  0.15436990  0.35459454  1
  In  In43  1  0.32836863  0.15514898  0.87531832  1
  In  In44  1  0.33178752  0.50472329  0.37158266  1
  In  In45  1  0.32008175  0.50148377  0.87859355  1
  In  In46  1  0.32486154  0.81759963  0.36879480  1
  In  In47  1  0.31836981  0.82486217  0.87053664  1
  In  In48  1  0.67683636  0.15846985  0.37285726  1
  In  In49  1  0.66240583  0.15568647  0.85936944  1
  In  In50  1  0.64847417  0.49671861  0.37794892  1
  In  In51  1  0.67904986  0.51142141  0.87217563  1
  In  In52  1  0.67830122  0.84086823  0.36928679  1
  In  In53  1  0.66915201  0.84737999  0.88033610  1
  In  In54  1  0.17180363  -0.00551606  0.12511579  1
  In  In55  1  0.16741799  -0.00859335  0.62947705  1
  In  In56  1  0.16334949  0.33633860  0.12666752  1
  In  In57  1  0.16013903  0.33989469  0.62055828  1
  In  In58  1  0.17956996  0.67541390  0.10976217  1
  In  In59  1  0.16786209  0.66993874  0.62777263  1
  In  In60  1  0.49763269  0.00036374  0.13005875  1
  In  In61  1  0.50357192  0.00665498  0.63808514  1
  In  In62  1  0.49561840  0.31940404  0.12440162  1
  In  In63  1  0.50012697  0.34769119  0.62754264  1
  In  In64  1  0.49698128  0.67514138  0.13318072  1
  In  In65  1  0.49157298  0.64617821  0.62654735  1
  In  In66  1  0.83914221  -0.00404349  0.12487877  1
  In  In67  1  0.84861255  -0.01826989  0.64825537  1
  In  In68  1  0.84088989  0.34764140  0.11979045  1
  In  In69  1  0.83091999  0.31819227  0.62839567  1
  In  In70  1  0.82855828  0.66179871  0.12047935  1
  In  In71  1  0.83154237  0.68768374  0.62299882  1
  In  In72  1  0.49709006  0.82823752  0.49805849  1
  In  In73  1  0.66260715  0.66981369  0.74675932  1
  In  In74  1  0.00219132  0.66896069  0.25015389  1
  In  In75  1  0.00003522  0.33204937  0.74674714  1
  In  In76  1  0.33678580  0.33307840  0.75013116  1
  In  In77  1  0.16341064  0.16403920  0.50097557  1
  In  In78  1  0.49767487  0.49834222  -0.00602589  1
  In  In79  1  0.83604496  0.16161532  0.49993033  1
  In  In80  1  0.83940507  0.16665007  0.00122532  1
  In  In81  1  0.66440741  0.33015802  0.25002944  1
  In  In82  1  0.49613779  0.18271440  0.50462560  1
  In  In83  1  0.49527944  0.83479189  -0.00007756  1
  In  In84  1  0.49538937  0.15922839  -0.00840054  1
  In  In85  1  0.83551242  0.50731696  0.49781443  1
  Cu  Cu86  1  0.16825751  0.50994053  0.75127397  1
  Cu  Cu87  1  0.83009526  0.50305078  0.24500119  1
  Cu  Cu88  1  0.00603876  0.67653789  0.50215728  1
  Cu  Cu89  1  0.66006347  0.33748074  0.50912543  1
  Cu  Cu90  1  0.67021192  -0.00074159  0.50102063  1
  Cu  Cu91  1  0.16652797  0.82959327  0.24657979  1
  Cu  Cu92  1  0.16200061  0.83398247  0.75306518  1
  Cu  Cu93  1  0.83305558  0.83631473  0.24868958  1
  Cu  Cu94  1  0.83602506  0.82929926  0.75487847  1
  Cu  Cu95  1  0.32834386  0.66424399  0.49947640  1
  Cu  Cu96  1  0.33242429  0.34063624  0.49015446  1
  Cu  Cu97  1  0.83502573  0.50494334  0.75149342  1
  Cu  Cu98  1  0.16832846  0.15686290  0.75220797  1
  Cu  Cu99  1  0.49747008  0.50057297  0.24935099  1
  Cu  Cu100  1  0.32940985  0.00053204  0.00188980  1
  Cu  Cu101  1  0.49597354  0.83431564  0.75060611  1
  Cu  Cu102  1  0.67493834  0.33375057  -0.00771839  1
  Cu  Cu103  1  -0.00093162  0.66493413  -0.00000151  1
  Cu  Cu104  1  0.50734307  0.83193655  0.25305599  1
  Cu  Cu105  1  0.83608686  0.16215618  0.24548554  1
  Cu  Cu106  1  0.00415924  -0.00371131  0.00287671  1
  Cu  Cu107  1  0.32861868  -0.00672629  0.50209884  1
  Cu  Cu108  1  0.66523990  0.66931279  0.50208706  1
  Cu  Cu109  1  0.32354920  0.33521801  0.00856327  1
  Cu  Cu110  1  0.00916093  0.33618539  0.49339294  1
  Cu  Cu111  1  0.49732199  0.16294267  0.24974726  1
  Cu  Cu112  1  0.16839102  0.50214859  0.24876007  1
  Cu  Cu113  1  0.66998360  0.66841651  0.00046575  1
  Cu  Cu114  1  0.00397510  0.32941148  0.00488221  1
  Se  Se115  1  0.08717603  0.07944872  0.05675579  1
  Se  Se116  1  0.07447349  0.06922242  0.55580988  1
  Se  Se117  1  0.08538580  0.41937160  0.05384051  1
  Se  Se118  1  0.09070117  0.42156598  0.54489683  1
  Se  Se119  1  0.08311569  0.75179953  0.04909606  1
  Se  Se120  1  0.08675059  0.75683772  0.55991355  1
  Se  Se121  1  0.40744016  0.08351965  0.06206311  1
  Se  Se122  1  0.41323629  0.07475089  0.55699944  1
  Se  Se123  1  0.41258485  0.41254396  0.06221289  1
  Se  Se124  1  0.41553349  0.41474524  0.55155162  1
  Se  Se125  1  0.40841075  0.74127532  0.05721004  1
  Se  Se126  1  0.40817533  0.74329552  0.56202375  1
  Se  Se127  1  0.74362753  0.07740592  0.05610862  1
  Se  Se128  1  0.74778283  0.07698046  0.56378099  1
  Se  Se129  1  0.75354239  0.41808880  0.04748929  1
  Se  Se130  1  0.75084033  0.41551895  0.56166336  1
  Se  Se131  1  0.75023892  0.75262720  0.05461361  1
  Se  Se132  1  0.75002522  0.75753095  0.54680171  1
  Se  Se133  1  0.24581317  0.24595026  0.05999582  1
  Se  Se134  1  0.25948049  0.25955471  0.55553063  1
  Se  Se135  1  0.24689737  0.57471355  0.04682478  1
  Se  Se136  1  0.24583658  0.58273408  0.55634632  1
  Se  Se137  1  0.24965809  0.91048076  0.05222882  1
  Se  Se138  1  0.24675196  0.91203415  0.55602454  1
  Se  Se139  1  0.59144010  0.25514672  0.04974005  1
  Se  Se140  1  0.59495722  0.24901625  0.57143598  1
  Se  Se141  1  0.58509742  0.58907316  0.05826099  1
  Se  Se142  1  0.58033890  0.58403794  0.55029112  1
  Se  Se143  1  0.58624721  0.92521023  0.05666505  1
  Se  Se144  1  0.58338711  0.92358346  0.55899961  1
  Se  Se145  1  0.92890623  0.24722883  0.06747839  1
  Se  Se146  1  0.93166135  0.25644441  0.55590380  1
  Se  Se147  1  0.91633351  0.58092091  0.05491576  1
  Se  Se148  1  0.92468910  0.59307471  0.56126461  1
  Se  Se149  1  0.91595956  0.91422828  0.05217200  1
  Se  Se150  1  0.91030974  0.91988479  0.56240685  1
  Se  Se151  1  0.08256837  0.25259847  0.43269101  1
  Se  Se152  1  0.08800917  0.24310168  0.95561830  1
  Se  Se153  1  0.08497886  0.58673579  0.45166462  1
  Se  Se154  1  0.08171699  0.58266981  0.94461969  1
  Se  Se155  1  0.09625761  0.92230481  0.44590786  1
  Se  Se156  1  0.08634650  0.91326725  0.94717759  1
  Se  Se157  1  0.40178093  0.24822677  0.43227431  1
  Se  Se158  1  0.40222430  0.26006468  0.94268125  1
  Se  Se159  1  0.41406142  0.58231798  0.44603473  1
  Se  Se160  1  0.40541723  0.59508134  0.94499483  1
  Se  Se161  1  0.40939118  0.91960589  0.43798190  1
  Se  Se162  1  0.40923726  0.92553970  0.93722610  1
  Se  Se163  1  0.73875215  0.25870353  0.44658048  1
  Se  Se164  1  0.74841375  0.24756534  0.93372744  1
  Se  Se165  1  0.74362538  0.59221725  0.43615000  1
  Se  Se166  1  0.75409390  0.58148449  0.95043068  1
  Se  Se167  1  0.75319758  0.92150795  0.44355508  1
  Se  Se168  1  0.75476668  0.91332310  0.95327953  1
  Se  Se169  1  0.25461593  0.07697127  0.44088236  1
  Se  Se170  1  0.24482486  0.08337348  0.94789866  1
  Se  Se171  1  0.24509399  0.42007560  0.43823431  1
  Se  Se172  1  0.24584209  0.41976974  0.95192786  1
  Se  Se173  1  0.24777728  0.75254885  0.44927440  1
  Se  Se174  1  0.24665490  0.75543499  0.94940422  1
  Se  Se175  1  0.58676434  0.08304142  0.44646144  1
  Se  Se176  1  0.59241274  0.07124259  0.93891447  1
  Se  Se177  1  0.57656641  0.41745836  0.45429749  1
  Se  Se178  1  0.58963376  0.40940948  0.93387465  1
  Se  Se179  1  0.58848222  0.74530054  0.43506308  1
  Se  Se180  1  0.58674303  0.74123651  0.93867163  1
  Se  Se181  1  0.92707767  0.07922661  0.43680992  1
  Se  Se182  1  0.92583747  0.07523295  0.94005084  1
  Se  Se183  1  0.92043121  0.41120847  0.43690287  1
  Se  Se184  1  0.92103523  0.41144871  0.94903135  1
  Se  Se185  1  0.91801929  0.75845946  0.45258182  1
  Se  Se186  1  0.91517229  0.75086378  0.94892640  1
  Se  Se187  1  0.24701926  0.25131225  0.29029648  1
  Se  Se188  1  0.23740343  0.24980362  0.80997421  1
  Se  Se189  1  0.24939145  0.58888422  0.30227964  1
  Se  Se190  1  0.25028776  0.58956490  0.80730330  1
  Se  Se191  1  0.25642386  0.90976909  0.29865123  1
  Se  Se192  1  0.24820285  0.91954090  0.80342321  1
  Se  Se193  1  0.57481896  0.24321437  0.31460258  1
  Se  Se194  1  0.58501209  0.24777730  0.79637246  1
  Se  Se195  1  0.58431883  0.58132139  0.30183606  1
  Se  Se196  1  0.57489318  0.57674836  0.80572849  1
  Se  Se197  1  0.58866175  0.92005081  0.30379395  1
  Se  Se198  1  0.58229349  0.91189963  0.80513715  1
  Se  Se199  1  0.91742850  0.24809728  0.29781297  1
  Se  Se200  1  0.91576562  0.24604766  0.81205577  1
  Se  Se201  1  0.90922879  0.57888976  0.31077623  1
  Se  Se202  1  0.92104780  0.58553377  0.80280322  1
  Se  Se203  1  0.92074865  0.91305938  0.30426529  1
  Se  Se204  1  0.91923226  0.91412639  0.80724757  1
  Se  Se205  1  0.10213682  0.09108832  0.29599059  1
  Se  Se206  1  0.08055496  0.07925311  0.80524106  1
  Se  Se207  1  0.08036604  0.42154298  0.30032368  1
  Se  Se208  1  0.08976769  0.42149186  0.80807936  1
  Se  Se209  1  0.08762359  0.75638248  0.31419609  1
  Se  Se210  1  0.08129667  0.74885657  0.80755220  1
  Se  Se211  1  0.41562197  0.07596597  0.30075483  1
  Se  Se212  1  0.41890109  0.09799190  0.80198754  1
  Se  Se213  1  0.41391789  0.41789458  0.30260493  1
  Se  Se214  1  0.41995818  0.42426998  0.81362994  1
  Se  Se215  1  0.41910877  0.74709411  0.30132748  1
  Se  Se216  1  0.41038623  0.75160353  0.80085473  1
  Se  Se217  1  0.74985288  0.08047903  0.29824352  1
  Se  Se218  1  0.76127951  0.07973392  0.80295017  1
  Se  Se219  1  0.75359713  0.42294832  0.31088183  1
  Se  Se220  1  0.75090317  0.42159294  0.80224118  1
  Se  Se221  1  0.75240059  0.74884583  0.30076505  1
  Se  Se222  1  0.75263432  0.74922759  0.81409049  1
  Se  Se223  1  0.26419414  0.06165240  0.19623832  1
  Se  Se224  1  0.25165137  0.07569618  0.69788512  1
  Se  Se225  1  0.25146350  0.41710289  0.19578929  1
  Se  Se226  1  0.24286779  0.42249848  0.69125074  1
  Se  Se227  1  0.24825668  0.74527348  0.19302492  1
  Se  Se228  1  0.24807247  0.75112751  0.69992466  1
  Se  Se229  1  0.58433879  0.08181299  0.19859618  1
  Se  Se230  1  0.59064920  0.07676473  0.70760287  1
  Se  Se231  1  0.57772869  0.42155672  0.18657904  1
  Se  Se232  1  0.58256493  0.41911154  0.70061388  1
  Se  Se233  1  0.59002447  0.74959214  0.19781598  1
  Se  Se234  1  0.57177474  0.75699553  0.68370915  1
  Se  Se235  1  0.92010833  0.07425527  0.19769152  1
  Se  Se236  1  0.89702356  0.10088938  0.70120616  1
  Se  Se237  1  0.91686977  0.41889386  0.19812118  1
  Se  Se238  1  0.91204186  0.42623258  0.68582056  1
  Se  Se239  1  0.91334853  0.75599218  0.18754850  1
  Se  Se240  1  0.91825030  0.74901457  0.69849087  1
  Se  Se241  1  0.07283971  0.26534411  0.19658828  1
  Se  Se242  1  0.09221745  0.23763159  0.68787234  1
  Se  Se243  1  0.09094973  0.58416827  0.18686273  1
  Se  Se244  1  0.08101554  0.58766091  0.69718294  1
  Se  Se245  1  0.08333961  0.91581958  0.19620406  1
  Se  Se246  1  0.07868546  0.91901034  0.70004516  1
  Se  Se247  1  0.41676634  0.25354055  0.20227900  1
  Se  Se248  1  0.42198548  0.24238593  0.68722039  1
  Se  Se249  1  0.41492455  0.58566067  0.19633288  1
  Se  Se250  1  0.41044505  0.57810155  0.70152786  1
  Se  Se251  1  0.42191633  0.90924194  0.19575519  1
  Se  Se252  1  0.41417140  0.92130535  0.69885761  1
  Se  Se253  1  0.75646283  0.24606222  0.18609428  1
  Se  Se254  1  0.74741499  0.26385788  0.70692967  1
  Se  Se255  1  0.74610284  0.58725689  0.19593172  1
  Se  Se256  1  0.75642257  0.58147416  0.68587134  1
  Se  Se257  1  0.75001276  0.91872951  0.19385088  1
  Se  Se258  1  0.74374542  0.91004694  0.70584125  1
