# generated using pymatgen
data_In86Cu29Se144
_symmetry_space_group_name_H-M   'P 1'
_cell_length_a   17.58167428
_cell_length_b   17.58793572
_cell_length_c   23.45360161
_cell_angle_alpha   89.99993194
_cell_angle_beta   89.99850597
_cell_angle_gamma   89.99074624
_symmetry_Int_Tables_number   1
_chemical_formula_structural   In86Cu29Se144
_chemical_formula_sum   'In86 Cu29 Se144'
_cell_volume   7252.44823722
_cell_formula_units_Z   1
loop_
 _symmetry_equiv_pos_site_id
 _symmetry_equiv_pos_as_xyz
  1  'x, y, z'
loop_
 _atom_site_type_symbol
 _atom_site_label
 _atom_site_symmetry_multiplicity
 _atom_site_fract_x
 _atom_site_fract_y
 _atom_site_fract_z
 _atom_site_occupancy
  In  In0  1  -0.00060497  0.16998479  0.12411599  1
  In  In1  1  0.01045001  0.17739326  0.62055230  1
  In  In2  1  -0.01060887  0.48546501  0.11891663  1
  In  In3  1  -0.00317394  0.49940256  0.63678269  1
  In  In4  1  0.01182968  0.83797719  0.12824781  1
  In  In5  1  -0.01122172  0.82963005  0.62876087  1
  In  In6  1  0.33520821  0.18054846  0.12843301  1
  In  In7  1  0.32440585  0.17077735  0.61671228  1
  In  In8  1  0.33395938  0.50055074  0.12166555  1
  In  In9  1  0.35247950  0.49355113  0.61803515  1
  In  In10  1  0.33341015  0.81939542  0.12648305  1
  In  In11  1  0.35439587  0.83201811  0.62294737  1
  In  In12  1  0.67100821  0.15175189  0.12408983  1
  In  In13  1  0.67559782  0.17088840  0.62002855  1
  In  In14  1  0.67859242  0.51114675  0.12366709  1
  In  In15  1  0.65570464  0.50441551  0.62946983  1
  In  In16  1  0.65464275  0.84047060  0.12826157  1
  In  In17  1  0.65402087  0.83207590  0.62647064  1
  In  In18  1  0.16759153  0.01836299  0.37172201  1
  In  In19  1  0.18706327  0.00420768  0.87734020  1
  In  In20  1  0.15590538  0.32783681  0.36397456  1
  In  In21  1  0.16031098  0.34058257  0.88169941  1
  In  In22  1  0.17273411  0.65135208  0.37339195  1
  In  In23  1  0.15455636  0.66419571  0.87605715  1
  In  In24  1  0.50783178  -0.00528456  0.37908763  1
  In  In25  1  0.48294079  0.00452697  0.88077539  1
  In  In26  1  0.48602595  0.34814218  0.38681475  1
  In  In27  1  0.51600816  0.32867081  0.87261434  1
  In  In28  1  0.50173735  0.66689158  0.37760085  1
  In  In29  1  0.51053989  0.65606751  0.88190571  1
  In  In30  1  0.83508887  0.00872443  0.36553103  1
  In  In31  1  0.83925358  0.00465889  0.88158355  1
  In  In32  1  0.82831968  0.32109521  0.37133506  1
  In  In33  1  0.83293898  0.33302801  0.87578357  1
  In  In34  1  0.82213358  0.67518026  0.37354304  1
  In  In35  1  0.81862005  0.65071645  0.87009162  1
  In  In36  1  -0.00226825  0.17013465  0.37123156  1
  In  In37  1  -0.00879954  0.17982815  0.88369882  1
  In  In38  1  0.01427187  0.49637036  0.37041979  1
  In  In39  1  -0.00278952  0.49479671  0.87617524  1
  In  In40  1  -0.01870782  0.83657323  0.37043927  1
  In  In41  1  0.01042182  0.82588892  0.87610525  1
  In  In42  1  0.32245296  0.18283470  0.38839573  1
  In  In43  1  0.33656252  0.14918226  0.87613325  1
  In  In44  1  0.34463661  0.51088339  0.36211883  1
  In  In45  1  0.33571550  0.49697719  0.88500027  1
  In  In46  1  0.35158962  0.82641533  0.38120477  1
  In  In47  1  0.33839823  0.85201070  0.87329091  1
  In  In48  1  0.67089574  0.16278702  0.37967888  1
  In  In49  1  0.65685425  0.18493284  0.87337116  1
  In  In50  1  0.65375535  0.50389877  0.37361692  1
  In  In51  1  0.66731505  0.49616554  0.87780682  1
  In  In52  1  0.65004372  0.82596451  0.36332795  1
  In  In53  1  0.67007466  0.81840905  0.87758367  1
  In  In54  1  0.15507880  -0.00376070  0.12764474  1
  In  In55  1  0.16657293  0.01797915  0.62419158  1
  In  In56  1  0.16634614  0.33254189  0.12390306  1
  In  In57  1  0.16923712  0.32341202  0.62777553  1
  In  In58  1  0.18121092  0.67068033  0.12471249  1
  In  In59  1  0.16779713  0.65223948  0.62582752  1
  In  In60  1  0.51756278  0.00072799  0.12243153  1
  In  In61  1  0.49626459  -0.00368573  0.61987280  1
  In  In62  1  0.48531954  0.33215414  0.12728260  1
  In  In63  1  0.50227666  0.33770264  0.61450967  1
  In  In64  1  0.50186492  0.66575214  0.12492502  1
  In  In65  1  0.51304938  0.68050843  0.60542141  1
  In  In66  1  0.81921584  0.01527547  0.12709757  1
  In  In67  1  0.82239811  0.00509455  0.62430607  1
  In  In68  1  0.84631259  0.34515891  0.12221844  1
  In  In69  1  0.84181467  0.32812154  0.63004385  1
  In  In70  1  0.82710694  0.64396781  0.12926242  1
  In  In71  1  0.82966744  0.66393406  0.63301520  1
  In  In72  1  0.17327178  0.83432152  -0.00096894  1
  In  In73  1  0.66233022  -0.00168951  0.75090210  1
  In  In74  1  0.33495885  0.66767299  0.74529487  1
  In  In75  1  0.33828176  0.00083535  0.25679989  1
  In  In76  1  0.83156895  0.83291848  0.00181350  1
  In  In77  1  -0.00080449  0.66611105  0.24832655  1
  In  In78  1  0.00202569  0.00138701  0.75616402  1
  In  In79  1  0.82502934  0.49639211  0.49053963  1
  In  In80  1  0.17000626  0.83788688  0.49080718  1
  In  In81  1  0.33499833  0.33025907  0.74433211  1
  In  In82  1  0.82201872  0.83887750  0.50495010  1
  In  In83  1  0.49996182  0.16825027  0.00026446  1
  In  In84  1  0.18313123  0.48686467  0.50646874  1
  In  In85  1  0.66746301  0.33732475  0.25314422  1
  Cu  Cu86  1  -0.00376033  0.65593682  -0.00204008  1
  Cu  Cu87  1  0.00104766  0.32450241  0.49907938  1
  Cu  Cu88  1  0.50154303  0.16995280  0.25350931  1
  Cu  Cu89  1  -0.00206152  0.01419869  0.49475265  1
  Cu  Cu90  1  0.83770783  0.17005542  0.24776531  1
  Cu  Cu91  1  0.50195759  0.82877125  0.74807830  1
  Cu  Cu92  1  0.00048410  0.66396135  0.50641963  1
  Cu  Cu93  1  0.66966689  0.33675138  -0.00039842  1
  Cu  Cu94  1  0.50817265  0.49762355  0.74982418  1
  Cu  Cu95  1  0.82751556  0.83908691  0.24554380  1
  Cu  Cu96  1  0.16122467  0.49853034  0.75376198  1
  Cu  Cu97  1  0.17049835  0.49606513  0.24392217  1
  Cu  Cu98  1  0.49684431  0.50392941  0.24889877  1
  Cu  Cu99  1  0.16939476  0.83479345  0.25100559  1
  Cu  Cu100  1  0.16878156  0.16897476  0.74957655  1
  Cu  Cu101  1  0.66919732  0.33054152  0.49863633  1
  Cu  Cu102  1  0.50163910  0.83033851  0.25163614  1
  Cu  Cu103  1  0.83386656  0.17024454  0.75043870  1
  Cu  Cu104  1  0.16116180  0.16979274  0.24965648  1
  Cu  Cu105  1  0.16859300  0.83446989  0.75487778  1
  Cu  Cu106  1  0.32936986  0.33498352  0.00248072  1
  Cu  Cu107  1  0.66483031  0.66187488  0.00150010  1
  Cu  Cu108  1  0.00054483  0.01006844  0.00415620  1
  Cu  Cu109  1  0.00157867  0.33167887  0.00081573  1
  Cu  Cu110  1  0.83009602  0.49443615  0.75427529  1
  Cu  Cu111  1  0.66708549  0.00211181  0.49839926  1
  Cu  Cu112  1  0.33896590  0.66539003  0.00118775  1
  Cu  Cu113  1  0.33280915  0.00266288  0.49787193  1
  Cu  Cu114  1  0.83297236  0.81690265  0.75354833  1
  Se  Se115  1  0.08836670  0.08720053  0.05711949  1
  Se  Se116  1  0.08514651  0.08981805  0.54994953  1
  Se  Se117  1  0.08538090  0.41622180  0.05315152  1
  Se  Se118  1  0.07290411  0.41136510  0.56084633  1
  Se  Se119  1  0.07651568  0.74119325  0.05495586  1
  Se  Se120  1  0.08189495  0.74919432  0.55967693  1
  Se  Se121  1  0.41320005  0.08139418  0.06501873  1
  Se  Se122  1  0.41373590  0.08396166  0.55483200  1
  Se  Se123  1  0.41787730  0.41644570  0.05220251  1
  Se  Se124  1  0.39452995  0.39010068  0.54842349  1
  Se  Se125  1  0.42012828  0.75042269  0.05407414  1
  Se  Se126  1  0.41602046  0.75391113  0.54437934  1
  Se  Se127  1  0.74978674  0.08560097  0.04624035  1
  Se  Se128  1  0.75409446  0.08488971  0.54852311  1
  Se  Se129  1  0.75164279  0.41847616  0.05599540  1
  Se  Se130  1  0.74742087  0.41119806  0.56160473  1
  Se  Se131  1  0.74578574  0.74115447  0.06347109  1
  Se  Se132  1  0.73974821  0.73909930  0.56015665  1
  Se  Se133  1  0.24939991  0.24787552  0.05430398  1
  Se  Se134  1  0.25121057  0.26410983  0.54994163  1
  Se  Se135  1  0.25011513  0.58477874  0.05170371  1
  Se  Se136  1  0.26818899  0.59246115  0.55623681  1
  Se  Se137  1  0.25731679  0.92199616  0.06387111  1
  Se  Se138  1  0.25280914  0.92227142  0.56066914  1
  Se  Se139  1  0.59003903  0.25772771  0.06327228  1
  Se  Se140  1  0.58634626  0.24698006  0.55177309  1
  Se  Se141  1  0.58205467  0.57869077  0.05600558  1
  Se  Se142  1  0.56636858  0.56313467  0.55386221  1
  Se  Se143  1  0.58733925  0.91746239  0.04957739  1
  Se  Se144  1  0.58623393  0.91728539  0.55278089  1
  Se  Se145  1  0.91524192  0.25076462  0.05422570  1
  Se  Se146  1  0.91382629  0.24689955  0.55388223  1
  Se  Se147  1  0.91163191  0.57813811  0.05336743  1
  Se  Se148  1  0.91627947  0.58120716  0.55925152  1
  Se  Se149  1  0.92389326  0.92234780  0.06165781  1
  Se  Se150  1  0.92472624  0.92940449  0.55697906  1
  Se  Se151  1  0.08540473  0.24796110  0.44152990  1
  Se  Se152  1  0.08802258  0.24790728  0.95008783  1
  Se  Se153  1  0.08228600  0.58228910  0.45016200  1
  Se  Se154  1  0.08392231  0.57642405  0.94601466  1
  Se  Se155  1  0.07052917  0.92520379  0.43605578  1
  Se  Se156  1  0.07776357  0.92755687  0.94235050  1
  Se  Se157  1  0.42994689  0.24046115  0.44841849  1
  Se  Se158  1  0.40993832  0.25860068  0.93805831  1
  Se  Se159  1  0.42267364  0.57393563  0.44104289  1
  Se  Se160  1  0.42183256  0.57936937  0.94984379  1
  Se  Se161  1  0.41940351  0.91901075  0.44941302  1
  Se  Se162  1  0.41486451  0.91614594  0.95212011  1
  Se  Se163  1  0.75467521  0.24731762  0.44815897  1
  Se  Se164  1  0.74785140  0.25023137  0.94518980  1
  Se  Se165  1  0.73482705  0.59759635  0.44443630  1
  Se  Se166  1  0.74986143  0.57753498  0.94999860  1
  Se  Se167  1  0.74341356  0.92240050  0.43371521  1
  Se  Se168  1  0.74198152  0.92211472  0.94170108  1
  Se  Se169  1  0.24457726  0.08573044  0.44997200  1
  Se  Se170  1  0.25480284  0.08388342  0.95268331  1
  Se  Se171  1  0.25184582  0.41617879  0.42456926  1
  Se  Se172  1  0.24575134  0.42011492  0.95051993  1
  Se  Se173  1  0.25721098  0.73616787  0.44233959  1
  Se  Se174  1  0.25963474  0.74266640  0.93598439  1
  Se  Se175  1  0.58173781  0.08574591  0.44749375  1
  Se  Se176  1  0.58986377  0.08044343  0.93884813  1
  Se  Se177  1  0.58767186  0.41826908  0.44845466  1
  Se  Se178  1  0.58106343  0.41534968  0.94735484  1
  Se  Se179  1  0.58039599  0.75831592  0.44346091  1
  Se  Se180  1  0.58329664  0.74864112  0.95031559  1
  Se  Se181  1  0.91045001  0.08938365  0.43994330  1
  Se  Se182  1  0.91411795  0.08942570  0.95111847  1
  Se  Se183  1  0.92667519  0.40898885  0.43833246  1
  Se  Se184  1  0.91576153  0.41359935  0.94675892  1
  Se  Se185  1  0.91906172  0.74418330  0.44833414  1
  Se  Se186  1  0.91856966  0.74086306  0.93899691  1
  Se  Se187  1  0.25105916  0.24600342  0.30315188  1
  Se  Se188  1  0.24748487  0.24830279  0.81297049  1
  Se  Se189  1  0.25039969  0.58470854  0.29508956  1
  Se  Se190  1  0.24850986  0.57684809  0.80933996  1
  Se  Se191  1  0.24773853  0.90900185  0.31705712  1
  Se  Se192  1  0.25332198  0.92227703  0.79947022  1
  Se  Se193  1  0.57829864  0.25154158  0.31584881  1
  Se  Se194  1  0.57871096  0.24806846  0.79476126  1
  Se  Se195  1  0.58094252  0.58737868  0.30119251  1
  Se  Se196  1  0.58751514  0.58130560  0.80616011  1
  Se  Se197  1  0.58172996  0.92480119  0.29802382  1
  Se  Se198  1  0.57779942  0.90728938  0.81330466  1
  Se  Se199  1  0.91932923  0.25564129  0.29972766  1
  Se  Se200  1  0.91786084  0.25152268  0.80476489  1
  Se  Se201  1  0.91264997  0.58151685  0.31419247  1
  Se  Se202  1  0.91572990  0.57909745  0.80610322  1
  Se  Se203  1  0.91406331  0.92077121  0.29648618  1
  Se  Se204  1  0.90867883  0.90440305  0.81094786  1
  Se  Se205  1  0.07749301  0.08411584  0.30036835  1
  Se  Se206  1  0.09052303  0.09215179  0.81503165  1
  Se  Se207  1  0.08083994  0.41597916  0.29338873  1
  Se  Se208  1  0.08078329  0.41241751  0.80531701  1
  Se  Se209  1  0.08835911  0.75483547  0.31397922  1
  Se  Se210  1  0.08376390  0.74731802  0.80067003  1
  Se  Se211  1  0.42125208  0.09350464  0.31766009  1
  Se  Se212  1  0.42294450  0.08562487  0.80226713  1
  Se  Se213  1  0.41977369  0.41219073  0.30001045  1
  Se  Se214  1  0.42058906  0.42299491  0.80780419  1
  Se  Se215  1  0.41767593  0.74683405  0.30365098  1
  Se  Se216  1  0.42206742  0.75135959  0.81218448  1
  Se  Se217  1  0.74763999  0.09151728  0.30010382  1
  Se  Se218  1  0.75602548  0.08758725  0.80979389  1
  Se  Se219  1  0.75762985  0.42844058  0.31189267  1
  Se  Se220  1  0.74560942  0.41155399  0.80690574  1
  Se  Se221  1  0.74764972  0.75312586  0.29904178  1
  Se  Se222  1  0.74132488  0.73895397  0.80134230  1
  Se  Se223  1  0.24586520  0.08622955  0.19375863  1
  Se  Se224  1  0.25300057  0.08898809  0.69542126  1
  Se  Se225  1  0.25499598  0.41332903  0.19104185  1
  Se  Se226  1  0.24599093  0.42950489  0.68886774  1
  Se  Se227  1  0.25242091  0.74852334  0.20238631  1
  Se  Se228  1  0.24377988  0.75948905  0.68615872  1
  Se  Se229  1  0.58181552  0.08723586  0.19858407  1
  Se  Se230  1  0.58174870  0.08679990  0.68600038  1
  Se  Se231  1  0.57754472  0.42231026  0.18890695  1
  Se  Se232  1  0.58115716  0.40839323  0.69349280  1
  Se  Se233  1  0.58423855  0.74749494  0.19621111  1
  Se  Se234  1  0.57955974  0.74172280  0.69393501  1
  Se  Se235  1  0.91697086  0.08376745  0.19267730  1
  Se  Se236  1  0.91374947  0.08740660  0.69118148  1
  Se  Se237  1  0.91151518  0.42591923  0.20020056  1
  Se  Se238  1  0.91686506  0.41272736  0.70218800  1
  Se  Se239  1  0.90868814  0.75651538  0.18629766  1
  Se  Se240  1  0.92123144  0.74046996  0.69961201  1
  Se  Se241  1  0.08076005  0.25347544  0.19404462  1
  Se  Se242  1  0.08209457  0.25220654  0.69994704  1
  Se  Se243  1  0.08834091  0.58017336  0.18505649  1
  Se  Se244  1  0.08230794  0.58647968  0.70027865  1
  Se  Se245  1  0.08206978  0.91842610  0.20452843  1
  Se  Se246  1  0.08869860  0.91320529  0.69023721  1
  Se  Se247  1  0.41443067  0.25260504  0.20431572  1
  Se  Se248  1  0.42362792  0.24270409  0.68516888  1
  Se  Se249  1  0.41358011  0.58510578  0.19231774  1
  Se  Se250  1  0.42967649  0.57976730  0.68974249  1
  Se  Se251  1  0.42237832  0.91267831  0.19088594  1
  Se  Se252  1  0.42134978  0.91663296  0.69741013  1
  Se  Se253  1  0.75391233  0.24905420  0.18808009  1
  Se  Se254  1  0.74954532  0.25047375  0.69584729  1
  Se  Se255  1  0.74445786  0.58256982  0.20642733  1
  Se  Se256  1  0.74800880  0.57716840  0.69764941  1
  Se  Se257  1  0.74410933  0.92250631  0.19272914  1
  Se  Se258  1  0.75834088  0.90412892  0.69409492  1
