# generated using pymatgen
data_In86Cu29Se144
_symmetry_space_group_name_H-M   'P 1'
_cell_length_a   17.56688003
_cell_length_b   17.57212800
_cell_length_c   23.42441110
_cell_angle_alpha   90.00783601
_cell_angle_beta   89.99610682
_cell_angle_gamma   90.00377727
_symmetry_Int_Tables_number   1
_chemical_formula_structural   In86Cu29Se144
_chemical_formula_sum   'In86 Cu29 Se144'
_cell_volume   7230.82197245
_cell_formula_units_Z   1
loop_
 _symmetry_equiv_pos_site_id
 _symmetry_equiv_pos_as_xyz
  1  'x, y, z'
loop_
 _atom_site_type_symbol
 _atom_site_label
 _atom_site_symmetry_multiplicity
 _atom_site_fract_x
 _atom_site_fract_y
 _atom_site_fract_z
 _atom_site_occupancy
  In  In0  1  0.00549454  0.16797070  0.15491758  1
  In  In1  1  0.00007829  0.16702931  0.61040774  1
  In  In2  1  0.00044330  0.50189308  0.12737638  1
  In  In3  1  -0.00199611  0.51391225  0.62681330  1
  In  In4  1  -0.00006790  0.82239117  0.13155346  1
  In  In5  1  -0.01578881  0.83335210  0.62468832  1
  In  In6  1  0.32014183  0.17765311  0.15200243  1
  In  In7  1  0.33053009  0.16250084  0.61350198  1
  In  In8  1  0.33036959  0.48898078  0.10995476  1
  In  In9  1  0.34551670  0.50400046  0.62659886  1
  In  In10  1  0.33022378  0.84824661  0.12637510  1
  In  In11  1  0.33494560  0.81937586  0.62838543  1
  In  In12  1  0.66270208  0.16227710  0.13503336  1
  In  In13  1  0.66317674  0.16047252  0.61100541  1
  In  In14  1  0.68116403  0.50114363  0.11208343  1
  In  In15  1  0.67495013  0.50876631  0.61880765  1
  In  In16  1  0.66126429  0.83263299  0.13347438  1
  In  In17  1  0.67281675  0.83300802  0.63014793  1
  In  In18  1  0.17761134  0.02299849  0.35404807  1
  In  In19  1  0.15073657  -0.00116441  0.87891321  1
  In  In20  1  0.14980956  0.30769307  0.34792915  1
  In  In21  1  0.17835503  0.34132776  0.88159448  1
  In  In22  1  0.15719793  0.67753329  0.37471334  1
  In  In23  1  0.16552651  0.66557726  0.88078423  1
  In  In24  1  0.50348355  -0.00205362  0.37994354  1
  In  In25  1  0.50037161  -0.01341757  0.86996073  1
  In  In26  1  0.49172240  0.33734011  0.37689393  1
  In  In27  1  0.49992365  0.34910626  0.88238086  1
  In  In28  1  0.50992988  0.65588050  0.38568671  1
  In  In29  1  0.49262543  0.66136816  0.86571353  1
  In  In30  1  0.82924319  -0.00098566  0.37050102  1
  In  In31  1  0.82252600  -0.00484381  0.86846526  1
  In  In32  1  0.84310409  0.32751401  0.37893453  1
  In  In33  1  0.84198224  0.33133606  0.87865336  1
  In  In34  1  0.83066615  0.66804698  0.37838058  1
  In  In35  1  0.81966570  0.66226208  0.86079607  1
  In  In36  1  -0.00791396  0.16781351  0.36622577  1
  In  In37  1  -0.00755342  0.15716703  0.87569952  1
  In  In38  1  -0.00553083  0.48985601  0.36620460  1
  In  In39  1  -0.01305043  0.50920681  0.88820989  1
  In  In40  1  -0.00721986  0.82641481  0.37186292  1
  In  In41  1  0.01149157  0.83296669  0.87997259  1
  In  In42  1  0.33361712  0.16834347  0.37329216  1
  In  In43  1  0.33157050  0.17608611  0.87377930  1
  In  In44  1  0.34346322  0.49019750  0.37471523  1
  In  In45  1  0.32220029  0.50827705  0.89090192  1
  In  In46  1  0.33387402  0.84682133  0.37830331  1
  In  In47  1  0.33516030  0.81682174  0.87481601  1
  In  In48  1  0.68273113  0.15110467  0.37983309  1
  In  In49  1  0.66951920  0.15500160  0.86648552  1
  In  In50  1  0.66014320  0.51066399  0.38015050  1
  In  In51  1  0.65659002  0.50880886  0.88771971  1
  In  In52  1  0.66755155  0.83078985  0.37902450  1
  In  In53  1  0.64001594  0.80999238  0.83647346  1
  In  In54  1  0.16743964  0.00112829  0.13548709  1
  In  In55  1  0.15746122  0.00596166  0.61900212  1
  In  In56  1  0.16551379  0.34038325  0.13291604  1
  In  In57  1  0.17419504  0.32939525  0.62147535  1
  In  In58  1  0.15987549  0.65816797  0.11735247  1
  In  In59  1  0.16413738  0.67381409  0.63939203  1
  In  In60  1  0.49477927  0.00266999  0.13811699  1
  In  In61  1  0.50711809  0.00536974  0.61605691  1
  In  In62  1  0.49969169  0.33597488  0.12291093  1
  In  In63  1  0.49943313  0.33703017  0.61078054  1
  In  In64  1  0.51594480  0.66213180  0.12749962  1
  In  In65  1  0.50806175  0.67252697  0.62654787  1
  In  In66  1  0.83451268  0.00598678  0.14213669  1
  In  In67  1  0.82066787  -0.01845125  0.60160261  1
  In  In68  1  0.83257094  0.34780513  0.12871901  1
  In  In69  1  0.83173931  0.33260088  0.60732078  1
  In  In70  1  0.83877394  0.65615699  0.13154724  1
  In  In71  1  0.83343623  0.66957672  0.62783399  1
  In  In72  1  0.67283296  0.32866385  0.25303682  1
  In  In73  1  0.16780110  0.49443372  0.49840385  1
  In  In74  1  0.49550332  0.82920973  -0.00625197  1
  In  In75  1  0.33324015  0.66542672  0.25062554  1
  In  In76  1  0.33089772  0.33646045  0.75388650  1
  In  In77  1  0.33350960  -0.00452829  0.73748231  1
  In  In78  1  0.00153227  0.33823779  0.74671776  1
  In  In79  1  0.82971342  0.83375008  -0.00632823  1
  In  In80  1  -0.00568532  -0.00278824  0.74561793  1
  In  In81  1  0.16426262  0.84052909  0.49846659  1
  In  In82  1  0.49620634  0.16945015  0.01147035  1
  In  In83  1  0.83104290  0.17697876  0.00977783  1
  In  In84  1  0.66382623  0.33484624  0.75233017  1
  In  In85  1  0.16351643  0.17443559  0.01603497  1
  Cu  Cu86  1  0.16730751  0.50850388  0.76045299  1
  Cu  Cu87  1  0.50200503  0.83164528  0.25648825  1
  Cu  Cu88  1  0.33776202  0.00375750  0.49404930  1
  Cu  Cu89  1  0.15860216  0.83352268  0.25088517  1
  Cu  Cu90  1  0.00486547  0.00602826  0.48721287  1
  Cu  Cu91  1  0.33446405  0.66900286  -0.00087872  1
  Cu  Cu92  1  0.82743940  0.15954310  0.73902198  1
  Cu  Cu93  1  0.67177907  -0.00284471  0.49643966  1
  Cu  Cu94  1  0.67274966  0.66505199  -0.00235662  1
  Cu  Cu95  1  0.49646020  0.16624928  0.74245527  1
  Cu  Cu96  1  -0.01044050  0.66562777  0.50152124  1
  Cu  Cu97  1  0.00541291  0.33510254  0.00837373  1
  Cu  Cu98  1  0.34040005  0.66274287  0.50467973  1
  Cu  Cu99  1  0.00214679  0.33109388  0.48773225  1
  Cu  Cu100  1  0.66728319  0.66965765  0.50493627  1
  Cu  Cu101  1  0.66146683  0.33571107  0.49063785  1
  Cu  Cu102  1  -0.00459213  -0.00348813  0.00636302  1
  Cu  Cu103  1  0.50472021  0.15871983  0.25727815  1
  Cu  Cu104  1  0.32670833  0.32836012  0.49386340  1
  Cu  Cu105  1  0.32119138  0.00716446  0.00769212  1
  Cu  Cu106  1  0.50352403  0.50958981  0.74878524  1
  Cu  Cu107  1  0.82894521  0.50478383  0.75114486  1
  Cu  Cu108  1  0.50421558  0.49930060  0.25270638  1
  Cu  Cu109  1  0.17068208  0.82889486  0.75583443  1
  Cu  Cu110  1  0.66347315  -0.00419451  -0.00164804  1
  Cu  Cu111  1  0.16796656  0.50660787  0.24274980  1
  Cu  Cu112  1  0.83221357  0.50618807  0.25024853  1
  Cu  Cu113  1  0.00032301  0.66401895  0.00477599  1
  Cu  Cu114  1  0.82572902  0.82981310  0.25421670  1
  Se  Se115  1  0.06777268  0.08160532  0.06760904  1
  Se  Se116  1  0.08837274  0.08671683  0.54330736  1
  Se  Se117  1  0.08809875  0.41992174  0.05953320  1
  Se  Se118  1  0.07192741  0.40834526  0.55956616  1
  Se  Se119  1  0.08121431  0.75330490  0.05432910  1
  Se  Se120  1  0.08088255  0.74237532  0.55749314  1
  Se  Se121  1  0.40141981  0.08248148  0.06962512  1
  Se  Se122  1  0.42144216  0.08700435  0.54816014  1
  Se  Se123  1  0.43571481  0.42471888  0.05035352  1
  Se  Se124  1  0.40464958  0.41650964  0.54934091  1
  Se  Se125  1  0.41205945  0.74480693  0.06475127  1
  Se  Se126  1  0.42064511  0.75077362  0.55513235  1
  Se  Se127  1  0.74309063  0.07256071  0.06047316  1
  Se  Se128  1  0.75650869  0.08925596  0.54328268  1
  Se  Se129  1  0.75663021  0.40816368  0.04774726  1
  Se  Se130  1  0.74400431  0.41839302  0.54704434  1
  Se  Se131  1  0.74483183  0.74707902  0.06137525  1
  Se  Se132  1  0.75361909  0.75178732  0.55669764  1
  Se  Se133  1  0.26527384  0.25924888  0.06583924  1
  Se  Se134  1  0.24358583  0.24561210  0.54779844  1
  Se  Se135  1  0.24975092  0.58369779  0.04966805  1
  Se  Se136  1  0.24854944  0.59142439  0.56245203  1
  Se  Se137  1  0.23947665  0.92007399  0.05758042  1
  Se  Se138  1  0.26105708  0.92438718  0.56036668  1
  Se  Se139  1  0.60090218  0.25453203  0.06007419  1
  Se  Se140  1  0.58153342  0.25043738  0.54655000  1
  Se  Se141  1  0.58654728  0.58366170  0.05055664  1
  Se  Se142  1  0.58028470  0.58361875  0.55437575  1
  Se  Se143  1  0.57896622  0.92131722  0.05985327  1
  Se  Se144  1  0.59317391  0.91558565  0.55593329  1
  Se  Se145  1  0.93305822  0.25058340  0.07081432  1
  Se  Se146  1  0.91653034  0.24869732  0.54254139  1
  Se  Se147  1  0.91471210  0.57994076  0.05558816  1
  Se  Se148  1  0.90933001  0.58008584  0.55490217  1
  Se  Se149  1  0.91104439  0.91941794  0.06448074  1
  Se  Se150  1  0.92963656  0.91732709  0.54349796  1
  Se  Se151  1  0.08417163  0.24626345  0.43533582  1
  Se  Se152  1  0.07419784  0.25201174  0.94175397  1
  Se  Se153  1  0.07518834  0.58794431  0.44252500  1
  Se  Se154  1  0.08577117  0.58049080  0.95087678  1
  Se  Se155  1  0.08629211  0.92495793  0.42803155  1
  Se  Se156  1  0.08282894  0.91667415  0.95484842  1
  Se  Se157  1  0.41739357  0.24711201  0.44587033  1
  Se  Se158  1  0.40931677  0.25854086  0.94595250  1
  Se  Se159  1  0.41433258  0.57648209  0.44738109  1
  Se  Se160  1  0.42310583  0.58891427  0.94663721  1
  Se  Se161  1  0.42227642  0.91287845  0.45121444  1
  Se  Se162  1  0.40045398  0.92866125  0.94398075  1
  Se  Se163  1  0.75057019  0.25158916  0.44441105  1
  Se  Se164  1  0.74028427  0.24883228  0.93710222  1
  Se  Se165  1  0.74900925  0.58535837  0.44936452  1
  Se  Se166  1  0.75970980  0.58530478  0.94450683  1
  Se  Se167  1  0.75597820  0.91356038  0.44436293  1
  Se  Se168  1  0.73179875  0.91380223  0.93415443  1
  Se  Se169  1  0.24935115  0.08172150  0.44089201  1
  Se  Se170  1  0.24686483  0.08697880  0.94306716  1
  Se  Se171  1  0.24426069  0.40340946  0.43151834  1
  Se  Se172  1  0.25570828  0.41094619  0.95648051  1
  Se  Se173  1  0.25812377  0.74237284  0.44479001  1
  Se  Se174  1  0.24828364  0.75320535  0.94919646  1
  Se  Se175  1  0.58629030  0.08329351  0.44763446  1
  Se  Se176  1  0.58034816  0.07912487  0.94250601  1
  Se  Se177  1  0.57564609  0.42206728  0.44382685  1
  Se  Se178  1  0.59439693  0.40775486  0.95186780  1
  Se  Se179  1  0.58247457  0.75141063  0.45057272  1
  Se  Se180  1  0.59338042  0.74559945  0.93579513  1
  Se  Se181  1  0.91376918  0.08519614  0.43849966  1
  Se  Se182  1  0.91066103  0.07215618  0.94683085  1
  Se  Se183  1  0.91687230  0.42283703  0.44617047  1
  Se  Se184  1  0.91663239  0.41055030  0.95255912  1
  Se  Se185  1  0.91277370  0.75387103  0.44798976  1
  Se  Se186  1  0.92080874  0.73925428  0.93945731  1
  Se  Se187  1  0.27125161  0.25965873  0.29908092  1
  Se  Se188  1  0.23296130  0.24318463  0.80444775  1
  Se  Se189  1  0.24245315  0.57803029  0.31380209  1
  Se  Se190  1  0.25621432  0.58748721  0.81165845  1
  Se  Se191  1  0.24829537  0.91092774  0.30299084  1
  Se  Se192  1  0.24633084  0.91757869  0.81239761  1
  Se  Se193  1  0.58337446  0.24258493  0.31650900  1
  Se  Se194  1  0.56805827  0.24480844  0.81047184  1
  Se  Se195  1  0.58298526  0.58726030  0.30394045  1
  Se  Se196  1  0.59149302  0.58352610  0.80531630  1
  Se  Se197  1  0.58567629  0.91564168  0.30941261  1
  Se  Se198  1  0.59521504  0.93829145  0.79683942  1
  Se  Se199  1  0.92769503  0.26999131  0.30094186  1
  Se  Se200  1  0.90746914  0.23796883  0.80116454  1
  Se  Se201  1  0.91513032  0.58713636  0.30697922  1
  Se  Se202  1  0.92007498  0.57967032  0.80514101  1
  Se  Se203  1  0.91338945  0.91223394  0.30373344  1
  Se  Se204  1  0.91370523  0.90456161  0.80940607  1
  Se  Se205  1  0.06925489  0.08035451  0.29530765  1
  Se  Se206  1  0.08715483  0.09139860  0.80322428  1
  Se  Se207  1  0.08535311  0.42121405  0.29577627  1
  Se  Se208  1  0.08608030  0.42366066  0.81534658  1
  Se  Se209  1  0.07587906  0.74598665  0.29959429  1
  Se  Se210  1  0.08505698  0.74763990  0.80846262  1
  Se  Se211  1  0.41864596  0.07773821  0.30976971  1
  Se  Se212  1  0.41702649  0.08906632  0.80587236  1
  Se  Se213  1  0.41785243  0.41297435  0.29808728  1
  Se  Se214  1  0.41978435  0.43128992  0.80941833  1
  Se  Se215  1  0.42070641  0.75053584  0.31626573  1
  Se  Se216  1  0.44269542  0.77715266  0.80792301  1
  Se  Se217  1  0.75298060  0.08415861  0.29875257  1
  Se  Se218  1  0.74739448  0.07630990  0.79397580  1
  Se  Se219  1  0.75431977  0.42578949  0.31351353  1
  Se  Se220  1  0.75528549  0.42139601  0.81360115  1
  Se  Se221  1  0.74406739  0.74436906  0.30726018  1
  Se  Se222  1  0.76199604  0.75943947  0.79168382  1
  Se  Se223  1  0.25971349  0.06737778  0.20571212  1
  Se  Se224  1  0.23984746  0.09323062  0.69009973  1
  Se  Se225  1  0.25816087  0.42573746  0.19417780  1
  Se  Se226  1  0.24044643  0.42928525  0.69316904  1
  Se  Se227  1  0.24233701  0.75430830  0.18986345  1
  Se  Se228  1  0.25856383  0.74639160  0.70599396  1
  Se  Se229  1  0.58861006  0.07546353  0.20454063  1
  Se  Se230  1  0.58385299  0.08995208  0.68871067  1
  Se  Se231  1  0.58845653  0.42234657  0.19142836  1
  Se  Se232  1  0.57493985  0.42176446  0.68859946  1
  Se  Se233  1  0.58294341  0.74707914  0.20271819  1
  Se  Se234  1  0.59475760  0.74476728  0.69817605  1
  Se  Se235  1  0.91760206  0.08077179  0.21273584  1
  Se  Se236  1  0.91097809  0.08433584  0.67908343  1
  Se  Se237  1  0.91799725  0.42130876  0.19971272  1
  Se  Se238  1  0.90269774  0.42049286  0.68856679  1
  Se  Se239  1  0.91053575  0.74740367  0.19971218  1
  Se  Se240  1  0.93660820  0.73221349  0.69351883  1
  Se  Se241  1  0.11224141  0.24171088  0.20446042  1
  Se  Se242  1  0.08585846  0.24303537  0.68810775  1
  Se  Se243  1  0.08055559  0.59076522  0.19558690  1
  Se  Se244  1  0.08190517  0.58263967  0.70164919  1
  Se  Se245  1  0.07576506  0.91613478  0.19653975  1
  Se  Se246  1  0.09347338  0.90622565  0.69043572  1
  Se  Se247  1  0.43490918  0.24757292  0.19790460  1
  Se  Se248  1  0.41750337  0.25005303  0.68601245  1
  Se  Se249  1  0.42157477  0.57592149  0.18951481  1
  Se  Se250  1  0.41832307  0.59137999  0.69591444  1
  Se  Se251  1  0.41569770  0.91182772  0.20299443  1
  Se  Se252  1  0.43146828  0.90862612  0.68629113  1
  Se  Se253  1  0.76563388  0.24124854  0.19337182  1
  Se  Se254  1  0.75168489  0.25028920  0.68493673  1
  Se  Se255  1  0.74231278  0.58006095  0.19458159  1
  Se  Se256  1  0.74637442  0.58588123  0.69617763  1
  Se  Se257  1  0.74529990  0.91578947  0.19961123  1
  Se  Se258  1  0.76597892  0.91872663  0.68994215  1
