# generated using pymatgen
data_In86Cu29Se144
_symmetry_space_group_name_H-M   'P 1'
_cell_length_a   17.57524631
_cell_length_b   17.57375547
_cell_length_c   23.43886849
_cell_angle_alpha   90.01005723
_cell_angle_beta   89.97320911
_cell_angle_gamma   89.99835768
_symmetry_Int_Tables_number   1
_chemical_formula_structural   In86Cu29Se144
_chemical_formula_sum   'In86 Cu29 Se144'
_cell_volume   7239.40022916
_cell_formula_units_Z   1
loop_
 _symmetry_equiv_pos_site_id
 _symmetry_equiv_pos_as_xyz
  1  'x, y, z'
loop_
 _atom_site_type_symbol
 _atom_site_label
 _atom_site_symmetry_multiplicity
 _atom_site_fract_x
 _atom_site_fract_y
 _atom_site_fract_z
 _atom_site_occupancy
  In  In0  1  -0.00969747  0.15750909  0.12848910  1
  In  In1  1  -0.00591696  0.15198154  0.62109450  1
  In  In2  1  0.01552856  0.49866323  0.12503107  1
  In  In3  1  0.00294332  0.51858430  0.62609310  1
  In  In4  1  -0.00553273  0.83349059  0.12298970  1
  In  In5  1  -0.00822894  0.84289564  0.63253160  1
  In  In6  1  0.33246563  0.16634927  0.13628385  1
  In  In7  1  0.34222199  0.18808324  0.59900763  1
  In  In8  1  0.32743533  0.50077376  0.12854167  1
  In  In9  1  0.34484934  0.49847207  0.62226204  1
  In  In10  1  0.34057680  0.84600095  0.11871804  1
  In  In11  1  0.33415453  0.82076534  0.62820415  1
  In  In12  1  0.66228708  0.16731269  0.13442555  1
  In  In13  1  0.66798145  0.17557636  0.63388607  1
  In  In14  1  0.66112879  0.49647452  0.12527671  1
  In  In15  1  0.66670503  0.50089882  0.62486163  1
  In  In16  1  0.68206097  0.84399911  0.10637739  1
  In  In17  1  0.66994702  0.83324409  0.62504292  1
  In  In18  1  0.17518944  0.00687767  0.36404365  1
  In  In19  1  0.15067063  -0.00794971  0.87670192  1
  In  In20  1  0.16651759  0.31431966  0.38088939  1
  In  In21  1  0.17762341  0.34348831  0.88016314  1
  In  In22  1  0.16248264  0.68086733  0.36970419  1
  In  In23  1  0.16709493  0.67134514  0.87860065  1
  In  In24  1  0.49965445  0.00217991  0.37923702  1
  In  In25  1  0.50788646  -0.01435739  0.87595338  1
  In  In26  1  0.49825949  0.32714144  0.37715828  1
  In  In27  1  0.50485491  0.32893649  0.87434828  1
  In  In28  1  0.50355343  0.65856637  0.38908585  1
  In  In29  1  0.51254548  0.67992600  0.86198159  1
  In  In30  1  0.82114357  -0.01050928  0.37093407  1
  In  In31  1  0.82221419  -0.00880033  0.86767991  1
  In  In32  1  0.83767762  0.35019876  0.38000475  1
  In  In33  1  0.82538824  0.34243007  0.87118565  1
  In  In34  1  0.83494364  0.66282108  0.38119008  1
  In  In35  1  0.83913118  0.67512348  0.87023548  1
  In  In36  1  0.01650618  0.16240203  0.37686888  1
  In  In37  1  0.00014813  0.14988239  0.86681460  1
  In  In38  1  -0.01532589  0.49806868  0.37659796  1
  In  In39  1  0.00171995  0.51736175  0.87415355  1
  In  In40  1  -0.00874814  0.82613823  0.36695992  1
  In  In41  1  -0.00025575  0.83537270  0.88045986  1
  In  In42  1  0.33543293  0.16684256  0.37787930  1
  In  In43  1  0.34496401  0.17347896  0.87529539  1
  In  In44  1  0.34958522  0.49847711  0.37877965  1
  In  In45  1  0.31770704  0.50452181  0.88149451  1
  In  In46  1  0.33652147  0.84224979  0.37349248  1
  In  In47  1  0.34847451  0.82282357  0.88397874  1
  In  In48  1  0.65550627  0.15665566  0.37130349  1
  In  In49  1  0.67610210  0.17142884  0.85852535  1
  In  In50  1  0.67245663  0.48999944  0.38169693  1
  In  In51  1  0.66109481  0.50068157  0.86566027  1
  In  In52  1  0.65932691  0.83677532  0.38379512  1
  In  In53  1  0.66629941  0.83062516  0.87355528  1
  In  In54  1  0.16603407  -0.00279519  0.12592032  1
  In  In55  1  0.15713715  0.00417804  0.62549443  1
  In  In56  1  0.17366031  0.34549122  0.12422699  1
  In  In57  1  0.18160579  0.33165009  0.61459862  1
  In  In58  1  0.15767253  0.65827308  0.12117565  1
  In  In59  1  0.15953813  0.67431662  0.63804638  1
  In  In60  1  0.50518118  -0.00768207  0.13504856  1
  In  In61  1  0.51075252  0.01225964  0.61636940  1
  In  In62  1  0.50449679  0.32913400  0.13592304  1
  In  In63  1  0.50905427  0.34381247  0.61272215  1
  In  In64  1  0.49527350  0.67033770  0.12040854  1
  In  In65  1  0.50375387  0.66768562  0.62558605  1
  In  In66  1  0.83641350  -0.01139717  0.13474635  1
  In  In67  1  0.84615839  -0.00338583  0.63434057  1
  In  In68  1  0.83089453  0.32542670  0.12750525  1
  In  In69  1  0.81622965  0.32776381  0.62418656  1
  In  In70  1  0.83307969  0.69581630  0.11677577  1
  In  In71  1  0.83196962  0.66908362  0.62580093  1
  In  In72  1  0.33175223  0.67003859  0.24569813  1
  In  In73  1  0.33860557  0.33826832  0.75004164  1
  In  In74  1  0.16878993  0.83954965  0.49835667  1
  In  In75  1  0.82904937  0.15983647  -0.00992196  1
  In  In76  1  0.32900663  -0.00153972  0.74491346  1
  In  In77  1  -0.00694702  0.32805449  0.74307202  1
  In  In78  1  0.00007785  0.32826905  0.25602158  1
  In  In79  1  0.50079549  0.16716916  0.00278551  1
  In  In80  1  0.83429523  0.50463829  -0.00500010  1
  In  In81  1  0.83165468  0.16784522  0.50088638  1
  In  In82  1  0.16491072  0.16200627  0.00794428  1
  In  In83  1  0.49859977  0.50536134  -0.00025968  1
  In  In84  1  0.16303838  0.49788446  0.49840381  1
  In  In85  1  0.66936575  0.66834982  0.24105268  1
  Cu  Cu86  1  0.82609139  0.50444408  0.74865403  1
  Cu  Cu87  1  0.50857772  0.49047218  0.25654380  1
  Cu  Cu88  1  -0.00121118  -0.00468828  0.50076641  1
  Cu  Cu89  1  0.33831813  0.66206975  0.50711122  1
  Cu  Cu90  1  0.15875392  0.83758015  0.24557962  1
  Cu  Cu91  1  0.49655447  0.16391639  0.25724916  1
  Cu  Cu92  1  0.50081390  0.50370540  0.74221741  1
  Cu  Cu93  1  0.50704904  0.83394804  0.74901161  1
  Cu  Cu94  1  0.66016138  0.33249886  0.50024012  1
  Cu  Cu95  1  0.00988103  0.33044722  -0.00061961  1
  Cu  Cu96  1  0.67046755  -0.00466911  0.50155248  1
  Cu  Cu97  1  0.00337276  0.66896580  -0.00186125  1
  Cu  Cu98  1  0.16270770  0.50717564  0.75473509  1
  Cu  Cu99  1  0.32721295  0.00183025  0.00008005  1
  Cu  Cu100  1  0.33642536  0.00100393  0.49332847  1
  Cu  Cu101  1  0.82647817  0.16327251  0.25288422  1
  Cu  Cu102  1  0.16594278  0.83082702  0.75703125  1
  Cu  Cu103  1  0.83147515  0.83486306  0.24760062  1
  Cu  Cu104  1  0.50275598  0.83834483  0.25341248  1
  Cu  Cu105  1  0.66759246  -0.00035493  -0.00157680  1
  Cu  Cu106  1  -0.00886315  0.67305110  0.50034182  1
  Cu  Cu107  1  0.16749123  0.16100785  0.25011950  1
  Cu  Cu108  1  0.50511143  0.16611260  0.74496886  1
  Cu  Cu109  1  0.33001924  0.67157651  0.00192186  1
  Cu  Cu110  1  0.16893629  0.49836934  0.24939655  1
  Cu  Cu111  1  0.83301092  0.50550256  0.25452947  1
  Cu  Cu112  1  0.83323347  0.82957242  0.75086995  1
  Cu  Cu113  1  0.66861551  0.66393176  0.50607204  1
  Cu  Cu114  1  0.16652986  0.16114308  0.74504274  1
  Se  Se115  1  0.06627376  0.07113532  0.05605366  1
  Se  Se116  1  0.08326346  0.08183162  0.54895777  1
  Se  Se117  1  0.08944240  0.41761721  0.05060941  1
  Se  Se118  1  0.07426693  0.41385129  0.56303292  1
  Se  Se119  1  0.08317685  0.75115372  0.05603692  1
  Se  Se120  1  0.07826814  0.74981995  0.55883844  1
  Se  Se121  1  0.40980039  0.07761915  0.06206727  1
  Se  Se122  1  0.42042036  0.08449278  0.54682092  1
  Se  Se123  1  0.41814601  0.41308343  0.06483619  1
  Se  Se124  1  0.39300907  0.39327910  0.55647979  1
  Se  Se125  1  0.41688904  0.75426722  0.05207864  1
  Se  Se126  1  0.41996766  0.75156876  0.55520498  1
  Se  Se127  1  0.74371204  0.08009014  0.06182174  1
  Se  Se128  1  0.74800437  0.07681476  0.56391670  1
  Se  Se129  1  0.74872048  0.41031830  0.05627249  1
  Se  Se130  1  0.74535320  0.41512664  0.55287207  1
  Se  Se131  1  0.73761585  0.73957710  0.04205808  1
  Se  Se132  1  0.75254971  0.75134961  0.55426870  1
  Se  Se133  1  0.26016390  0.25366144  0.05980437  1
  Se  Se134  1  0.23079663  0.23827897  0.53945279  1
  Se  Se135  1  0.25302159  0.58330347  0.05620418  1
  Se  Se136  1  0.24612076  0.59189666  0.56407611  1
  Se  Se137  1  0.24488770  0.91747955  0.05257672  1
  Se  Se138  1  0.26006787  0.92559934  0.56134928  1
  Se  Se139  1  0.59312364  0.25819598  0.05871151  1
  Se  Se140  1  0.58652576  0.24240366  0.55569134  1
  Se  Se141  1  0.59497980  0.59428343  0.05579588  1
  Se  Se142  1  0.58083184  0.58030478  0.55536075  1
  Se  Se143  1  0.57791890  0.92327573  0.05339093  1
  Se  Se144  1  0.58437510  0.91353766  0.55460523  1
  Se  Se145  1  0.92325961  0.25283066  0.05377081  1
  Se  Se146  1  0.92144579  0.25732418  0.56072407  1
  Se  Se147  1  0.92376240  0.58798200  0.06093444  1
  Se  Se148  1  0.91377801  0.58540950  0.55397920  1
  Se  Se149  1  0.89719441  0.90482537  0.05789214  1
  Se  Se150  1  0.91462162  0.91576280  0.55531547  1
  Se  Se151  1  0.06294811  0.26286968  0.44745317  1
  Se  Se152  1  0.08064127  0.24716511  0.93501978  1
  Se  Se153  1  0.07715151  0.59717670  0.44028304  1
  Se  Se154  1  0.08789007  0.58252404  0.94873033  1
  Se  Se155  1  0.07827238  0.92172524  0.43418698  1
  Se  Se156  1  0.08524423  0.91111312  0.95203874  1
  Se  Se157  1  0.42510430  0.23897827  0.44696871  1
  Se  Se158  1  0.40887006  0.26572457  0.94901800  1
  Se  Se159  1  0.42040812  0.57508082  0.45675592  1
  Se  Se160  1  0.41257376  0.59609528  0.93820543  1
  Se  Se161  1  0.42012980  0.91160853  0.44740493  1
  Se  Se162  1  0.41744365  0.92220901  0.94882527  1
  Se  Se163  1  0.74191415  0.25497785  0.43749496  1
  Se  Se164  1  0.73850809  0.25863935  0.94074379  1
  Se  Se165  1  0.74916027  0.58136914  0.44764519  1
  Se  Se166  1  0.74269554  0.58920841  0.93472927  1
  Se  Se167  1  0.75404615  0.91118231  0.45002300  1
  Se  Se168  1  0.74847856  0.91484030  0.94460584  1
  Se  Se169  1  0.24642398  0.08031664  0.44301403  1
  Se  Se170  1  0.25560064  0.08281310  0.93612610  1
  Se  Se171  1  0.25537825  0.41101269  0.43985021  1
  Se  Se172  1  0.25624826  0.41438432  0.95430585  1
  Se  Se173  1  0.26088607  0.74165589  0.44341889  1
  Se  Se174  1  0.24800115  0.75582561  0.94827289  1
  Se  Se175  1  0.58620427  0.08022811  0.45013352  1
  Se  Se176  1  0.59267012  0.08479399  0.93772958  1
  Se  Se177  1  0.57753613  0.41654400  0.44634325  1
  Se  Se178  1  0.59106620  0.41253810  0.94326590  1
  Se  Se179  1  0.58412462  0.74747062  0.45233769  1
  Se  Se180  1  0.56976707  0.76207524  0.94114266  1
  Se  Se181  1  0.91818765  0.07524885  0.43847419  1
  Se  Se182  1  0.92269660  0.06697041  0.93988538  1
  Se  Se183  1  0.91790589  0.42094964  0.45407784  1
  Se  Se184  1  0.92862156  0.40962338  0.93849920  1
  Se  Se185  1  0.91197173  0.75800725  0.44552876  1
  Se  Se186  1  0.91474985  0.74878927  0.94752929  1
  Se  Se187  1  0.24822462  0.24448911  0.30547844  1
  Se  Se188  1  0.24331446  0.24333377  0.80663512  1
  Se  Se189  1  0.24773472  0.57876345  0.31205066  1
  Se  Se190  1  0.24940821  0.58796018  0.80673960  1
  Se  Se191  1  0.24943758  0.91003583  0.30068193  1
  Se  Se192  1  0.25095932  0.91055654  0.81423694  1
  Se  Se193  1  0.58350715  0.25057690  0.30459663  1
  Se  Se194  1  0.58206868  0.25523386  0.79908805  1
  Se  Se195  1  0.58453562  0.58163765  0.31011738  1
  Se  Se196  1  0.58533545  0.58644402  0.79573756  1
  Se  Se197  1  0.58486455  0.91834400  0.30994849  1
  Se  Se198  1  0.59048677  0.91889441  0.80042614  1
  Se  Se199  1  0.90719168  0.24072431  0.31567993  1
  Se  Se200  1  0.90879937  0.24350291  0.81048399  1
  Se  Se201  1  0.91721334  0.58886569  0.30542992  1
  Se  Se202  1  0.91406271  0.58349428  0.80148481  1
  Se  Se203  1  0.91405218  0.91847573  0.30180664  1
  Se  Se204  1  0.91720897  0.91141731  0.80610808  1
  Se  Se205  1  0.07821480  0.07900878  0.29826777  1
  Se  Se206  1  0.08745507  0.07479753  0.79731239  1
  Se  Se207  1  0.08989571  0.42130582  0.31416598  1
  Se  Se208  1  0.08455698  0.41651272  0.80780875  1
  Se  Se209  1  0.07838485  0.74953094  0.29631998  1
  Se  Se210  1  0.08011900  0.74977531  0.80990963  1
  Se  Se211  1  0.41300838  0.07817205  0.30829912  1
  Se  Se212  1  0.42524737  0.08659762  0.80610562  1
  Se  Se213  1  0.41731616  0.41235665  0.30547481  1
  Se  Se214  1  0.42390558  0.43074632  0.81220801  1
  Se  Se215  1  0.42828971  0.74800355  0.31085885  1
  Se  Se216  1  0.41484790  0.75493306  0.79894326  1
  Se  Se217  1  0.74282314  0.07730679  0.30354573  1
  Se  Se218  1  0.75415597  0.08138446  0.79705206  1
  Se  Se219  1  0.75236624  0.41764730  0.30444573  1
  Se  Se220  1  0.74423775  0.41590979  0.79796844  1
  Se  Se221  1  0.75157589  0.75415777  0.30985862  1
  Se  Se222  1  0.74669934  0.74735799  0.80228636  1
  Se  Se223  1  0.24977711  0.07580652  0.19724949  1
  Se  Se224  1  0.25541826  0.09701128  0.68089018  1
  Se  Se225  1  0.25494897  0.41400497  0.20136824  1
  Se  Se226  1  0.24105460  0.42665437  0.69264900  1
  Se  Se227  1  0.24258486  0.75801861  0.18531426  1
  Se  Se228  1  0.25176936  0.75057622  0.70316054  1
  Se  Se229  1  0.58135163  0.08255636  0.20151183  1
  Se  Se230  1  0.58825101  0.07933653  0.69591187  1
  Se  Se231  1  0.59329051  0.41259323  0.20026375  1
  Se  Se232  1  0.58196066  0.41443160  0.69266215  1
  Se  Se233  1  0.57692574  0.76108253  0.18713322  1
  Se  Se234  1  0.58787941  0.74876323  0.69465364  1
  Se  Se235  1  0.91244046  0.08104446  0.20142911  1
  Se  Se236  1  0.92423321  0.08448152  0.70140883  1
  Se  Se237  1  0.91389713  0.42192684  0.19265326  1
  Se  Se238  1  0.90803053  0.42669897  0.68697684  1
  Se  Se239  1  0.91619999  0.74918015  0.19740514  1
  Se  Se240  1  0.91849008  0.74740324  0.69677288  1
  Se  Se241  1  0.08956928  0.24439928  0.18793205  1
  Se  Se242  1  0.09290969  0.24623874  0.68487762  1
  Se  Se243  1  0.08370620  0.58283847  0.20027955  1
  Se  Se244  1  0.07616029  0.59058470  0.70533891  1
  Se  Se245  1  0.07502847  0.92006153  0.19244021  1
  Se  Se246  1  0.08989249  0.91435979  0.69709337  1
  Se  Se247  1  0.41645499  0.24983632  0.20232303  1
  Se  Se248  1  0.42159634  0.24630138  0.68693666  1
  Se  Se249  1  0.43072630  0.57455154  0.19571277  1
  Se  Se250  1  0.41370815  0.58671706  0.69350592  1
  Se  Se251  1  0.41211979  0.91578321  0.20077869  1
  Se  Se252  1  0.42677123  0.91418789  0.68728944  1
  Se  Se253  1  0.74893786  0.25161543  0.19992097  1
  Se  Se254  1  0.75921255  0.24542193  0.70291826  1
  Se  Se255  1  0.76408958  0.58020725  0.18307844  1
  Se  Se256  1  0.74500569  0.58793620  0.69374513  1
  Se  Se257  1  0.73831550  0.91107734  0.19584332  1
  Se  Se258  1  0.75318274  0.91455210  0.69548207  1
