# generated using pymatgen
data_In86Cu29Se144
_symmetry_space_group_name_H-M   'P 1'
_cell_length_a   17.58051028
_cell_length_b   17.57819552
_cell_length_c   23.44224008
_cell_angle_alpha   89.99276747
_cell_angle_beta   90.01375974
_cell_angle_gamma   90.01294577
_symmetry_Int_Tables_number   1
_chemical_formula_structural   In86Cu29Se144
_chemical_formula_sum   'In86 Cu29 Se144'
_cell_volume   7244.44049237
_cell_formula_units_Z   1
loop_
 _symmetry_equiv_pos_site_id
 _symmetry_equiv_pos_as_xyz
  1  'x, y, z'
loop_
 _atom_site_type_symbol
 _atom_site_label
 _atom_site_symmetry_multiplicity
 _atom_site_fract_x
 _atom_site_fract_y
 _atom_site_fract_z
 _atom_site_occupancy
  In  In0  1  0.00806574  0.15589298  0.12303968  1
  In  In1  1  -0.01262310  0.15938453  0.61406190  1
  In  In2  1  0.00483770  0.49026864  0.12613555  1
  In  In3  1  -0.00651435  0.49451519  0.60468918  1
  In  In4  1  0.00521095  0.83564785  0.11766814  1
  In  In5  1  -0.00326920  0.84672541  0.62810460  1
  In  In6  1  0.32501998  0.17385818  0.12021283  1
  In  In7  1  0.32755206  0.17271711  0.63519272  1
  In  In8  1  0.34222590  0.50765757  0.11331384  1
  In  In9  1  0.32786773  0.50499297  0.62284136  1
  In  In10  1  0.32317111  0.81849051  0.11709131  1
  In  In11  1  0.33705592  0.82451920  0.63735714  1
  In  In12  1  0.65229404  0.15353924  0.12509779  1
  In  In13  1  0.67995226  0.15881646  0.62987553  1
  In  In14  1  0.66721705  0.51526775  0.12404784  1
  In  In15  1  0.66544788  0.50752172  0.63096654  1
  In  In16  1  0.66480974  0.83012001  0.11978394  1
  In  In17  1  0.66950448  0.83037893  0.62900051  1
  In  In18  1  0.17322128  0.00642831  0.38249180  1
  In  In19  1  0.16797053  -0.00125408  0.87256520  1
  In  In20  1  0.15302548  0.34165965  0.39160589  1
  In  In21  1  0.17511425  0.32998934  0.87332282  1
  In  In22  1  0.16604278  0.66541446  0.37383361  1
  In  In23  1  0.17377858  0.65589295  0.88055117  1
  In  In24  1  0.50676771  -0.01726103  0.37720589  1
  In  In25  1  0.49333803  -0.00940308  0.86867087  1
  In  In26  1  0.51002232  0.34667950  0.37680258  1
  In  In27  1  0.50493988  0.34589000  0.86455146  1
  In  In28  1  0.49964127  0.66097694  0.36795764  1
  In  In29  1  0.49872686  0.66880051  0.87431971  1
  In  In30  1  0.82757985  -0.00269715  0.38383345  1
  In  In31  1  0.82316772  -0.01080350  0.86316377  1
  In  In32  1  0.83953939  0.33572461  0.39627420  1
  In  In33  1  0.82051435  0.34304329  0.86431555  1
  In  In34  1  0.81734723  0.67980868  0.39683617  1
  In  In35  1  0.83739985  0.67934475  0.87017676  1
  In  In36  1  -0.00467906  0.17050864  0.39134799  1
  In  In37  1  0.01691349  0.16854068  0.87099081  1
  In  In38  1  0.00027743  0.51687960  0.40228102  1
  In  In39  1  0.00016634  0.50938657  0.87273435  1
  In  In40  1  -0.01871450  0.81784191  0.37845765  1
  In  In41  1  -0.00902143  0.83778770  0.87992205  1
  In  In42  1  0.31539366  0.16458493  0.38331103  1
  In  In43  1  0.32433961  0.15652286  0.86503349  1
  In  In44  1  0.31932971  0.52494835  0.39157100  1
  In  In45  1  0.33218361  0.50518461  0.86991641  1
  In  In46  1  0.34269395  0.83205720  0.37028607  1
  In  In47  1  0.33328947  0.83041961  0.87567956  1
  In  In48  1  0.67923194  0.15970426  0.38684628  1
  In  In49  1  0.66368595  0.16689752  0.86394363  1
  In  In50  1  0.64909583  0.51213898  0.38802770  1
  In  In51  1  0.65885603  0.49193416  0.85956106  1
  In  In52  1  0.68432163  0.83620440  0.35998005  1
  In  In53  1  0.66634989  0.83139291  0.87345330  1
  In  In54  1  0.16498274  -0.00089323  0.11439821  1
  In  In55  1  0.15722181  0.00229335  0.63627645  1
  In  In56  1  0.17384339  0.33779106  0.11057593  1
  In  In57  1  0.17001429  0.34351347  0.61684089  1
  In  In58  1  0.18466707  0.67863797  0.11824075  1
  In  In59  1  0.17636670  0.65849050  0.62551414  1
  In  In60  1  0.51940393  -0.00585469  0.12544930  1
  In  In61  1  0.50485999  -0.00482297  0.63670650  1
  In  In62  1  0.48393363  0.33103886  0.11895469  1
  In  In63  1  0.48849066  0.34495172  0.63397628  1
  In  In64  1  0.49877098  0.66516817  0.12051483  1
  In  In65  1  0.49964468  0.66484246  0.62914349  1
  In  In66  1  0.83165567  -0.01756000  0.12356791  1
  In  In67  1  0.82701271  0.00368446  0.62161510  1
  In  In68  1  0.83008774  0.34265049  0.12893443  1
  In  In69  1  0.83176102  0.32832570  0.61915218  1
  In  In70  1  0.81967787  0.67368383  0.13206720  1
  In  In71  1  0.81639227  0.65042928  0.60904540  1
  In  In72  1  -0.00259122  0.33022394  0.73314843  1
  In  In73  1  0.49134818  0.16321569  -0.00378300  1
  In  In74  1  0.83564143  0.51240382  -0.00504751  1
  In  In75  1  -0.00308335  0.66878834  0.74487253  1
  In  In76  1  0.33873688  -0.00778422  0.25056099  1
  In  In77  1  0.66808540  0.33852341  0.25538481  1
  In  In78  1  0.33611089  0.33477621  0.24802529  1
  In  In79  1  -0.00009545  0.66729714  0.25479648  1
  In  In80  1  0.84481344  0.16676238  -0.00128862  1
  In  In81  1  0.00486195  0.33237192  0.26795182  1
  In  In82  1  0.00093016  -0.00538291  0.24990268  1
  In  In83  1  0.50385404  0.82616931  0.50831567  1
  In  In84  1  0.16564529  0.83386713  0.49672819  1
  In  In85  1  0.49947939  0.16952702  0.50129076  1
  Cu  Cu86  1  0.32977411  -0.00025744  0.51182666  1
  Cu  Cu87  1  0.66116685  0.66867530  -0.00250855  1
  Cu  Cu88  1  0.83052029  0.83500724  0.74653169  1
  Cu  Cu89  1  0.00792703  0.33425175  -0.00502367  1
  Cu  Cu90  1  0.00427243  0.66610283  -0.00118269  1
  Cu  Cu91  1  0.00639894  0.00266211  -0.00433815  1
  Cu  Cu92  1  0.16507466  0.49326264  0.74607268  1
  Cu  Cu93  1  0.66065805  0.66831788  0.50186466  1
  Cu  Cu94  1  0.50803546  0.82207052  0.24553314  1
  Cu  Cu95  1  0.49910807  0.50508463  0.24715507  1
  Cu  Cu96  1  0.82176661  0.15692973  0.25667002  1
  Cu  Cu97  1  0.33290149  -0.00205412  -0.00679040  1
  Cu  Cu98  1  0.33371712  0.33838179  -0.00848644  1
  Cu  Cu99  1  0.66988495  -0.00922503  -0.00542202  1
  Cu  Cu100  1  0.83767865  0.16665298  0.74362075  1
  Cu  Cu101  1  0.17518695  0.50920368  0.25360065  1
  Cu  Cu102  1  0.66195394  0.33867981  -0.01107293  1
  Cu  Cu103  1  0.50625436  0.15180798  0.25753543  1
  Cu  Cu104  1  0.66302174  0.33814004  0.51113500  1
  Cu  Cu105  1  0.33788396  0.33680846  0.50763521  1
  Cu  Cu106  1  -0.00604661  -0.00015871  0.50441293  1
  Cu  Cu107  1  0.16887003  0.16008264  0.74695062  1
  Cu  Cu108  1  0.16747731  0.83034238  0.75405265  1
  Cu  Cu109  1  0.16398185  0.17038850  0.25018704  1
  Cu  Cu110  1  0.33456177  0.66541576  -0.00473496  1
  Cu  Cu111  1  0.50578656  0.17289253  0.74782138  1
  Cu  Cu112  1  0.83072770  0.50377861  0.26419855  1
  Cu  Cu113  1  0.50069385  0.83339087  0.75427465  1
  Cu  Cu114  1  0.49432049  0.50696945  0.74810631  1
  Se  Se115  1  0.08943560  0.08959541  0.04642947  1
  Se  Se116  1  0.08474732  0.07539885  0.55715308  1
  Se  Se117  1  0.08530719  0.42313261  0.04895597  1
  Se  Se118  1  0.08239188  0.41114484  0.54469224  1
  Se  Se119  1  0.08796711  0.74996449  0.05216963  1
  Se  Se120  1  0.08450908  0.75197023  0.56751577  1
  Se  Se121  1  0.40966431  0.07139195  0.06345771  1
  Se  Se122  1  0.41445921  0.07986661  0.56638643  1
  Se  Se123  1  0.41948286  0.41758924  0.04517403  1
  Se  Se124  1  0.41917076  0.42394742  0.55656978  1
  Se  Se125  1  0.41805481  0.74841186  0.04988365  1
  Se  Se126  1  0.40290324  0.73913387  0.55794817  1
  Se  Se127  1  0.74466773  0.07938231  0.05424311  1
  Se  Se128  1  0.75649420  0.09396670  0.55043092  1
  Se  Se129  1  0.74528456  0.41418590  0.05243004  1
  Se  Se130  1  0.74754854  0.42324307  0.56039933  1
  Se  Se131  1  0.75029287  0.74603014  0.05126387  1
  Se  Se132  1  0.74485155  0.75542872  0.55108405  1
  Se  Se133  1  0.25256006  0.24988253  0.04347648  1
  Se  Se134  1  0.25595991  0.24970931  0.55773403  1
  Se  Se135  1  0.24815853  0.58193880  0.04822125  1
  Se  Se136  1  0.23975118  0.57506978  0.54855970  1
  Se  Se137  1  0.25169856  0.91552003  0.05106611  1
  Se  Se138  1  0.25131198  0.91535469  0.56832705  1
  Se  Se139  1  0.58853610  0.25556706  0.05378367  1
  Se  Se140  1  0.58236327  0.25463890  0.56886020  1
  Se  Se141  1  0.58166625  0.58078488  0.04973730  1
  Se  Se142  1  0.58070449  0.58526373  0.55756867  1
  Se  Se143  1  0.58221090  0.91214663  0.04737155  1
  Se  Se144  1  0.59015805  0.92639900  0.55954644  1
  Se  Se145  1  0.92758198  0.26346403  0.06247236  1
  Se  Se146  1  0.92712174  0.26256192  0.55110750  1
  Se  Se147  1  0.92329650  0.59194375  0.06575956  1
  Se  Se148  1  0.93143723  0.60616581  0.54826578  1
  Se  Se149  1  0.92259391  0.92078820  0.05022983  1
  Se  Se150  1  0.91042416  0.91481295  0.55457159  1
  Se  Se151  1  0.10389037  0.22809588  0.44938288  1
  Se  Se152  1  0.09056817  0.24948543  0.94436710  1
  Se  Se153  1  0.10972563  0.58469887  0.45565582  1
  Se  Se154  1  0.08277258  0.57738447  0.94789112  1
  Se  Se155  1  0.06916018  0.92234262  0.43760030  1
  Se  Se156  1  0.08583495  0.91556650  0.94279772  1
  Se  Se157  1  0.40960068  0.25989276  0.43797844  1
  Se  Se158  1  0.41285046  0.25490876  0.93124810  1
  Se  Se159  1  0.43597341  0.57614082  0.44458240  1
  Se  Se160  1  0.41687830  0.58188871  0.94167952  1
  Se  Se161  1  0.40715751  0.92201796  0.45025374  1
  Se  Se162  1  0.41864360  0.91447723  0.94477653  1
  Se  Se163  1  0.74442610  0.25429051  0.45562347  1
  Se  Se164  1  0.74644600  0.25330974  0.93952828  1
  Se  Se165  1  0.74752244  0.57650505  0.45577464  1
  Se  Se166  1  0.74025533  0.59078924  0.93295631  1
  Se  Se167  1  0.74652186  0.90409843  0.44460703  1
  Se  Se168  1  0.75649238  0.91088373  0.94260191  1
  Se  Se169  1  0.24566391  0.08349934  0.45978040  1
  Se  Se170  1  0.24980332  0.08392552  0.94351893  1
  Se  Se171  1  0.25608452  0.41502743  0.44829379  1
  Se  Se172  1  0.24860925  0.42204861  0.94054736  1
  Se  Se173  1  0.26344449  0.74780125  0.44124854  1
  Se  Se174  1  0.24834628  0.74964437  0.94526881  1
  Se  Se175  1  0.58619460  0.07022362  0.44747307  1
  Se  Se176  1  0.59038657  0.07870548  0.93904029  1
  Se  Se177  1  0.57776085  0.41908278  0.45717770  1
  Se  Se178  1  0.58068647  0.42503254  0.94002239  1
  Se  Se179  1  0.58834669  0.74878983  0.43607766  1
  Se  Se180  1  0.58037759  0.75351850  0.94347371  1
  Se  Se181  1  0.90849847  0.08295757  0.45173157  1
  Se  Se182  1  0.92315026  0.07687417  0.93262649  1
  Se  Se183  1  0.93259960  0.41072089  0.45898310  1
  Se  Se184  1  0.91976841  0.40855655  0.93839014  1
  Se  Se185  1  0.93238169  0.72837413  0.45648188  1
  Se  Se186  1  0.91556185  0.74710160  0.94867723  1
  Se  Se187  1  0.23958541  0.25363888  0.31094325  1
  Se  Se188  1  0.24833427  0.24920911  0.79844024  1
  Se  Se189  1  0.25851154  0.59273922  0.30443504  1
  Se  Se190  1  0.24236688  0.58197524  0.79987238  1
  Se  Se191  1  0.24026988  0.91253751  0.31001628  1
  Se  Se192  1  0.25238700  0.91467391  0.80582294  1
  Se  Se193  1  0.58026701  0.24130093  0.31389003  1
  Se  Se194  1  0.58900527  0.25937465  0.79929810  1
  Se  Se195  1  0.58981912  0.58085794  0.30074962  1
  Se  Se196  1  0.57969111  0.58908736  0.80090147  1
  Se  Se197  1  0.58248997  0.91055977  0.30108920  1
  Se  Se198  1  0.58816647  0.91800029  0.80329010  1
  Se  Se199  1  0.90193908  0.24032030  0.31502260  1
  Se  Se200  1  0.91395770  0.24658233  0.80776267  1
  Se  Se201  1  0.91573409  0.58041937  0.32180014  1
  Se  Se202  1  0.90515251  0.57628838  0.80306903  1
  Se  Se203  1  0.90652947  0.90990865  0.30810302  1
  Se  Se204  1  0.91951067  0.91288886  0.80028051  1
  Se  Se205  1  0.08479323  0.09171445  0.31172783  1
  Se  Se206  1  0.08378815  0.07880514  0.80014666  1
  Se  Se207  1  0.08925055  0.43791950  0.31635907  1
  Se  Se208  1  0.08124052  0.41588964  0.80517655  1
  Se  Se209  1  0.08960509  0.76477011  0.30939876  1
  Se  Se210  1  0.08454027  0.74873786  0.81348027  1
  Se  Se211  1  0.41776567  0.08577841  0.31934915  1
  Se  Se212  1  0.42439881  0.08742669  0.80279100  1
  Se  Se213  1  0.41992559  0.42659553  0.30967998  1
  Se  Se214  1  0.41128194  0.42037471  0.79949075  1
  Se  Se215  1  0.41896541  0.74829225  0.30045373  1
  Se  Se216  1  0.41422094  0.74934580  0.80406966  1
  Se  Se217  1  0.74214002  0.07375962  0.31032714  1
  Se  Se218  1  0.75186180  0.08632538  0.79922175  1
  Se  Se219  1  0.75417699  0.42091208  0.32389292  1
  Se  Se220  1  0.75114480  0.42214417  0.79081807  1
  Se  Se221  1  0.76308315  0.73640840  0.30506044  1
  Se  Se222  1  0.74882632  0.75107082  0.80055443  1
  Se  Se223  1  0.24465994  0.08828603  0.19315224  1
  Se  Se224  1  0.25650609  0.07405726  0.69933703  1
  Se  Se225  1  0.24473029  0.42417943  0.18802448  1
  Se  Se226  1  0.25102565  0.41436576  0.69268561  1
  Se  Se227  1  0.25315386  0.75006196  0.19863156  1
  Se  Se228  1  0.24591419  0.74317988  0.70061880  1
  Se  Se229  1  0.59054414  0.07180648  0.20414602  1
  Se  Se230  1  0.58869326  0.08527566  0.69847837  1
  Se  Se231  1  0.57437988  0.41659817  0.18693116  1
  Se  Se232  1  0.58101499  0.42258026  0.69836776  1
  Se  Se233  1  0.58846336  0.74074610  0.18964173  1
  Se  Se234  1  0.57998668  0.75241561  0.69563894  1
  Se  Se235  1  0.90838222  0.08992041  0.19184575  1
  Se  Se236  1  0.91804111  0.08051550  0.69168646  1
  Se  Se237  1  0.91168406  0.42253733  0.20474011  1
  Se  Se238  1  0.90911795  0.43071381  0.68556655  1
  Se  Se239  1  0.91568416  0.76007596  0.19130683  1
  Se  Se240  1  0.90438056  0.75227520  0.68413073  1
  Se  Se241  1  0.08687484  0.25410612  0.19006098  1
  Se  Se242  1  0.09174885  0.23835920  0.68172181  1
  Se  Se243  1  0.08989968  0.58027373  0.19033304  1
  Se  Se244  1  0.08030198  0.56937062  0.68695079  1
  Se  Se245  1  0.09629501  0.91122085  0.19062650  1
  Se  Se246  1  0.08060205  0.91311608  0.70439020  1
  Se  Se247  1  0.42650081  0.23126207  0.19565149  1
  Se  Se248  1  0.41453603  0.25349673  0.70134447  1
  Se  Se249  1  0.41400863  0.58318679  0.19118855  1
  Se  Se250  1  0.40795504  0.58721315  0.69496948  1
  Se  Se251  1  0.42592813  0.90620275  0.18686505  1
  Se  Se252  1  0.41498782  0.91638852  0.70169883  1
  Se  Se253  1  0.75171174  0.24149816  0.19140498  1
  Se  Se254  1  0.75306091  0.25459367  0.69598761  1
  Se  Se255  1  0.75190066  0.57862581  0.20097590  1
  Se  Se256  1  0.74416933  0.60023483  0.69563506  1
  Se  Se257  1  0.74034195  0.91662336  0.19113346  1
  Se  Se258  1  0.74850885  0.92132859  0.69462229  1
