# generated using pymatgen
data_In86Cu29Se144
_symmetry_space_group_name_H-M   'P 1'
_cell_length_a   17.57874828
_cell_length_b   17.58132642
_cell_length_c   23.43616453
_cell_angle_alpha   90.02740972
_cell_angle_beta   89.96962003
_cell_angle_gamma   89.98554410
_symmetry_Int_Tables_number   1
_chemical_formula_structural   In86Cu29Se144
_chemical_formula_sum   'In86 Cu29 Se144'
_cell_volume   7243.12529703
_cell_formula_units_Z   1
loop_
 _symmetry_equiv_pos_site_id
 _symmetry_equiv_pos_as_xyz
  1  'x, y, z'
loop_
 _atom_site_type_symbol
 _atom_site_label
 _atom_site_symmetry_multiplicity
 _atom_site_fract_x
 _atom_site_fract_y
 _atom_site_fract_z
 _atom_site_occupancy
  In  In0  1  -0.00984592  0.16642716  0.14446118  1
  In  In1  1  -0.00117839  0.15433001  0.61375001  1
  In  In2  1  -0.00336561  0.50164047  0.12516644  1
  In  In3  1  -0.01891583  0.51025325  0.61826587  1
  In  In4  1  0.00172466  0.83341943  0.12312059  1
  In  In5  1  -0.00536528  0.82463893  0.61708650  1
  In  In6  1  0.34182719  0.16088823  0.13159778  1
  In  In7  1  0.34519215  0.18099636  0.61341440  1
  In  In8  1  0.32187286  0.49941351  0.12869944  1
  In  In9  1  0.34041312  0.48739860  0.63394788  1
  In  In10  1  0.33182910  0.84626048  0.12459727  1
  In  In11  1  0.33298596  0.81891845  0.62997095  1
  In  In12  1  0.66439492  0.17989770  0.13034699  1
  In  In13  1  0.66361493  0.18323833  0.62334564  1
  In  In14  1  0.67152134  0.49553837  0.12373623  1
  In  In15  1  0.66157365  0.50359999  0.62052181  1
  In  In16  1  0.66359511  0.82349485  0.11446405  1
  In  In17  1  0.66431537  0.82294771  0.61665789  1
  In  In18  1  0.18138372  0.00363117  0.36395928  1
  In  In19  1  0.15582312  -0.00321098  0.88020191  1
  In  In20  1  0.15993538  0.32544732  0.36665592  1
  In  In21  1  0.17975260  0.34492055  0.87221670  1
  In  In22  1  0.16350441  0.67768689  0.37007173  1
  In  In23  1  0.17203734  0.65730491  0.88678966  1
  In  In24  1  0.49861956  0.00306970  0.38050833  1
  In  In25  1  0.50278021  -0.00057209  0.88310239  1
  In  In26  1  0.50044691  0.33242714  0.37146875  1
  In  In27  1  0.49508935  0.33342278  0.87131965  1
  In  In28  1  0.51126695  0.66232911  0.39367973  1
  In  In29  1  0.50851727  0.67075247  0.86730317  1
  In  In30  1  0.83575280  -0.01194251  0.36931197  1
  In  In31  1  0.82492961  -0.01917646  0.87484377  1
  In  In32  1  0.84310113  0.34272762  0.36120525  1
  In  In33  1  0.83152160  0.34800610  0.87336926  1
  In  In34  1  0.84217181  0.65713102  0.39448868  1
  In  In35  1  0.80870246  0.68143007  0.90074682  1
  In  In36  1  0.00861161  0.18000705  0.36166067  1
  In  In37  1  0.00145459  0.16422115  0.87886887  1
  In  In38  1  -0.00611014  0.49800213  0.37006203  1
  In  In39  1  -0.02478852  0.53373223  0.90587634  1
  In  In40  1  -0.01067339  0.81944472  0.36096376  1
  In  In41  1  -0.00539772  0.82526384  0.89051580  1
  In  In42  1  0.33586525  0.16639746  0.37357442  1
  In  In43  1  0.33568277  0.18724752  0.87306077  1
  In  In44  1  0.35016342  0.50235372  0.37359301  1
  In  In45  1  0.33240340  0.49728321  0.87224303  1
  In  In46  1  0.33894081  0.84056371  0.37107886  1
  In  In47  1  0.34907123  0.82109660  0.88176160  1
  In  In48  1  0.65280525  0.16841208  0.37604358  1
  In  In49  1  0.65206111  0.16570533  0.87349447  1
  In  In50  1  0.67614092  0.49906057  0.38339946  1
  In  In51  1  0.67617555  0.51048035  0.86284995  1
  In  In52  1  0.67120058  0.82763648  0.38785755  1
  In  In53  1  0.66695965  0.81591167  0.89175427  1
  In  In54  1  0.16840052  -0.00097878  0.12936031  1
  In  In55  1  0.15244267  0.00231923  0.61967313  1
  In  In56  1  0.15892844  0.33791665  0.13320390  1
  In  In57  1  0.17977029  0.33988574  0.62168999  1
  In  In58  1  0.14613098  0.65248199  0.10974556  1
  In  In59  1  0.16906409  0.67338376  0.62994096  1
  In  In60  1  0.48486658  -0.01357796  0.12443835  1
  In  In61  1  0.49748825  0.00025915  0.61500960  1
  In  In62  1  0.51135703  0.32551496  0.13251881  1
  In  In63  1  0.50005658  0.33826335  0.62229011  1
  In  In64  1  0.49845258  0.67460382  0.12112037  1
  In  In65  1  0.50281188  0.66097849  0.62315389  1
  In  In66  1  0.84328252  -0.00572729  0.13110967  1
  In  In67  1  0.83488782  -0.01965638  0.62006115  1
  In  In68  1  0.82455933  0.33847225  0.13811303  1
  In  In69  1  0.81423424  0.33849320  0.62538248  1
  In  In70  1  0.85187200  0.68273470  0.10379810  1
  In  In71  1  0.81785944  0.65162693  0.60057841  1
  In  In72  1  0.16693673  0.49661438  0.49625153  1
  In  In73  1  0.16773332  0.83618667  0.49939037  1
  In  In74  1  0.17171856  0.16552712  0.00715321  1
  In  In75  1  0.33176971  0.67140165  0.24804265  1
  In  In76  1  0.01296886  0.33693909  0.75809614  1
  In  In77  1  -0.00393328  -0.00631172  0.75958044  1
  In  In78  1  0.50528395  0.50432866  0.00025479  1
  In  In79  1  -0.00396745  0.66517523  0.75164079  1
  In  In80  1  0.33135503  0.00044090  0.74875144  1
  In  In81  1  0.66284832  -0.00019305  0.25741442  1
  In  In82  1  0.66359320  -0.00447955  0.74446211  1
  In  In83  1  0.83165386  0.16841276  0.01197202  1
  In  In84  1  0.83017171  0.16729007  0.49375782  1
  In  In85  1  0.66990129  0.66559607  0.24888880  1
  Cu  Cu86  1  0.33968575  0.33723099  -0.00154875  1
  Cu  Cu87  1  0.66031849  0.33931383  0.49885164  1
  Cu  Cu88  1  0.50802655  0.82385639  0.75041902  1
  Cu  Cu89  1  0.49562957  0.16522141  0.25316195  1
  Cu  Cu90  1  0.33019258  0.67385881  0.00316728  1
  Cu  Cu91  1  0.16587917  0.50328763  0.75844565  1
  Cu  Cu92  1  0.50569911  0.49232289  0.25005368  1
  Cu  Cu93  1  -0.00500138  -0.00298712  0.00535119  1
  Cu  Cu94  1  0.66234864  -0.00206208  0.00083688  1
  Cu  Cu95  1  0.33305996  0.00319448  0.00547373  1
  Cu  Cu96  1  0.16793682  0.83059661  0.75498327  1
  Cu  Cu97  1  0.01344229  0.00470552  0.48824211  1
  Cu  Cu98  1  0.83685105  0.50897545  0.24987543  1
  Cu  Cu99  1  0.00765941  0.33879721  0.00490886  1
  Cu  Cu100  1  0.66694595  0.00065673  0.49706697  1
  Cu  Cu101  1  0.50216058  0.50221312  0.74670567  1
  Cu  Cu102  1  0.17353969  0.16343974  0.24987887  1
  Cu  Cu103  1  0.49482955  0.17870545  0.74808020  1
  Cu  Cu104  1  0.33382702  0.00168347  0.49330891  1
  Cu  Cu105  1  0.33782261  0.32902044  0.49723660  1
  Cu  Cu106  1  0.83046242  0.16578832  0.74583101  1
  Cu  Cu107  1  0.16184456  0.49681563  0.24764548  1
  Cu  Cu108  1  0.83491495  0.82655170  0.24675513  1
  Cu  Cu109  1  0.17411242  0.17467759  0.74123812  1
  Cu  Cu110  1  -0.00530401  0.33519698  0.48982932  1
  Cu  Cu111  1  0.82842672  0.50200465  0.74629731  1
  Cu  Cu112  1  0.34004662  0.66320745  0.50608245  1
  Cu  Cu113  1  0.66580789  0.33282798  0.00235268  1
  Cu  Cu114  1  0.16147930  0.83106781  0.24323104  1
  Se  Se115  1  0.06898794  0.08537104  0.06281551  1
  Se  Se116  1  0.09212943  0.08979356  0.54284795  1
  Se  Se117  1  0.08975710  0.42096130  0.05854330  1
  Se  Se118  1  0.07192958  0.41074540  0.55837823  1
  Se  Se119  1  0.08570445  0.75883733  0.05069775  1
  Se  Se120  1  0.08047071  0.73488168  0.55175289  1
  Se  Se121  1  0.41926350  0.08525441  0.05592883  1
  Se  Se122  1  0.41701054  0.08560747  0.54825566  1
  Se  Se123  1  0.41803244  0.41457442  0.06331051  1
  Se  Se124  1  0.41305461  0.41791427  0.55291598  1
  Se  Se125  1  0.41218922  0.75673251  0.05690242  1
  Se  Se126  1  0.41897857  0.75222878  0.55708993  1
  Se  Se127  1  0.74037458  0.07362165  0.06627594  1
  Se  Se128  1  0.74569764  0.07856574  0.56200092  1
  Se  Se129  1  0.75307707  0.40938859  0.05629289  1
  Se  Se130  1  0.74797088  0.42065555  0.55011434  1
  Se  Se131  1  0.74639239  0.74709438  0.04477385  1
  Se  Se132  1  0.77909127  0.77949479  0.55586041  1
  Se  Se133  1  0.26001910  0.25958091  0.06330434  1
  Se  Se134  1  0.24636984  0.25173434  0.54868460  1
  Se  Se135  1  0.25404314  0.58200878  0.05367526  1
  Se  Se136  1  0.25383666  0.58431132  0.56248760  1
  Se  Se137  1  0.24424259  0.92161187  0.05350995  1
  Se  Se138  1  0.25983281  0.92395461  0.56204509  1
  Se  Se139  1  0.58239433  0.24857458  0.05334825  1
  Se  Se140  1  0.57888860  0.25232475  0.55041631  1
  Se  Se141  1  0.59565082  0.59514120  0.05812516  1
  Se  Se142  1  0.58573044  0.58815351  0.54943657  1
  Se  Se143  1  0.57824200  0.91594569  0.05554576  1
  Se  Se144  1  0.58555175  0.91684653  0.55299776  1
  Se  Se145  1  0.92737437  0.25859004  0.06534929  1
  Se  Se146  1  0.91652318  0.25946661  0.55811523  1
  Se  Se147  1  0.90740540  0.56650932  0.05165038  1
  Se  Se148  1  0.91785506  0.58252167  0.53776444  1
  Se  Se149  1  0.90968242  0.91227198  0.05450729  1
  Se  Se150  1  0.93517428  0.92646542  0.54987259  1
  Se  Se151  1  0.08143073  0.25073632  0.44287453  1
  Se  Se152  1  0.08384661  0.25738464  0.94226505  1
  Se  Se153  1  0.08084822  0.58953705  0.43753130  1
  Se  Se154  1  0.09453365  0.57707438  0.95807970  1
  Se  Se155  1  0.08519473  0.91696394  0.42887201  1
  Se  Se156  1  0.08005854  0.91606751  0.95149943  1
  Se  Se157  1  0.42114071  0.24742115  0.44225236  1
  Se  Se158  1  0.42230226  0.25162460  0.94794156  1
  Se  Se159  1  0.41945685  0.57638325  0.45308198  1
  Se  Se160  1  0.41085750  0.59146057  0.94207122  1
  Se  Se161  1  0.41787880  0.91287043  0.44719854  1
  Se  Se162  1  0.41423215  0.92024003  0.94822410  1
  Se  Se163  1  0.74416496  0.26236595  0.43659152  1
  Se  Se164  1  0.74710963  0.25143693  0.94040544  1
  Se  Se165  1  0.72614809  0.60620014  0.44890858  1
  Se  Se166  1  0.75187681  0.56210687  0.94785764  1
  Se  Se167  1  0.75601351  0.92131359  0.44716504  1
  Se  Se168  1  0.74824396  0.91261953  0.95234763  1
  Se  Se169  1  0.24908921  0.08375849  0.44201001  1
  Se  Se170  1  0.25861017  0.08160221  0.93756543  1
  Se  Se171  1  0.25773836  0.40894172  0.43517153  1
  Se  Se172  1  0.25425680  0.42049984  0.94873664  1
  Se  Se173  1  0.26155998  0.74207187  0.44287672  1
  Se  Se174  1  0.24858770  0.75670775  0.94744438  1
  Se  Se175  1  0.58111123  0.08623596  0.45016468  1
  Se  Se176  1  0.58254907  0.08671135  0.95036840  1
  Se  Se177  1  0.57793080  0.41933973  0.44201726  1
  Se  Se178  1  0.59091844  0.41308114  0.93812320  1
  Se  Se179  1  0.58673026  0.75259448  0.45805332  1
  Se  Se180  1  0.55991704  0.75360138  0.94943022  1
  Se  Se181  1  0.92444106  0.08238796  0.43343045  1
  Se  Se182  1  0.91457443  0.07532421  0.94281754  1
  Se  Se183  1  0.90980513  0.41993342  0.44205027  1
  Se  Se184  1  0.91671386  0.41044118  0.94932497  1
  Se  Se185  1  0.91926973  0.76256368  0.44635860  1
  Se  Se186  1  0.92927133  0.72624180  0.95389758  1
  Se  Se187  1  0.25470475  0.24954958  0.30295144  1
  Se  Se188  1  0.25061736  0.25735880  0.79937698  1
  Se  Se189  1  0.24409659  0.57539719  0.30930530  1
  Se  Se190  1  0.25084963  0.58838995  0.80774740  1
  Se  Se191  1  0.25141270  0.90687352  0.29734633  1
  Se  Se192  1  0.24621585  0.91262523  0.81409186  1
  Se  Se193  1  0.58370876  0.25045690  0.30015041  1
  Se  Se194  1  0.58388974  0.25466795  0.80222140  1
  Se  Se195  1  0.57807473  0.57847449  0.31047509  1
  Se  Se196  1  0.58704986  0.58772947  0.79689244  1
  Se  Se197  1  0.57979667  0.90452090  0.31605073  1
  Se  Se198  1  0.58022598  0.90963412  0.81204291  1
  Se  Se199  1  0.91203119  0.24732450  0.29657530  1
  Se  Se200  1  0.91245944  0.24167020  0.80838348  1
  Se  Se201  1  0.91260742  0.59294847  0.30906688  1
  Se  Se202  1  0.90616194  0.57735652  0.81152285  1
  Se  Se203  1  0.91843983  0.91587341  0.29492579  1
  Se  Se204  1  0.90855963  0.89189105  0.80809075  1
  Se  Se205  1  0.08638814  0.08160564  0.30134261  1
  Se  Se206  1  0.09559180  0.09528678  0.80381392  1
  Se  Se207  1  0.07797097  0.41511361  0.30281536  1
  Se  Se208  1  0.07956303  0.43747092  0.82274453  1
  Se  Se209  1  0.08070464  0.74321269  0.29383694  1
  Se  Se210  1  0.08645055  0.75192335  0.81488984  1
  Se  Se211  1  0.41693761  0.07730148  0.30598253  1
  Se  Se212  1  0.42256735  0.09079236  0.80861446  1
  Se  Se213  1  0.41575149  0.41375730  0.30058088  1
  Se  Se214  1  0.41803517  0.41983465  0.80215377  1
  Se  Se215  1  0.42758412  0.74247447  0.31523383  1
  Se  Se216  1  0.41519456  0.74677889  0.80039473  1
  Se  Se217  1  0.75402808  0.09121026  0.31332093  1
  Se  Se218  1  0.75532449  0.08493747  0.80937345  1
  Se  Se219  1  0.74936666  0.42809124  0.30284156  1
  Se  Se220  1  0.74776077  0.41302327  0.79698779  1
  Se  Se221  1  0.75775423  0.75228120  0.31253369  1
  Se  Se222  1  0.74725184  0.74793254  0.81531717  1
  Se  Se223  1  0.25521447  0.07847067  0.19680016  1
  Se  Se224  1  0.24720510  0.08819479  0.68239573  1
  Se  Se225  1  0.25137741  0.41345689  0.20104190  1
  Se  Se226  1  0.24447321  0.41747401  0.70187283  1
  Se  Se227  1  0.23958480  0.74826587  0.18206247  1
  Se  Se228  1  0.25119009  0.74556818  0.70406787  1
  Se  Se229  1  0.57485284  0.08445488  0.19094574  1
  Se  Se230  1  0.57240968  0.09242683  0.68975929  1
  Se  Se231  1  0.59377279  0.41511855  0.19640864  1
  Se  Se232  1  0.58453702  0.41822405  0.69184853  1
  Se  Se233  1  0.57560375  0.75880667  0.19498515  1
  Se  Se234  1  0.58851733  0.74513656  0.69178873  1
  Se  Se235  1  0.90840642  0.07784110  0.20578113  1
  Se  Se236  1  0.91042319  0.08219432  0.69059100  1
  Se  Se237  1  0.91805167  0.42006666  0.19866099  1
  Se  Se238  1  0.91451679  0.41746602  0.69368394  1
  Se  Se239  1  0.91795799  0.74595718  0.19031356  1
  Se  Se240  1  0.90921940  0.74190557  0.68248168  1
  Se  Se241  1  0.08558680  0.24860382  0.20204399  1
  Se  Se242  1  0.08278710  0.24427589  0.68380929  1
  Se  Se243  1  0.08179517  0.58364109  0.19492383  1
  Se  Se244  1  0.08603681  0.57104166  0.68949139  1
  Se  Se245  1  0.07836874  0.91962771  0.19444837  1
  Se  Se246  1  0.08634959  0.90602552  0.69343216  1
  Se  Se247  1  0.41681228  0.25284052  0.19857928  1
  Se  Se248  1  0.41177519  0.25885828  0.69279918  1
  Se  Se249  1  0.42662252  0.57629162  0.19123646  1
  Se  Se250  1  0.41585072  0.58495084  0.69489543  1
  Se  Se251  1  0.41300047  0.91235272  0.20226951  1
  Se  Se252  1  0.42785227  0.90987802  0.69343142  1
  Se  Se253  1  0.75614251  0.24031880  0.20173761  1
  Se  Se254  1  0.74551546  0.25221821  0.69933785  1
  Se  Se255  1  0.76278232  0.58695171  0.18409343  1
  Se  Se256  1  0.75296061  0.58519659  0.68672296  1
  Se  Se257  1  0.74635480  0.90502358  0.19191896  1
  Se  Se258  1  0.75772213  0.90259219  0.69508384  1
