# generated using pymatgen
data_In86Cu29Se144
_symmetry_space_group_name_H-M   'P 1'
_cell_length_a   17.58509204
_cell_length_b   17.58424029
_cell_length_c   23.44100684
_cell_angle_alpha   89.96829836
_cell_angle_beta   90.00781405
_cell_angle_gamma   90.00773579
_symmetry_Int_Tables_number   1
_chemical_formula_structural   In86Cu29Se144
_chemical_formula_sum   'In86 Cu29 Se144'
_cell_volume   7248.43823856
_cell_formula_units_Z   1
loop_
 _symmetry_equiv_pos_site_id
 _symmetry_equiv_pos_as_xyz
  1  'x, y, z'
loop_
 _atom_site_type_symbol
 _atom_site_label
 _atom_site_symmetry_multiplicity
 _atom_site_fract_x
 _atom_site_fract_y
 _atom_site_fract_z
 _atom_site_occupancy
  In  In0  1  0.00112712  0.18190306  0.12865952  1
  In  In1  1  -0.01039420  0.16330514  0.61791066  1
  In  In2  1  -0.01476822  0.49509593  0.12151780  1
  In  In3  1  -0.00328546  0.50459157  0.62386316  1
  In  In4  1  0.00752159  0.82793637  0.11847007  1
  In  In5  1  0.00311300  0.83450321  0.64327907  1
  In  In6  1  0.34555181  0.16372893  0.13001678  1
  In  In7  1  0.33932394  0.16856661  0.62347200  1
  In  In8  1  0.34786829  0.48933009  0.13072626  1
  In  In9  1  0.32116374  0.49767232  0.62367976  1
  In  In10  1  0.33110058  0.83839193  0.11313819  1
  In  In11  1  0.34237612  0.83694972  0.62900023  1
  In  In12  1  0.66386385  0.16051429  0.12363860  1
  In  In13  1  0.66901991  0.16423391  0.62374081  1
  In  In14  1  0.67205198  0.49484223  0.12949550  1
  In  In15  1  0.67265198  0.49304984  0.62930703  1
  In  In16  1  0.64582521  0.85556730  0.14188430  1
  In  In17  1  0.66152523  0.83456972  0.63839641  1
  In  In18  1  0.17946180  0.01474457  0.37557510  1
  In  In19  1  0.16614938  -0.00816549  0.86388651  1
  In  In20  1  0.15420961  0.31551357  0.35515684  1
  In  In21  1  0.17734001  0.32182569  0.87324489  1
  In  In22  1  0.16963083  0.66289646  0.37199935  1
  In  In23  1  0.17235657  0.69536098  0.86557528  1
  In  In24  1  0.51426542  0.00202151  0.36876523  1
  In  In25  1  0.50091955  0.00141052  0.87467235  1
  In  In26  1  0.48624601  0.31478727  0.36082450  1
  In  In27  1  0.49530898  0.31913704  0.87051210  1
  In  In28  1  0.49602916  0.66230563  0.36432490  1
  In  In29  1  0.51438749  0.67064988  0.87634152  1
  In  In30  1  0.83099609  0.01805740  0.37857208  1
  In  In31  1  0.84122145  0.01193345  0.87121756  1
  In  In32  1  0.83023854  0.33024294  0.37809574  1
  In  In33  1  0.82645361  0.34269873  0.88357541  1
  In  In34  1  0.82083695  0.65726122  0.37418071  1
  In  In35  1  0.82513203  0.66092100  0.87236398  1
  In  In36  1  -0.00725956  0.18331696  0.38995439  1
  In  In37  1  0.00019735  0.15461968  0.87282544  1
  In  In38  1  0.00201900  0.46978508  0.38350502  1
  In  In39  1  -0.01636549  0.49923461  0.87408438  1
  In  In40  1  0.00374668  0.82769822  0.37573499  1
  In  In41  1  0.01305518  0.84332742  0.85809091  1
  In  In42  1  0.32430591  0.17734350  0.38354072  1
  In  In43  1  0.34216240  0.16832660  0.87007593  1
  In  In44  1  0.33132345  0.50350676  0.36812629  1
  In  In45  1  0.34396150  0.49088059  0.87279635  1
  In  In46  1  0.34831181  0.82948545  0.36686156  1
  In  In47  1  0.32330589  0.85279853  0.89588734  1
  In  In48  1  0.66199871  0.17062816  0.37126824  1
  In  In49  1  0.66699884  0.16766032  0.87448774  1
  In  In50  1  0.67335950  0.49719479  0.37385118  1
  In  In51  1  0.67410810  0.50683413  0.87407947  1
  In  In52  1  0.65764933  0.82814035  0.36141206  1
  In  In53  1  0.65789266  0.83127438  0.87520045  1
  In  In54  1  0.19177437  0.00101498  0.11637601  1
  In  In55  1  0.15725532  0.00757173  0.63973448  1
  In  In56  1  0.17098903  0.31953278  0.14467444  1
  In  In57  1  0.17820581  0.33611715  0.62490088  1
  In  In58  1  0.16951233  0.68126990  0.11630134  1
  In  In59  1  0.15977982  0.65538276  0.62720007  1
  In  In60  1  0.49605623  0.01361046  0.11263529  1
  In  In61  1  0.49419609  0.00697366  0.63319811  1
  In  In62  1  0.52394688  0.30622837  0.14795008  1
  In  In63  1  0.51466922  0.32529159  0.62798235  1
  In  In64  1  0.48977443  0.68248126  0.13840644  1
  In  In65  1  0.50058343  0.68055772  0.62593954  1
  In  In66  1  0.81501434  0.00090435  0.12365515  1
  In  In67  1  0.82736269  0.00528664  0.63388264  1
  In  In68  1  0.82840087  0.32979110  0.12559668  1
  In  In69  1  0.82324668  0.31852318  0.61041598  1
  In  In70  1  0.83065548  0.65415124  0.11974291  1
  In  In71  1  0.83623981  0.66054400  0.62955109  1
  In  In72  1  0.15648983  0.50319458  0.00310008  1
  In  In73  1  0.33783539  0.00537446  0.24331998  1
  In  In74  1  0.16338330  0.16098970  -0.00125750  1
  In  In75  1  0.50094994  0.49696057  0.48915613  1
  In  In76  1  0.82923910  0.84159777  0.50810740  1
  In  In77  1  -0.00448515  0.66071498  0.24089042  1
  In  In78  1  0.16695855  0.84014221  0.50057032  1
  In  In79  1  0.49998364  0.84017706  0.50043802  1
  In  In80  1  0.82881483  0.82994717  -0.00260861  1
  In  In81  1  0.16551571  0.49559907  0.50132516  1
  In  In82  1  -0.00198559  0.33449657  0.74314498  1
  In  In83  1  -0.00016903  0.00476199  0.25468104  1
  In  In84  1  0.33678698  0.66642700  0.74984664  1
  In  In85  1  0.50753467  0.49612032  0.00187631  1
  Cu  Cu86  1  0.50120775  0.83532775  0.75720093  1
  Cu  Cu87  1  0.66164615  0.00752742  -0.00127331  1
  Cu  Cu88  1  0.82518121  0.83685719  0.24982280  1
  Cu  Cu89  1  0.00066174  -0.00127568  -0.00677115  1
  Cu  Cu90  1  0.66540278  0.32352990  0.49858328  1
  Cu  Cu91  1  0.82463674  0.50144718  0.75053947  1
  Cu  Cu92  1  0.00021998  0.67013867  -0.00836078  1
  Cu  Cu93  1  0.50355274  0.49258175  0.75143738  1
  Cu  Cu94  1  0.33571959  0.33477571  0.49776834  1
  Cu  Cu95  1  0.00396238  0.00992315  0.50676513  1
  Cu  Cu96  1  0.66618517  0.66116505  0.49840580  1
  Cu  Cu97  1  0.66948251  0.66689052  0.00287764  1
  Cu  Cu98  1  0.33883473  0.32883190  0.00262021  1
  Cu  Cu99  1  0.33844639  0.66907261  0.00449606  1
  Cu  Cu100  1  0.83712816  0.49125854  0.25216209  1
  Cu  Cu101  1  0.17374530  0.83561325  0.23914231  1
  Cu  Cu102  1  0.17796691  0.16515394  0.74957654  1
  Cu  Cu103  1  0.16992351  0.50524738  0.25000891  1
  Cu  Cu104  1  0.50908017  0.50322661  0.25185207  1
  Cu  Cu105  1  0.66630835  0.32733071  0.00534928  1
  Cu  Cu106  1  0.67173228  0.00756447  0.49876166  1
  Cu  Cu107  1  0.83309330  0.17034800  0.74688571  1
  Cu  Cu108  1  -0.00690012  0.66416140  0.50426691  1
  Cu  Cu109  1  -0.00781115  0.33417864  0.00437847  1
  Cu  Cu110  1  0.82759295  0.83352733  0.75732574  1
  Cu  Cu111  1  0.33476370  0.01133980  0.50425204  1
  Cu  Cu112  1  0.50627381  0.16584198  0.74887217  1
  Cu  Cu113  1  0.82732399  0.16866717  0.25324731  1
  Cu  Cu114  1  0.16449524  0.49798602  0.74844725  1
  Se  Se115  1  0.07415550  0.07403052  0.06377488  1
  Se  Se116  1  0.09221789  0.08662193  0.55994568  1
  Se  Se117  1  0.08273731  0.40210006  0.06507155  1
  Se  Se118  1  0.07471247  0.40671673  0.56009925  1
  Se  Se119  1  0.08464726  0.75320187  0.04313803  1
  Se  Se120  1  0.07456156  0.74714138  0.55962606  1
  Se  Se121  1  0.38095849  0.06516523  0.05466013  1
  Se  Se122  1  0.42682267  0.08708310  0.55492402  1
  Se  Se123  1  0.42608258  0.40015992  0.06219148  1
  Se  Se124  1  0.41460625  0.41429816  0.55936857  1
  Se  Se125  1  0.42509971  0.75195674  0.05390695  1
  Se  Se126  1  0.40550612  0.74426596  0.55253205  1
  Se  Se127  1  0.75011004  0.08746368  0.04945318  1
  Se  Se128  1  0.75785886  0.08347712  0.55528735  1
  Se  Se129  1  0.74855108  0.41568334  0.05490526  1
  Se  Se130  1  0.74147335  0.41474173  0.55106955  1
  Se  Se131  1  0.74081799  0.75281970  0.06633485  1
  Se  Se132  1  0.73719416  0.74612611  0.56167185  1
  Se  Se133  1  0.24994821  0.25421189  0.05978427  1
  Se  Se134  1  0.25460643  0.25233842  0.55459637  1
  Se  Se135  1  0.26140686  0.58158464  0.06058488  1
  Se  Se136  1  0.25672901  0.59596285  0.55253669  1
  Se  Se137  1  0.23945772  0.90653251  0.04274452  1
  Se  Se138  1  0.25698137  0.92670699  0.56276111  1
  Se  Se139  1  0.57780277  0.24651806  0.05559559  1
  Se  Se140  1  0.58213571  0.24163789  0.55236569  1
  Se  Se141  1  0.58708882  0.58938689  0.06481592  1
  Se  Se142  1  0.58202700  0.58631286  0.55972650  1
  Se  Se143  1  0.58407455  0.92060352  0.05411585  1
  Se  Se144  1  0.59363022  0.92509732  0.56062353  1
  Se  Se145  1  0.91208985  0.24609426  0.05528361  1
  Se  Se146  1  0.92557528  0.25605588  0.54825473  1
  Se  Se147  1  0.92159805  0.58684548  0.04813908  1
  Se  Se148  1  0.90909936  0.58000776  0.55390769  1
  Se  Se149  1  0.91940789  0.92336908  0.05832518  1
  Se  Se150  1  0.92925729  0.92272497  0.56554107  1
  Se  Se151  1  0.09623178  0.25700947  0.44506412  1
  Se  Se152  1  0.07346982  0.25867900  0.94123615  1
  Se  Se153  1  0.07332534  0.58936106  0.44000542  1
  Se  Se154  1  0.08190492  0.59004453  0.93156306  1
  Se  Se155  1  0.07524220  0.93072255  0.43957511  1
  Se  Se156  1  0.08230322  0.91768817  0.93869924  1
  Se  Se157  1  0.42219143  0.25018441  0.44826779  1
  Se  Se158  1  0.41806431  0.24478255  0.94712336  1
  Se  Se159  1  0.40687220  0.59421367  0.44141743  1
  Se  Se160  1  0.41342697  0.58792078  0.94227598  1
  Se  Se161  1  0.40830319  0.92964195  0.44015380  1
  Se  Se162  1  0.44133478  0.90355708  0.94559796  1
  Se  Se163  1  0.74920696  0.24090155  0.44475403  1
  Se  Se164  1  0.74982275  0.24860382  0.94662311  1
  Se  Se165  1  0.75049455  0.57636076  0.44985591  1
  Se  Se166  1  0.75165479  0.58285271  0.95027067  1
  Se  Se167  1  0.74012552  0.91792629  0.43748867  1
  Se  Se168  1  0.74504988  0.92763888  0.93911071  1
  Se  Se169  1  0.24580323  0.09178440  0.45426080  1
  Se  Se170  1  0.25135968  0.07906086  0.93401972  1
  Se  Se171  1  0.25385954  0.41163536  0.43680239  1
  Se  Se172  1  0.25607438  0.41148420  0.94689688  1
  Se  Se173  1  0.25467773  0.75149347  0.43805778  1
  Se  Se174  1  0.24971035  0.74617254  0.95106595  1
  Se  Se175  1  0.58419866  0.08388962  0.44391458  1
  Se  Se176  1  0.57913936  0.09050518  0.94400573  1
  Se  Se177  1  0.58603689  0.39998979  0.43411146  1
  Se  Se178  1  0.59082053  0.40572423  0.93805246  1
  Se  Se179  1  0.58551900  0.74259922  0.44096056  1
  Se  Se180  1  0.58582293  0.75115640  0.95207144  1
  Se  Se181  1  0.91575459  0.08607245  0.45222451  1
  Se  Se182  1  0.91606901  0.08790342  0.94901775  1
  Se  Se183  1  0.90379372  0.41604203  0.45136593  1
  Se  Se184  1  0.91372391  0.42196309  0.95211272  1
  Se  Se185  1  0.91505598  0.74706868  0.44395032  1
  Se  Se186  1  0.92152936  0.75199305  0.93184266  1
  Se  Se187  1  0.26869182  0.26019345  0.30187244  1
  Se  Se188  1  0.25995153  0.25233572  0.79978436  1
  Se  Se189  1  0.25247795  0.59180154  0.29899298  1
  Se  Se190  1  0.24473208  0.57606579  0.81235315  1
  Se  Se191  1  0.24491423  0.91264235  0.30702053  1
  Se  Se192  1  0.25472749  0.90228100  0.80657719  1
  Se  Se193  1  0.58452980  0.24838458  0.29671025  1
  Se  Se194  1  0.58885411  0.25123003  0.80157866  1
  Se  Se195  1  0.59331332  0.58413320  0.30588401  1
  Se  Se196  1  0.58183302  0.57989775  0.80550610  1
  Se  Se197  1  0.56897540  0.90585112  0.29760740  1
  Se  Se198  1  0.58791353  0.92167268  0.80436561  1
  Se  Se199  1  0.91374340  0.24609338  0.30847562  1
  Se  Se200  1  0.91221479  0.24932990  0.81034664  1
  Se  Se201  1  0.91866815  0.57369487  0.31165309  1
  Se  Se202  1  0.91192031  0.58312605  0.80138222  1
  Se  Se203  1  0.90837741  0.90938073  0.31330648  1
  Se  Se204  1  0.91421826  0.92256658  0.80126140  1
  Se  Se205  1  0.08445088  0.09556956  0.31498339  1
  Se  Se206  1  0.08768323  0.08653674  0.80082339  1
  Se  Se207  1  0.08228498  0.42151107  0.29861449  1
  Se  Se208  1  0.08802518  0.41737467  0.81231471  1
  Se  Se209  1  0.08954336  0.75602019  0.29859674  1
  Se  Se210  1  0.07139420  0.73753509  0.79460051  1
  Se  Se211  1  0.41519024  0.08978743  0.31462617  1
  Se  Se212  1  0.42099923  0.08265949  0.80150418  1
  Se  Se213  1  0.42071979  0.42354271  0.30400229  1
  Se  Se214  1  0.41739719  0.40881100  0.80110800  1
  Se  Se215  1  0.42146372  0.74930410  0.29523772  1
  Se  Se216  1  0.41855348  0.75453828  0.81591761  1
  Se  Se217  1  0.74503934  0.08132237  0.30357600  1
  Se  Se218  1  0.75141341  0.08755561  0.80350713  1
  Se  Se219  1  0.75050136  0.41047559  0.30453090  1
  Se  Se220  1  0.74841448  0.41450986  0.80625672  1
  Se  Se221  1  0.75188175  0.74505309  0.30260817  1
  Se  Se222  1  0.74288639  0.74865786  0.80762630  1
  Se  Se223  1  0.23602847  0.09630433  0.19526241  1
  Se  Se224  1  0.26132593  0.08286084  0.69521978  1
  Se  Se225  1  0.25247006  0.41953486  0.19810448  1
  Se  Se226  1  0.25281086  0.41627251  0.70024074  1
  Se  Se227  1  0.25632952  0.75207332  0.18748123  1
  Se  Se228  1  0.24385754  0.75157379  0.68831124  1
  Se  Se229  1  0.56440083  0.09348110  0.18893553  1
  Se  Se230  1  0.59034138  0.08156196  0.69613814  1
  Se  Se231  1  0.59113950  0.41621901  0.20151553  1
  Se  Se232  1  0.58932858  0.41209584  0.69828884  1
  Se  Se233  1  0.60742233  0.73180402  0.19206691  1
  Se  Se234  1  0.58023203  0.74613299  0.70417053  1
  Se  Se235  1  0.90690995  0.08777210  0.19081415  1
  Se  Se236  1  0.92020363  0.08645326  0.69704964  1
  Se  Se237  1  0.91723253  0.40980271  0.19491445  1
  Se  Se238  1  0.90120916  0.42025514  0.68721431  1
  Se  Se239  1  0.90635526  0.76096615  0.18749971  1
  Se  Se240  1  0.90767186  0.75105410  0.69920277  1
  Se  Se241  1  0.07455521  0.24942554  0.20788918  1
  Se  Se242  1  0.09230494  0.24261736  0.68965518  1
  Se  Se243  1  0.09191831  0.57687384  0.18110126  1
  Se  Se244  1  0.07727878  0.57920344  0.69882031  1
  Se  Se245  1  0.08906038  0.91916031  0.18688627  1
  Se  Se246  1  0.09293277  0.91091603  0.70650983  1
  Se  Se247  1  0.39971271  0.26504529  0.19759898  1
  Se  Se248  1  0.42261489  0.24982340  0.69418893  1
  Se  Se249  1  0.41914329  0.58099259  0.19897083  1
  Se  Se250  1  0.42514016  0.57337012  0.68826273  1
  Se  Se251  1  0.42287107  0.91309742  0.18434668  1
  Se  Se252  1  0.41852286  0.91661259  0.70122223  1
  Se  Se253  1  0.74539679  0.24619326  0.19325898  1
  Se  Se254  1  0.75001247  0.25211597  0.69243280  1
  Se  Se255  1  0.75863634  0.57841547  0.19730348  1
  Se  Se256  1  0.74304240  0.58754974  0.69694174  1
  Se  Se257  1  0.74475556  0.92881983  0.20397598  1
  Se  Se258  1  0.74796721  0.91871451  0.70137577  1
