# generated using pymatgen
data_In86Cu29Se144
_symmetry_space_group_name_H-M   'P 1'
_cell_length_a   17.58463864
_cell_length_b   17.58130418
_cell_length_c   23.44751273
_cell_angle_alpha   90.01055940
_cell_angle_beta   90.01788419
_cell_angle_gamma   89.99264189
_symmetry_Int_Tables_number   1
_chemical_formula_structural   In86Cu29Se144
_chemical_formula_sum   'In86 Cu29 Se144'
_cell_volume   7249.05315353
_cell_formula_units_Z   1
loop_
 _symmetry_equiv_pos_site_id
 _symmetry_equiv_pos_as_xyz
  1  'x, y, z'
loop_
 _atom_site_type_symbol
 _atom_site_label
 _atom_site_symmetry_multiplicity
 _atom_site_fract_x
 _atom_site_fract_y
 _atom_site_fract_z
 _atom_site_occupancy
  In  In0  1  -0.01209470  0.16653939  0.12181157  1
  In  In1  1  -0.00952870  0.16761838  0.62526051  1
  In  In2  1  0.01222807  0.50793863  0.12484798  1
  In  In3  1  0.00981922  0.51087031  0.61853718  1
  In  In4  1  -0.00881161  0.82295710  0.11324483  1
  In  In5  1  0.00150600  0.83079693  0.62614075  1
  In  In6  1  0.35158808  0.16911136  0.12266256  1
  In  In7  1  0.34824932  0.16366790  0.62443888  1
  In  In8  1  0.34623458  0.49436124  0.13902415  1
  In  In9  1  0.33469516  0.50281672  0.62386697  1
  In  In10  1  0.31765600  0.82573957  0.12045632  1
  In  In11  1  0.32866774  0.83006510  0.62106773  1
  In  In12  1  0.62855410  0.20014545  0.16353870  1
  In  In13  1  0.66602895  0.16583776  0.61621841  1
  In  In14  1  0.65005605  0.50158427  0.13236350  1
  In  In15  1  0.67532292  0.51200088  0.61487617  1
  In  In16  1  0.68120063  0.83346101  0.12793803  1
  In  In17  1  0.65255925  0.81520704  0.61534180  1
  In  In18  1  0.15931359  -0.00500441  0.37901453  1
  In  In19  1  0.14976866  -0.00259604  0.86688257  1
  In  In20  1  0.18699828  0.34190946  0.37168142  1
  In  In21  1  0.18082013  0.32145044  0.87187374  1
  In  In22  1  0.16701588  0.66580285  0.38009360  1
  In  In23  1  0.17068033  0.67310155  0.87284345  1
  In  In24  1  0.50675668  -0.00467721  0.37691579  1
  In  In25  1  0.51080142  -0.00089261  0.88107631  1
  In  In26  1  0.50029262  0.33746823  0.37517939  1
  In  In27  1  0.48807867  0.34660313  0.88488664  1
  In  In28  1  0.49325247  0.66655889  0.37762570  1
  In  In29  1  0.48335853  0.65116810  0.86019445  1
  In  In30  1  0.82293826  0.00885343  0.38687925  1
  In  In31  1  0.83373049  -0.01896923  0.87561537  1
  In  In32  1  0.81970185  0.34235606  0.38079643  1
  In  In33  1  0.83050730  0.34158950  0.87442096  1
  In  In34  1  0.83940058  0.66041118  0.38197744  1
  In  In35  1  0.84959427  0.68417935  0.86034501  1
  In  In36  1  -0.00180184  0.15670916  0.37859376  1
  In  In37  1  0.01726987  0.16108248  0.86911690  1
  In  In38  1  -0.01108875  0.51192348  0.38195105  1
  In  In39  1  -0.00609834  0.51032086  0.87245555  1
  In  In40  1  0.01042722  0.82183084  0.38696434  1
  In  In41  1  -0.00232553  0.82752430  0.87350627  1
  In  In42  1  0.34651609  0.18729937  0.36680683  1
  In  In43  1  0.33306820  0.18030756  0.87202318  1
  In  In44  1  0.33449518  0.50008944  0.38073355  1
  In  In45  1  0.34331568  0.51095533  0.86763241  1
  In  In46  1  0.34153450  0.82126647  0.38354968  1
  In  In47  1  0.32767208  0.79688294  0.87187568  1
  In  In48  1  0.66005024  0.17058623  0.37475929  1
  In  In49  1  0.66093270  0.15440150  0.87826951  1
  In  In50  1  0.66518436  0.49663546  0.37728145  1
  In  In51  1  0.64936334  0.49936827  0.87810781  1
  In  In52  1  0.66044290  0.84049982  0.38155924  1
  In  In53  1  0.67748708  0.83402524  0.87557708  1
  In  In54  1  0.17048642  -0.01647338  0.12035250  1
  In  In55  1  0.16998871  -0.01460194  0.62527900  1
  In  In56  1  0.17523885  0.35389596  0.12444008  1
  In  In57  1  0.16722024  0.34953942  0.62309083  1
  In  In58  1  0.16175987  0.67114856  0.13174909  1
  In  In59  1  0.16858805  0.66733097  0.62703769  1
  In  In60  1  0.49870299  0.01336856  0.12947251  1
  In  In61  1  0.49886805  -0.00122202  0.61524583  1
  In  In62  1  0.49468811  0.33567632  0.13057274  1
  In  In63  1  0.49345600  0.32896316  0.61850493  1
  In  In64  1  0.49643171  0.65127695  0.12482786  1
  In  In65  1  0.50009008  0.66827289  0.62533435  1
  In  In66  1  0.82898121  -0.00815122  0.12620924  1
  In  In67  1  0.83910965  0.00238554  0.62066983  1
  In  In68  1  0.82819089  0.32134038  0.12703870  1
  In  In69  1  0.83219003  0.33336339  0.61350072  1
  In  In70  1  0.83448236  0.68165519  0.12339945  1
  In  In71  1  0.83286718  0.67061557  0.62219642  1
  In  In72  1  0.82610715  0.16113562  0.00393982  1
  In  In73  1  0.16753200  0.16193964  -0.00905766  1
  In  In74  1  0.34042835  -0.00109404  0.25510795  1
  In  In75  1  0.65856548  0.66434799  0.25903396  1
  In  In76  1  0.17121523  0.16773890  0.49356332  1
  In  In77  1  0.66228469  0.33558435  0.74686775  1
  In  In78  1  0.82969267  0.50648242  0.00088401  1
  In  In79  1  0.00559270  0.33986270  0.74892813  1
  In  In80  1  0.33207510  -0.00311542  0.74339388  1
  In  In81  1  0.00024514  0.33833386  0.24584791  1
  In  In82  1  0.16971532  0.50886424  -0.00352182  1
  In  In83  1  -0.00249388  -0.00736192  0.25584598  1
  In  In84  1  0.66755327  -0.00794414  0.74967783  1
  In  In85  1  0.49885950  0.82681415  -0.00341365  1
  Cu  Cu86  1  0.84136488  0.16215088  0.74552418  1
  Cu  Cu87  1  0.67139070  -0.00110702  0.49917697  1
  Cu  Cu88  1  0.17308418  0.50436635  0.74575931  1
  Cu  Cu89  1  0.17421052  0.16898006  0.24095663  1
  Cu  Cu90  1  0.17018172  0.50860958  0.25444164  1
  Cu  Cu91  1  0.49605534  0.50191419  0.74720923  1
  Cu  Cu92  1  0.66320409  0.00562384  0.00799447  1
  Cu  Cu93  1  0.83467558  0.50862257  0.25558748  1
  Cu  Cu94  1  0.83591635  0.83185527  0.74603781  1
  Cu  Cu95  1  0.33935372  0.33223722  0.00272175  1
  Cu  Cu96  1  0.65662268  0.32980778  0.00737772  1
  Cu  Cu97  1  0.82609906  0.16672833  0.26125650  1
  Cu  Cu98  1  0.49817576  0.83195175  0.25462290  1
  Cu  Cu99  1  0.16668000  0.82314052  0.25349377  1
  Cu  Cu100  1  0.33745772  0.33900900  0.49745934  1
  Cu  Cu101  1  -0.00063615  -0.00537470  0.50174701  1
  Cu  Cu102  1  0.00068501  0.66518234  0.50587926  1
  Cu  Cu103  1  0.33560504  -0.00679508  -0.00017606  1
  Cu  Cu104  1  0.66172598  0.33072517  0.49606962  1
  Cu  Cu105  1  -0.00166921  0.33566220  0.49846226  1
  Cu  Cu106  1  0.66743399  0.66488499  -0.00059705  1
  Cu  Cu107  1  0.33870375  0.00127493  0.49795280  1
  Cu  Cu108  1  0.49828062  0.17166725  0.74997526  1
  Cu  Cu109  1  0.66386937  0.66655977  0.49696015  1
  Cu  Cu110  1  -0.00258056  -0.00671244  -0.00392193  1
  Cu  Cu111  1  0.32969630  0.66580024  0.50327238  1
  Cu  Cu112  1  0.16543851  0.82882509  0.74830273  1
  Cu  Cu113  1  0.83906229  0.83276368  0.25218858  1
  Cu  Cu114  1  0.83248641  0.51152753  0.74164111  1
  Se  Se115  1  0.07544829  0.07488230  0.05759470  1
  Se  Se116  1  0.08315105  0.08011025  0.55792366  1
  Se  Se117  1  0.07623600  0.41142163  0.05247048  1
  Se  Se118  1  0.08298654  0.41905798  0.54971390  1
  Se  Se119  1  0.09898635  0.76002703  0.05717696  1
  Se  Se120  1  0.08582177  0.74967555  0.55700097  1
  Se  Se121  1  0.41730855  0.07877644  0.05040207  1
  Se  Se122  1  0.42169717  0.08793883  0.54773516  1
  Se  Se123  1  0.41570449  0.41817229  0.05876279  1
  Se  Se124  1  0.41896044  0.42219056  0.55304113  1
  Se  Se125  1  0.41009764  0.73884307  0.05763238  1
  Se  Se126  1  0.41616445  0.74978888  0.55430778  1
  Se  Se127  1  0.73700415  0.08611348  0.07152259  1
  Se  Se128  1  0.75387061  0.08383359  0.55274615  1
  Se  Se129  1  0.74305390  0.41094146  0.06165937  1
  Se  Se130  1  0.74618351  0.41556413  0.54901623  1
  Se  Se131  1  0.74868375  0.75212844  0.05010895  1
  Se  Se132  1  0.75076174  0.74903367  0.54897960  1
  Se  Se133  1  0.25162539  0.25310085  0.05821784  1
  Se  Se134  1  0.25717509  0.25541648  0.55810075  1
  Se  Se135  1  0.25452730  0.57992380  0.07057109  1
  Se  Se136  1  0.24610993  0.58186209  0.55616222  1
  Se  Se137  1  0.24719344  0.90931182  0.04490022  1
  Se  Se138  1  0.25376043  0.91877392  0.54997676  1
  Se  Se139  1  0.57993838  0.24548335  0.06454474  1
  Se  Se140  1  0.57987427  0.24762227  0.55162266  1
  Se  Se141  1  0.58564425  0.58187523  0.05297629  1
  Se  Se142  1  0.57902041  0.58573682  0.55176319  1
  Se  Se143  1  0.58417236  0.91671335  0.06292844  1
  Se  Se144  1  0.58514393  0.91606513  0.55080143  1
  Se  Se145  1  0.92295805  0.26133519  0.05014205  1
  Se  Se146  1  0.91842687  0.24771950  0.54987512  1
  Se  Se147  1  0.92478609  0.59422889  0.05781087  1
  Se  Se148  1  0.91190207  0.58072785  0.55404878  1
  Se  Se149  1  0.91076374  0.91823057  0.05277809  1
  Se  Se150  1  0.91706743  0.91126538  0.55525291  1
  Se  Se151  1  0.08046605  0.26093616  0.43448717  1
  Se  Se152  1  0.07555868  0.26126681  0.94122250  1
  Se  Se153  1  0.08266549  0.58294110  0.44922023  1
  Se  Se154  1  0.07150754  0.59662088  0.94331791  1
  Se  Se155  1  0.08852641  0.91366607  0.45310592  1
  Se  Se156  1  0.08199563  0.91403673  0.94175794  1
  Se  Se157  1  0.42071417  0.25130584  0.44842117  1
  Se  Se158  1  0.41827851  0.24537500  0.94824522  1
  Se  Se159  1  0.41564600  0.58430173  0.45010453  1
  Se  Se160  1  0.42078963  0.58198282  0.94391301  1
  Se  Se161  1  0.42091198  0.91515515  0.44525503  1
  Se  Se162  1  0.40796916  0.91324455  0.93340326  1
  Se  Se163  1  0.74865599  0.24667679  0.44608783  1
  Se  Se164  1  0.73876713  0.25871252  0.94171445  1
  Se  Se165  1  0.74753096  0.58103472  0.44522944  1
  Se  Se166  1  0.74639501  0.59043179  0.93296600  1
  Se  Se167  1  0.75427881  0.90957299  0.45085585  1
  Se  Se168  1  0.74289124  0.92247185  0.95072420  1
  Se  Se169  1  0.26371406  0.08072518  0.43216259  1
  Se  Se170  1  0.25834979  0.07126542  0.93316648  1
  Se  Se171  1  0.24641619  0.42162942  0.45245511  1
  Se  Se172  1  0.25955489  0.41134280  0.94090694  1
  Se  Se173  1  0.24654920  0.75176606  0.45051933  1
  Se  Se174  1  0.25112738  0.73708174  0.95260958  1
  Se  Se175  1  0.58590263  0.08113060  0.44580941  1
  Se  Se176  1  0.57899796  0.08707950  0.95441075  1
  Se  Se177  1  0.57972557  0.41985380  0.44774163  1
  Se  Se178  1  0.57920435  0.41856858  0.95395764  1
  Se  Se179  1  0.57904010  0.74957880  0.44422827  1
  Se  Se180  1  0.58831216  0.74053255  0.93476616  1
  Se  Se181  1  0.91809043  0.08389621  0.45223435  1
  Se  Se182  1  0.92158909  0.08070109  0.93773996  1
  Se  Se183  1  0.91261763  0.41830976  0.44612541  1
  Se  Se184  1  0.92321725  0.41368620  0.94303519  1
  Se  Se185  1  0.91615748  0.74771673  0.45169999  1
  Se  Se186  1  0.90618506  0.75719697  0.94390519  1
  Se  Se187  1  0.25092486  0.25221662  0.29758761  1
  Se  Se188  1  0.25027148  0.24429852  0.79613717  1
  Se  Se189  1  0.25351954  0.58708490  0.31134633  1
  Se  Se190  1  0.25143552  0.58833927  0.80342395  1
  Se  Se191  1  0.24457430  0.90918906  0.31112182  1
  Se  Se192  1  0.24806504  0.90722145  0.80982991  1
  Se  Se193  1  0.58893495  0.26101370  0.30598435  1
  Se  Se194  1  0.57785750  0.24784475  0.81353552  1
  Se  Se195  1  0.56641089  0.56862320  0.30800329  1
  Se  Se196  1  0.58604354  0.58007850  0.79911179  1
  Se  Se197  1  0.58454012  0.91419606  0.30354243  1
  Se  Se198  1  0.57463451  0.90539052  0.80814545  1
  Se  Se199  1  0.91562518  0.24816596  0.31245713  1
  Se  Se200  1  0.91139883  0.24769476  0.80869926  1
  Se  Se201  1  0.92041901  0.59178850  0.30369553  1
  Se  Se202  1  0.92191335  0.58684037  0.79586581  1
  Se  Se203  1  0.91111663  0.90934139  0.32122175  1
  Se  Se204  1  0.91852756  0.91424045  0.80157604  1
  Se  Se205  1  0.09507160  0.09202876  0.30353321  1
  Se  Se206  1  0.08770667  0.08584873  0.79332270  1
  Se  Se207  1  0.08534905  0.42517758  0.31148799  1
  Se  Se208  1  0.09628065  0.42690909  0.81246614  1
  Se  Se209  1  0.08063923  0.74528477  0.30862529  1
  Se  Se210  1  0.08154921  0.74709220  0.80325082  1
  Se  Se211  1  0.43300528  0.09286487  0.30575432  1
  Se  Se212  1  0.42472083  0.08324053  0.80883649  1
  Se  Se213  1  0.39280088  0.39819350  0.31371885  1
  Se  Se214  1  0.41759712  0.41432067  0.80229073  1
  Se  Se215  1  0.41412697  0.74798053  0.30432053  1
  Se  Se216  1  0.42134165  0.75308850  0.79578753  1
  Se  Se217  1  0.74491857  0.07932718  0.31008287  1
  Se  Se218  1  0.75945769  0.08707138  0.80854941  1
  Se  Se219  1  0.75064594  0.42288941  0.30375957  1
  Se  Se220  1  0.75493714  0.43026034  0.80362622  1
  Se  Se221  1  0.75519503  0.75440729  0.31294465  1
  Se  Se222  1  0.74707500  0.75266117  0.79870670  1
  Se  Se223  1  0.24879625  0.08047968  0.18538748  1
  Se  Se224  1  0.24401671  0.09062637  0.68606537  1
  Se  Se225  1  0.25030834  0.41848071  0.20426908  1
  Se  Se226  1  0.25451714  0.41751261  0.69565273  1
  Se  Se227  1  0.25472436  0.74567397  0.20027297  1
  Se  Se228  1  0.25359168  0.74997933  0.69574938  1
  Se  Se229  1  0.59480259  0.06721406  0.20068081  1
  Se  Se230  1  0.57870454  0.08946282  0.69195194  1
  Se  Se231  1  0.58928723  0.40584864  0.19947057  1
  Se  Se232  1  0.57820051  0.42561599  0.68448261  1
  Se  Se233  1  0.57905566  0.75523827  0.18988581  1
  Se  Se234  1  0.58570668  0.74546737  0.69608664  1
  Se  Se235  1  0.90791734  0.09044263  0.19880008  1
  Se  Se236  1  0.92243963  0.07585592  0.69591801  1
  Se  Se237  1  0.90703014  0.42871380  0.18720642  1
  Se  Se238  1  0.91056394  0.42210220  0.68669819  1
  Se  Se239  1  0.92084145  0.75299271  0.19624224  1
  Se  Se240  1  0.91899142  0.74606242  0.69407630  1
  Se  Se241  1  0.08930037  0.24542085  0.18316251  1
  Se  Se242  1  0.08944948  0.24881180  0.68641948  1
  Se  Se243  1  0.08138119  0.58594215  0.20172683  1
  Se  Se244  1  0.08327667  0.58466771  0.69662625  1
  Se  Se245  1  0.08650026  0.90546399  0.19372953  1
  Se  Se246  1  0.08333014  0.91506731  0.69702010  1
  Se  Se247  1  0.41557858  0.24789485  0.19902967  1
  Se  Se248  1  0.41647471  0.25409857  0.69616152  1
  Se  Se249  1  0.42100343  0.58707791  0.20437004  1
  Se  Se250  1  0.41360493  0.58688203  0.69454083  1
  Se  Se251  1  0.41855592  0.90574487  0.18721467  1
  Se  Se252  1  0.42770127  0.90976150  0.68836156  1
  Se  Se253  1  0.75223954  0.25765427  0.20747823  1
  Se  Se254  1  0.75752865  0.24349470  0.69077734  1
  Se  Se255  1  0.75396372  0.58565062  0.19105885  1
  Se  Se256  1  0.74431549  0.59186595  0.69212981  1
  Se  Se257  1  0.75282728  0.91629421  0.20282821  1
  Se  Se258  1  0.75299255  0.90760804  0.68424813  1
