# generated using pymatgen
data_In86Cu29Se144
_symmetry_space_group_name_H-M   'P 1'
_cell_length_a   17.63452271
_cell_length_b   17.63219920
_cell_length_c   23.48798928
_cell_angle_alpha   89.99606283
_cell_angle_beta   89.97739852
_cell_angle_gamma   90.06840744
_symmetry_Int_Tables_number   1
_chemical_formula_structural   In86Cu29Se144
_chemical_formula_sum   'In86 Cu29 Se144'
_cell_volume   7303.24195133
_cell_formula_units_Z   1
loop_
 _symmetry_equiv_pos_site_id
 _symmetry_equiv_pos_as_xyz
  1  'x, y, z'
loop_
 _atom_site_type_symbol
 _atom_site_label
 _atom_site_symmetry_multiplicity
 _atom_site_fract_x
 _atom_site_fract_y
 _atom_site_fract_z
 _atom_site_occupancy
  In  In0  1  -0.00079688  0.17431990  0.12689443  1
  In  In1  1  0.00880699  0.15993394  0.63309630  1
  In  In2  1  0.00484813  0.49579940  0.12546040  1
  In  In3  1  -0.00542066  0.49011229  0.61661818  1
  In  In4  1  0.03248688  0.82458281  0.15352136  1
  In  In5  1  0.00943718  0.84305433  0.62524770  1
  In  In6  1  0.32044090  0.15791285  0.10997439  1
  In  In7  1  0.33116597  0.16565043  0.61592512  1
  In  In8  1  0.32791880  0.51256794  0.12991065  1
  In  In9  1  0.32562339  0.51100868  0.62524657  1
  In  In10  1  0.27619849  0.86113381  0.17753435  1
  In  In11  1  0.32785023  0.82125676  0.62248148  1
  In  In12  1  0.66698405  0.16270986  0.12342118  1
  In  In13  1  0.65342345  0.15314592  0.62168736  1
  In  In14  1  0.66357450  0.48386862  0.12613098  1
  In  In15  1  0.67648007  0.48911086  0.62290072  1
  In  In16  1  0.67473911  0.84208908  0.12370291  1
  In  In17  1  0.66482091  0.85307345  0.62591046  1
  In  In18  1  0.17967195  -0.00204554  0.36063436  1
  In  In19  1  0.15573810  0.01331090  0.88670282  1
  In  In20  1  0.15837857  0.33701830  0.37267139  1
  In  In21  1  0.16263109  0.34464836  0.88673384  1
  In  In22  1  0.14601061  0.65377235  0.34624886  1
  In  In23  1  0.17425577  0.66343694  0.88222824  1
  In  In24  1  0.49680108  -0.00276105  0.37499853  1
  In  In25  1  0.50804739  0.00292848  0.87175946  1
  In  In26  1  0.49340385  0.31718908  0.37410569  1
  In  In27  1  0.49475185  0.32060299  0.87763324  1
  In  In28  1  0.49921582  0.67689031  0.38101970  1
  In  In29  1  0.49007370  0.68440029  0.87092077  1
  In  In30  1  0.83744240  0.01342024  0.36669991  1
  In  In31  1  0.84117636  0.01332783  0.87200839  1
  In  In32  1  0.85001588  0.33805547  0.36499238  1
  In  In33  1  0.84471893  0.32015861  0.88488373  1
  In  In34  1  0.83764543  0.65247969  0.37555961  1
  In  In35  1  0.83445071  0.65978164  0.88196458  1
  In  In36  1  0.01428018  0.16336090  0.36272376  1
  In  In37  1  -0.00131718  0.16830228  0.87810523  1
  In  In38  1  0.00203436  0.49567997  0.36801860  1
  In  In39  1  0.00997321  0.49237914  0.88571197  1
  In  In40  1  0.01264120  0.83937453  0.35937053  1
  In  In41  1  0.00092562  0.85491397  0.87919527  1
  In  In42  1  0.34106926  0.15972425  0.37738702  1
  In  In43  1  0.33229220  0.16896220  0.89537139  1
  In  In44  1  0.30373574  0.49834959  0.36209802  1
  In  In45  1  0.31854066  0.50365544  0.87811919  1
  In  In46  1  0.33553611  0.83442102  0.36450425  1
  In  In47  1  0.33397859  0.82442163  0.87291877  1
  In  In48  1  0.65760935  0.15724616  0.36862011  1
  In  In49  1  0.66967173  0.16702240  0.87834602  1
  In  In50  1  0.68571201  0.49578877  0.37689996  1
  In  In51  1  0.67786345  0.50457382  0.87696113  1
  In  In52  1  0.65299736  0.83522040  0.38075277  1
  In  In53  1  0.65875540  0.84632071  0.87412831  1
  In  In54  1  0.16379297  0.02035672  0.13126709  1
  In  In55  1  0.15397659  0.00990036  0.62653126  1
  In  In56  1  0.16044483  0.32274286  0.12262153  1
  In  In57  1  0.15549244  0.32014190  0.61838417  1
  In  In58  1  0.16605314  0.66009552  0.12583183  1
  In  In59  1  0.17417447  0.66721276  0.62184364  1
  In  In60  1  0.48489743  0.00631422  0.13204426  1
  In  In61  1  0.50553120  0.00870276  0.61860612  1
  In  In62  1  0.51507479  0.32911149  0.12891913  1
  In  In63  1  0.50501330  0.32155004  0.62115620  1
  In  In64  1  0.48511130  0.67037724  0.12360395  1
  In  In65  1  0.48384034  0.66710149  0.62280823  1
  In  In66  1  0.83148935  0.00262171  0.12822472  1
  In  In67  1  0.83441247  -0.00025819  0.62893155  1
  In  In68  1  0.83275395  0.33138179  0.12387453  1
  In  In69  1  0.83684488  0.34169904  0.62243257  1
  In  In70  1  0.85776889  0.66300251  0.12804788  1
  In  In71  1  0.84635894  0.65963641  0.62023133  1
  In  In72  1  0.84089454  0.17145658  0.48536198  1
  In  In73  1  0.49510924  0.49583391  0.50321840  1
  In  In74  1  0.32597748  0.32773139  0.24315091  1
  In  In75  1  0.66370696  0.67247600  0.75214754  1
  In  In76  1  0.49486458  0.49257059  -0.00172794  1
  In  In77  1  0.66913487  0.33011726  0.74857514  1
  In  In78  1  0.84370611  0.83522605  0.00664028  1
  In  In79  1  0.83801645  0.83115785  0.50307260  1
  In  In80  1  0.33969794  -0.00231872  0.75223494  1
  In  In81  1  0.66540083  0.66326661  0.25551308  1
  In  In82  1  0.00474267  0.67362487  0.74696525  1
  In  In83  1  0.49585632  0.83319418  -0.00493013  1
  In  In84  1  0.33027895  0.33148434  0.75130611  1
  In  In85  1  0.17587489  0.83007166  0.48933630  1
  Cu  Cu86  1  0.82528653  0.83880868  0.25029161  1
  Cu  Cu87  1  0.16300892  0.16997709  0.75610596  1
  Cu  Cu88  1  0.83210853  0.16737709  0.75371787  1
  Cu  Cu89  1  0.50426137  0.49127287  0.25144627  1
  Cu  Cu90  1  0.83674973  0.49711693  0.24743999  1
  Cu  Cu91  1  0.66720485  0.66609385  0.49752161  1
  Cu  Cu92  1  0.50086559  0.15980367  0.25093698  1
  Cu  Cu93  1  0.66513098  0.00320735  0.49595021  1
  Cu  Cu94  1  0.50663504  0.83566883  0.25278509  1
  Cu  Cu95  1  0.01142872  0.66829875  0.01000606  1
  Cu  Cu96  1  0.00109913  0.33475241  0.49302675  1
  Cu  Cu97  1  0.16312239  0.49880589  0.75718065  1
  Cu  Cu98  1  -0.00260029  0.33092076  0.00433958  1
  Cu  Cu99  1  0.32449516  -0.00792967  0.01309812  1
  Cu  Cu100  1  0.16625201  0.84052879  0.74972160  1
  Cu  Cu101  1  0.00275656  0.00070312  0.00891646  1
  Cu  Cu102  1  0.84422203  0.49646304  0.74893842  1
  Cu  Cu103  1  0.32598500  0.33089301  0.49286809  1
  Cu  Cu104  1  0.32646175  0.66196194  0.49466575  1
  Cu  Cu105  1  0.82962946  0.84462428  0.75232502  1
  Cu  Cu106  1  0.49110939  0.50557981  0.74769988  1
  Cu  Cu107  1  0.67233535  0.32766463  0.00398847  1
  Cu  Cu108  1  0.67277878  0.65611762  0.00291770  1
  Cu  Cu109  1  0.32514750  0.67538023  0.00397079  1
  Cu  Cu110  1  0.67040419  0.33103769  0.50016879  1
  Cu  Cu111  1  0.00446410  0.66083720  0.49113720  1
  Cu  Cu112  1  0.82782752  0.17179321  0.24579423  1
  Cu  Cu113  1  0.33403557  -0.00693020  0.49453491  1
  Cu  Cu114  1  0.66678343  0.00588691  -0.00032851  1
  Se  Se115  1  0.08306997  0.09294035  0.05553997  1
  Se  Se116  1  0.08863024  0.09647234  0.55433092  1
  Se  Se117  1  0.08419300  0.41337162  0.05444654  1
  Se  Se118  1  0.08533954  0.41455036  0.55039486  1
  Se  Se119  1  0.08738226  0.75748052  0.06326817  1
  Se  Se120  1  0.07689719  0.74537391  0.55376316  1
  Se  Se121  1  0.41897533  0.07899073  0.05018778  1
  Se  Se122  1  0.41305868  0.07975993  0.55034072  1
  Se  Se123  1  0.41536776  0.41440738  0.07044540  1
  Se  Se124  1  0.40256384  0.40512707  0.56210812  1
  Se  Se125  1  0.40263493  0.75958376  0.06133773  1
  Se  Se126  1  0.40881789  0.74606928  0.54793659  1
  Se  Se127  1  0.75365142  0.08196497  0.05450998  1
  Se  Se128  1  0.75279348  0.08111290  0.55210583  1
  Se  Se129  1  0.75102406  0.41750209  0.05362634  1
  Se  Se130  1  0.75538557  0.41651429  0.54820884  1
  Se  Se131  1  0.74994594  0.73930798  0.06174871  1
  Se  Se132  1  0.74421185  0.74360271  0.56388366  1
  Se  Se133  1  0.25924813  0.26480242  0.05259652  1
  Se  Se134  1  0.24581423  0.24686190  0.54997289  1
  Se  Se135  1  0.24871501  0.58181537  0.05207450  1
  Se  Se136  1  0.24345253  0.58012994  0.54901463  1
  Se  Se137  1  0.24761912  0.91771717  0.07642974  1
  Se  Se138  1  0.25035517  0.92353407  0.56032303  1
  Se  Se139  1  0.58418068  0.24642441  0.05332227  1
  Se  Se140  1  0.58714194  0.24562623  0.55005794  1
  Se  Se141  1  0.58376866  0.58554838  0.06098125  1
  Se  Se142  1  0.58954985  0.58615150  0.56239737  1
  Se  Se143  1  0.58564702  0.92307671  0.05680040  1
  Se  Se144  1  0.58286635  0.91893681  0.54939480  1
  Se  Se145  1  0.91208201  0.24688452  0.05408506  1
  Se  Se146  1  0.92341120  0.25424167  0.55612321  1
  Se  Se147  1  0.92351533  0.58064479  0.05258049  1
  Se  Se148  1  0.92043835  0.58057315  0.54719461  1
  Se  Se149  1  0.93218029  0.91533336  0.07171930  1
  Se  Se150  1  0.92812319  0.92875537  0.55495388  1
  Se  Se151  1  0.08071652  0.24799715  0.44009831  1
  Se  Se152  1  0.08113400  0.25093943  0.94720566  1
  Se  Se153  1  0.08746015  0.58443696  0.43341495  1
  Se  Se154  1  0.08771864  0.58459340  0.94942542  1
  Se  Se155  1  0.08529611  0.92237585  0.43569187  1
  Se  Se156  1  0.08617764  0.91748981  0.95513307  1
  Se  Se157  1  0.41558361  0.24581938  0.45025049  1
  Se  Se158  1  0.41169032  0.26345558  0.95523419  1
  Se  Se159  1  0.40798392  0.57823524  0.43622128  1
  Se  Se160  1  0.41159648  0.59791765  0.94394153  1
  Se  Se161  1  0.41384982  0.90866561  0.44072131  1
  Se  Se162  1  0.40398069  0.92763172  0.94021237  1
  Se  Se163  1  0.74451232  0.25846071  0.43083438  1
  Se  Se164  1  0.75361103  0.24316344  0.94941798  1
  Se  Se165  1  0.75369064  0.58269008  0.45045596  1
  Se  Se166  1  0.75903707  0.57517299  0.95243067  1
  Se  Se167  1  0.75108968  0.92304829  0.44041794  1
  Se  Se168  1  0.74958106  0.92099615  0.94413276  1
  Se  Se169  1  0.25159669  0.07294650  0.43861846  1
  Se  Se170  1  0.24741020  0.08103887  0.95704034  1
  Se  Se171  1  0.24503801  0.41734266  0.44270681  1
  Se  Se172  1  0.26233450  0.41217484  0.95027668  1
  Se  Se173  1  0.25120548  0.73466747  0.42636658  1
  Se  Se174  1  0.24640763  0.75952837  0.94757394  1
  Se  Se175  1  0.57859974  0.08379258  0.44399076  1
  Se  Se176  1  0.58195051  0.08472915  0.94474395  1
  Se  Se177  1  0.58638102  0.41037475  0.44009767  1
  Se  Se178  1  0.59480152  0.40736267  0.93938287  1
  Se  Se179  1  0.58066257  0.75188666  0.45433346  1
  Se  Se180  1  0.59596859  0.73918073  0.94261622  1
  Se  Se181  1  0.93404101  0.07507809  0.43858340  1
  Se  Se182  1  0.92107960  0.08036358  0.94929641  1
  Se  Se183  1  0.91751737  0.41956297  0.44184826  1
  Se  Se184  1  0.91593364  0.41641319  0.94961459  1
  Se  Se185  1  0.92739587  0.74893510  0.43533073  1
  Se  Se186  1  0.93204189  0.74366973  0.94294895  1
  Se  Se187  1  0.24670682  0.24122609  0.31190537  1
  Se  Se188  1  0.24523541  0.24490281  0.81705038  1
  Se  Se189  1  0.26477023  0.60366070  0.29137375  1
  Se  Se190  1  0.24712217  0.58652330  0.80403030  1
  Se  Se191  1  0.24594508  0.90143511  0.29173176  1
  Se  Se192  1  0.24110378  0.91973678  0.81411155  1
  Se  Se193  1  0.58034616  0.24856605  0.30205562  1
  Se  Se194  1  0.57595095  0.24167800  0.80428463  1
  Se  Se195  1  0.57792922  0.57218295  0.31733355  1
  Se  Se196  1  0.57536292  0.57655745  0.81153678  1
  Se  Se197  1  0.58712071  0.91940337  0.30598539  1
  Se  Se198  1  0.56434909  0.90223848  0.80409014  1
  Se  Se199  1  0.92081213  0.24360762  0.30029397  1
  Se  Se200  1  0.91722350  0.24971656  0.80525217  1
  Se  Se201  1  0.91780161  0.58297929  0.30030497  1
  Se  Se202  1  0.91922848  0.58065421  0.80913732  1
  Se  Se203  1  0.91162692  0.91810857  0.30378454  1
  Se  Se204  1  0.91801972  0.92324659  0.80428084  1
  Se  Se205  1  0.07930518  0.06403823  0.29586933  1
  Se  Se206  1  0.08052330  0.08375797  0.80787505  1
  Se  Se207  1  0.08781312  0.41939237  0.29924382  1
  Se  Se208  1  0.08222036  0.41397649  0.80881937  1
  Se  Se209  1  0.08502527  0.75965620  0.28528865  1
  Se  Se210  1  0.08766779  0.76079723  0.81326339  1
  Se  Se211  1  0.41539422  0.07778089  0.30359684  1
  Se  Se212  1  0.41462979  0.09633449  0.81520465  1
  Se  Se213  1  0.41560537  0.41776905  0.31048858  1
  Se  Se214  1  0.42075206  0.42331758  0.81202431  1
  Se  Se215  1  0.42539184  0.74780750  0.30308998  1
  Se  Se216  1  0.41297336  0.75535716  0.79655360  1
  Se  Se217  1  0.74638462  0.08505522  0.29888129  1
  Se  Se218  1  0.74695690  0.08521702  0.80584883  1
  Se  Se219  1  0.75358187  0.41438626  0.30116613  1
  Se  Se220  1  0.76142655  0.41809272  0.80877166  1
  Se  Se221  1  0.75405112  0.75552943  0.31525511  1
  Se  Se222  1  0.76013647  0.75843697  0.81380300  1
  Se  Se223  1  0.26666609  0.08502673  0.19515682  1
  Se  Se224  1  0.24610864  0.09215271  0.69563670  1
  Se  Se225  1  0.23723901  0.42468294  0.19153815  1
  Se  Se226  1  0.23969576  0.41967608  0.69091195  1
  Se  Se227  1  0.27088427  0.71593227  0.19465418  1
  Se  Se228  1  0.24239031  0.75183207  0.69659256  1
  Se  Se229  1  0.58364728  0.07946029  0.19356108  1
  Se  Se230  1  0.57941059  0.08031676  0.69726228  1
  Se  Se231  1  0.59059531  0.40934115  0.20366917  1
  Se  Se232  1  0.57310117  0.42434049  0.69125501  1
  Se  Se233  1  0.58282323  0.75384174  0.18952350  1
  Se  Se234  1  0.57833912  0.75423141  0.68538162  1
  Se  Se235  1  0.91253378  0.08980345  0.19360829  1
  Se  Se236  1  0.91417715  0.08489975  0.69684216  1
  Se  Se237  1  0.91704739  0.41330065  0.19219580  1
  Se  Se238  1  0.92363256  0.41247930  0.69499747  1
  Se  Se239  1  0.91266190  0.75942164  0.19889604  1
  Se  Se240  1  0.90689287  0.76370685  0.69028766  1
  Se  Se241  1  0.08754125  0.24618339  0.19794211  1
  Se  Se242  1  0.08229360  0.25303017  0.70046415  1
  Se  Se243  1  0.06596123  0.59694345  0.19143601  1
  Se  Se244  1  0.08779198  0.57586753  0.68931048  1
  Se  Se245  1  0.06571890  0.95323971  0.20181923  1
  Se  Se246  1  0.08146396  0.92395058  0.69947679  1
  Se  Se247  1  0.42312192  0.24005318  0.18917847  1
  Se  Se248  1  0.42003970  0.24059071  0.69172424  1
  Se  Se249  1  0.42770694  0.57697969  0.19691255  1
  Se  Se250  1  0.40780716  0.58795392  0.69692736  1
  Se  Se251  1  0.41768425  0.90679911  0.19573934  1
  Se  Se252  1  0.41800994  0.91268106  0.68239335  1
  Se  Se253  1  0.74383968  0.25229975  0.19182013  1
  Se  Se254  1  0.75575150  0.24085495  0.68499906  1
  Se  Se255  1  0.75362206  0.57932915  0.18945492  1
  Se  Se256  1  0.75886465  0.57797491  0.69438827  1
  Se  Se257  1  0.74418618  0.92295603  0.19819516  1
  Se  Se258  1  0.74586785  0.92611696  0.69939357  1
