# generated using pymatgen
data_In86Cu29Se144
_symmetry_space_group_name_H-M   'P 1'
_cell_length_a   17.57073060
_cell_length_b   17.57262899
_cell_length_c   23.43491614
_cell_angle_alpha   89.98315654
_cell_angle_beta   90.00033522
_cell_angle_gamma   89.97844789
_symmetry_Int_Tables_number   1
_chemical_formula_structural   In86Cu29Se144
_chemical_formula_sum   'In86 Cu29 Se144'
_cell_volume   7235.85597763
_cell_formula_units_Z   1
loop_
 _symmetry_equiv_pos_site_id
 _symmetry_equiv_pos_as_xyz
  1  'x, y, z'
loop_
 _atom_site_type_symbol
 _atom_site_label
 _atom_site_symmetry_multiplicity
 _atom_site_fract_x
 _atom_site_fract_y
 _atom_site_fract_z
 _atom_site_occupancy
  In  In0  1  -0.00198715  0.18456219  0.12911879  1
  In  In1  1  0.00546637  0.15514577  0.63540810  1
  In  In2  1  -0.01168809  0.49742807  0.12421495  1
  In  In3  1  -0.01105643  0.48702793  0.61960274  1
  In  In4  1  -0.00299293  0.83656809  0.11664013  1
  In  In5  1  0.01372435  0.84218000  0.63114950  1
  In  In6  1  0.33737322  0.15717609  0.12638642  1
  In  In7  1  0.35025038  0.18839964  0.60980082  1
  In  In8  1  0.36192198  0.49576901  0.11944411  1
  In  In9  1  0.31131729  0.46824291  0.58934140  1
  In  In10  1  0.34140043  0.83200013  0.12254919  1
  In  In11  1  0.33943025  0.82345143  0.62443717  1
  In  In12  1  0.66718144  0.16680100  0.12116203  1
  In  In13  1  0.66535382  0.17371189  0.62323555  1
  In  In14  1  0.66873767  0.49826847  0.12634338  1
  In  In15  1  0.66366713  0.48966949  0.61153135  1
  In  In16  1  0.66245913  0.83146804  0.12645406  1
  In  In17  1  0.65647947  0.84168357  0.62167990  1
  In  In18  1  0.18427062  -0.00582432  0.37522929  1
  In  In19  1  0.15531687  0.00259701  0.87645038  1
  In  In20  1  0.17036554  0.34268688  0.38417861  1
  In  In21  1  0.16036589  0.32813666  0.86339349  1
  In  In22  1  0.16933729  0.64842210  0.37584443  1
  In  In23  1  0.18458818  0.66936364  0.87945981  1
  In  In24  1  0.49026957  0.00332995  0.37077682  1
  In  In25  1  0.49637415  0.00188541  0.88080054  1
  In  In26  1  0.50203082  0.32164630  0.38324819  1
  In  In27  1  0.49859641  0.33081456  0.88962133  1
  In  In28  1  0.50270354  0.66751023  0.36890226  1
  In  In29  1  0.50252465  0.65299474  0.89166646  1
  In  In30  1  0.82367531  0.01643466  0.37170294  1
  In  In31  1  0.83537774  0.00279255  0.88539431  1
  In  In32  1  0.83252752  0.33338788  0.37042288  1
  In  In33  1  0.83689284  0.32228114  0.89782444  1
  In  In34  1  0.81704293  0.66107573  0.36640519  1
  In  In35  1  0.82728569  0.67048167  0.88595017  1
  In  In36  1  -0.00855594  0.18356156  0.37583537  1
  In  In37  1  -0.00867893  0.16367343  0.86292868  1
  In  In38  1  0.00794773  0.48229042  0.38081139  1
  In  In39  1  0.00125708  0.48421419  0.86919736  1
  In  In40  1  0.00244599  0.83327767  0.37240102  1
  In  In41  1  -0.01162409  0.84567956  0.88738922  1
  In  In42  1  0.34308173  0.15991000  0.38901818  1
  In  In43  1  0.34008146  0.17659757  0.87385998  1
  In  In44  1  0.32830112  0.50324883  0.37744374  1
  In  In45  1  0.34341164  0.48757457  0.88227872  1
  In  In46  1  0.34917509  0.84735549  0.36339085  1
  In  In47  1  0.34199711  0.81398276  0.89733914  1
  In  In48  1  0.63440157  0.15005521  0.34614822  1
  In  In49  1  0.66830884  0.17578786  0.89217552  1
  In  In50  1  0.66630417  0.49774709  0.37101105  1
  In  In51  1  0.66026291  0.48415128  0.89761839  1
  In  In52  1  0.64858834  0.82327077  0.35893237  1
  In  In53  1  0.66254877  0.83682713  0.89091666  1
  In  In54  1  0.18539551  0.00196834  0.13031939  1
  In  In55  1  0.15591910  0.00390531  0.63265379  1
  In  In56  1  0.16629659  0.32149427  0.13286784  1
  In  In57  1  0.16702282  0.32550030  0.61982320  1
  In  In58  1  0.17060241  0.67696509  0.12240425  1
  In  In59  1  0.18379789  0.66591910  0.62394161  1
  In  In60  1  0.50559166  0.00153279  0.12585878  1
  In  In61  1  0.50447053  0.00004132  0.61859762  1
  In  In62  1  0.51085372  0.34204398  0.10911759  1
  In  In63  1  0.49149289  0.32360529  0.60673277  1
  In  In64  1  0.49605544  0.67086870  0.12773292  1
  In  In65  1  0.48738371  0.65398800  0.61433014  1
  In  In66  1  0.81675686  -0.00999157  0.11661918  1
  In  In67  1  0.84298826  0.01478245  0.62790830  1
  In  In68  1  0.82898897  0.33834695  0.12087787  1
  In  In69  1  0.82447296  0.33906021  0.62710408  1
  In  In70  1  0.81961135  0.65102304  0.11842505  1
  In  In71  1  0.84193347  0.65761240  0.62577554  1
  In  In72  1  0.66037738  0.66435145  0.76021978  1
  In  In73  1  0.82512183  0.82550961  0.49286521  1
  In  In74  1  0.67071171  0.01291053  0.75537024  1
  In  In75  1  0.82522518  0.17654262  0.50132555  1
  In  In76  1  0.00441784  0.66659329  0.74818250  1
  In  In77  1  0.17281732  0.83127762  0.50600945  1
  In  In78  1  -0.00469546  0.00547365  0.24921340  1
  In  In79  1  0.16663572  0.50095434  -0.00582262  1
  In  In80  1  0.66947027  0.33115519  0.75721594  1
  In  In81  1  0.33759531  0.65765275  0.75355068  1
  In  In82  1  0.17065871  0.16345513  0.00037427  1
  In  In83  1  0.32547887  0.00527904  0.75823524  1
  In  In84  1  0.34491687  0.32708580  0.24843673  1
  In  In85  1  0.00141022  0.66222883  0.24867054  1
  Cu  Cu86  1  0.83156897  0.49222555  0.24568205  1
  Cu  Cu87  1  0.49986423  0.83107058  0.75007561  1
  Cu  Cu88  1  0.82854990  0.49781960  0.75156863  1
  Cu  Cu89  1  0.50587299  0.50133958  0.24695161  1
  Cu  Cu90  1  0.83754012  0.84832117  0.75889054  1
  Cu  Cu91  1  0.33994761  -0.00554694  0.00481032  1
  Cu  Cu92  1  0.66940846  0.32876255  0.48971552  1
  Cu  Cu93  1  0.17185690  0.48795751  0.73981645  1
  Cu  Cu94  1  0.82435896  0.17302999  0.24467422  1
  Cu  Cu95  1  0.00103846  0.00967327  0.00107196  1
  Cu  Cu96  1  0.34007046  0.67486119  0.49220455  1
  Cu  Cu97  1  0.18014538  0.83528051  0.24570191  1
  Cu  Cu98  1  0.00265525  0.33089473  0.50079842  1
  Cu  Cu99  1  -0.00066427  0.67022116  0.00075068  1
  Cu  Cu100  1  0.65499986  -0.00383276  0.49139652  1
  Cu  Cu101  1  0.00083182  0.00213468  0.50847674  1
  Cu  Cu102  1  0.66317907  0.66935080  0.00930823  1
  Cu  Cu103  1  0.82875754  0.83152978  0.24202066  1
  Cu  Cu104  1  0.16637764  0.16918860  0.25691747  1
  Cu  Cu105  1  0.49740372  0.83814137  0.24398294  1
  Cu  Cu106  1  0.66445097  0.66390210  0.48994948  1
  Cu  Cu107  1  0.66869794  -0.00098609  0.00587993  1
  Cu  Cu108  1  0.49388679  0.48688031  0.75100070  1
  Cu  Cu109  1  0.17253220  0.17384787  0.74614201  1
  Cu  Cu110  1  0.16085616  0.84169788  0.76187351  1
  Cu  Cu111  1  -0.00255297  0.33324886  -0.00038244  1
  Cu  Cu112  1  0.17311132  0.49461401  0.25142089  1
  Cu  Cu113  1  0.33596599  0.00632003  0.49779447  1
  Cu  Cu114  1  -0.00327645  0.64999096  0.49926098  1
  Se  Se115  1  0.08074710  0.08079019  0.06807621  1
  Se  Se116  1  0.08586525  0.08638816  0.55695335  1
  Se  Se117  1  0.08223979  0.40847687  0.05959279  1
  Se  Se118  1  0.08420365  0.41669935  0.55417700  1
  Se  Se119  1  0.08379323  0.75180663  0.05317736  1
  Se  Se120  1  0.07311489  0.73794064  0.55997856  1
  Se  Se121  1  0.42090411  0.08291005  0.05438066  1
  Se  Se122  1  0.42385654  0.08522801  0.55128312  1
  Se  Se123  1  0.41516800  0.40967120  0.04011836  1
  Se  Se124  1  0.44839919  0.44615430  0.55608899  1
  Se  Se125  1  0.41918193  0.74883727  0.05268460  1
  Se  Se126  1  0.42164503  0.75541741  0.54908506  1
  Se  Se127  1  0.75519335  0.08951622  0.04923865  1
  Se  Se128  1  0.73928098  0.06990857  0.55514595  1
  Se  Se129  1  0.76894536  0.44198132  0.05613058  1
  Se  Se130  1  0.75294576  0.40886767  0.54593871  1
  Se  Se131  1  0.75212565  0.75379976  0.05722080  1
  Se  Se132  1  0.74000628  0.73853675  0.56102537  1
  Se  Se133  1  0.25765922  0.25484370  0.05994844  1
  Se  Se134  1  0.25274904  0.25570385  0.54591131  1
  Se  Se135  1  0.25356034  0.57765144  0.06387786  1
  Se  Se136  1  0.25310045  0.59251845  0.54505836  1
  Se  Se137  1  0.25066040  0.91633535  0.05641236  1
  Se  Se138  1  0.25967377  0.92791131  0.56541926  1
  Se  Se139  1  0.60112814  0.25781978  0.04671416  1
  Se  Se140  1  0.58916344  0.24472890  0.54619411  1
  Se  Se141  1  0.58168481  0.58470647  0.06193297  1
  Se  Se142  1  0.58521804  0.58374529  0.54967266  1
  Se  Se143  1  0.58294408  0.91446295  0.05534821  1
  Se  Se144  1  0.57522412  0.91112578  0.54627217  1
  Se  Se145  1  0.91431672  0.25023587  0.05321393  1
  Se  Se146  1  0.92269504  0.25233642  0.56450599  1
  Se  Se147  1  0.91858935  0.58388746  0.05212796  1
  Se  Se148  1  0.90698545  0.57280651  0.55084170  1
  Se  Se149  1  0.91642757  0.92316462  0.05121974  1
  Se  Se150  1  0.91736220  0.91437320  0.55814677  1
  Se  Se151  1  0.08422598  0.24928298  0.44506444  1
  Se  Se152  1  0.07744865  0.25093476  0.94051201  1
  Se  Se153  1  0.08641673  0.57327934  0.44718841  1
  Se  Se154  1  0.07315898  0.59085884  0.93440533  1
  Se  Se155  1  0.07799353  0.92094131  0.44575751  1
  Se  Se156  1  0.08426078  0.92150393  0.95148643  1
  Se  Se157  1  0.39975738  0.26702164  0.45148402  1
  Se  Se158  1  0.42161582  0.23488706  0.95248652  1
  Se  Se159  1  0.41914817  0.58763863  0.43932772  1
  Se  Se160  1  0.38876603  0.59728382  0.94615702  1
  Se  Se161  1  0.41570122  0.91883980  0.44551211  1
  Se  Se162  1  0.42482773  0.91223085  0.95114635  1
  Se  Se163  1  0.73646993  0.24021930  0.42629275  1
  Se  Se164  1  0.72032554  0.28176244  0.95938330  1
  Se  Se165  1  0.75197062  0.57908416  0.44300218  1
  Se  Se166  1  0.74252377  0.58577385  0.95031707  1
  Se  Se167  1  0.74045718  0.91928621  0.43199189  1
  Se  Se168  1  0.75476002  0.91667403  0.95263899  1
  Se  Se169  1  0.24300402  0.08367392  0.44996488  1
  Se  Se170  1  0.26090333  0.07262688  0.94030913  1
  Se  Se171  1  0.25581949  0.42145021  0.45206641  1
  Se  Se172  1  0.24726072  0.39812814  0.94024412  1
  Se  Se173  1  0.25404873  0.75295856  0.43294180  1
  Se  Se174  1  0.24286483  0.74749192  0.96021079  1
  Se  Se175  1  0.58004241  0.08630952  0.43745000  1
  Se  Se176  1  0.58575398  0.07840886  0.94804243  1
  Se  Se177  1  0.58496427  0.41689727  0.44252436  1
  Se  Se178  1  0.54711761  0.43823641  0.95875280  1
  Se  Se179  1  0.58228683  0.75221127  0.44174609  1
  Se  Se180  1  0.57834915  0.74963084  0.95361782  1
  Se  Se181  1  0.92060502  0.07963838  0.44575099  1
  Se  Se182  1  0.92116390  0.09416254  0.94635605  1
  Se  Se183  1  0.91379636  0.40753854  0.44594763  1
  Se  Se184  1  0.91910607  0.42555289  0.94967054  1
  Se  Se185  1  0.92432339  0.73583381  0.43687051  1
  Se  Se186  1  0.91066640  0.75428884  0.95213786  1
  Se  Se187  1  0.24994429  0.25011065  0.31422580  1
  Se  Se188  1  0.25735141  0.25199205  0.80174926  1
  Se  Se189  1  0.25422016  0.58317453  0.30034288  1
  Se  Se190  1  0.24279528  0.56518894  0.80851830  1
  Se  Se191  1  0.25895834  0.92521904  0.29599724  1
  Se  Se192  1  0.25283052  0.90556958  0.82285523  1
  Se  Se193  1  0.58092258  0.26970705  0.29869574  1
  Se  Se194  1  0.57813283  0.24294617  0.81530004  1
  Se  Se195  1  0.58806687  0.58474339  0.30154338  1
  Se  Se196  1  0.57402300  0.56447547  0.81436301  1
  Se  Se197  1  0.57675544  0.92414558  0.29976346  1
  Se  Se198  1  0.58145289  0.91076718  0.80931237  1
  Se  Se199  1  0.91287764  0.25067101  0.29814166  1
  Se  Se200  1  0.91602816  0.27042609  0.81329983  1
  Se  Se201  1  0.91500640  0.56957228  0.30934385  1
  Se  Se202  1  0.90674567  0.58359031  0.81012006  1
  Se  Se203  1  0.90457752  0.90959760  0.30754718  1
  Se  Se204  1  0.92137117  0.92952459  0.81073135  1
  Se  Se205  1  0.08605466  0.08616154  0.31581248  1
  Se  Se206  1  0.09169657  0.09027487  0.80210696  1
  Se  Se207  1  0.09031744  0.41290201  0.30510704  1
  Se  Se208  1  0.08108759  0.41289173  0.79348538  1
  Se  Se209  1  0.09610401  0.75631904  0.30555942  1
  Se  Se210  1  0.08473297  0.75302570  0.81829100  1
  Se  Se211  1  0.41650160  0.09978162  0.30645390  1
  Se  Se212  1  0.42967977  0.09143710  0.80494986  1
  Se  Se213  1  0.42403164  0.42386697  0.30954090  1
  Se  Se214  1  0.41778756  0.40399732  0.81038330  1
  Se  Se215  1  0.41861699  0.74980240  0.29896568  1
  Se  Se216  1  0.42674686  0.74906345  0.81364593  1
  Se  Se217  1  0.74547418  0.08069246  0.29296104  1
  Se  Se218  1  0.75737923  0.09971034  0.81834039  1
  Se  Se219  1  0.74694481  0.41255841  0.30153344  1
  Se  Se220  1  0.75289762  0.42452206  0.81945390  1
  Se  Se221  1  0.74566638  0.74782632  0.29611692  1
  Se  Se222  1  0.75335024  0.76413092  0.81176797  1
  Se  Se223  1  0.25206259  0.09067359  0.20267900  1
  Se  Se224  1  0.25311469  0.09359099  0.68598941  1
  Se  Se225  1  0.25422489  0.42054385  0.18708715  1
  Se  Se226  1  0.25770723  0.41262855  0.68349263  1
  Se  Se227  1  0.25770497  0.74761749  0.19359107  1
  Se  Se228  1  0.24365731  0.76151099  0.70178614  1
  Se  Se229  1  0.59121349  0.08321884  0.19250454  1
  Se  Se230  1  0.57551896  0.09233417  0.69219545  1
  Se  Se231  1  0.58080520  0.41430966  0.19131880  1
  Se  Se232  1  0.58295641  0.41630307  0.69020224  1
  Se  Se233  1  0.58255777  0.74968770  0.19782968  1
  Se  Se234  1  0.57445156  0.74758611  0.68902275  1
  Se  Se235  1  0.90539127  0.08862222  0.18545052  1
  Se  Se236  1  0.91508111  0.08517989  0.70539675  1
  Se  Se237  1  0.91954437  0.41011959  0.19573763  1
  Se  Se238  1  0.91137335  0.41538071  0.69749069  1
  Se  Se239  1  0.91199920  0.75050438  0.18636139  1
  Se  Se240  1  0.90895919  0.76318327  0.69384292  1
  Se  Se241  1  0.08086102  0.25181927  0.20622856  1
  Se  Se242  1  0.08373558  0.25303228  0.69461869  1
  Se  Se243  1  0.09263962  0.57322668  0.18778524  1
  Se  Se244  1  0.09257452  0.57725803  0.68500754  1
  Se  Se245  1  0.08728440  0.91185917  0.19221044  1
  Se  Se246  1  0.07957723  0.92494175  0.70778067  1
  Se  Se247  1  0.43293573  0.24775753  0.18102396  1
  Se  Se248  1  0.42576876  0.25452624  0.68956093  1
  Se  Se249  1  0.41667782  0.58288066  0.19837398  1
  Se  Se250  1  0.41677773  0.56694632  0.68891444  1
  Se  Se251  1  0.41379119  0.92259434  0.19248199  1
  Se  Se252  1  0.41934901  0.91396611  0.69415811  1
  Se  Se253  1  0.74532064  0.25687581  0.18989115  1
  Se  Se254  1  0.75945411  0.23816948  0.69634550  1
  Se  Se255  1  0.74868643  0.58265524  0.19989982  1
  Se  Se256  1  0.74659754  0.57678782  0.69190173  1
  Se  Se257  1  0.74338453  0.91876840  0.19577884  1
  Se  Se258  1  0.75408472  0.91554070  0.69070273  1
