# generated using pymatgen
data_In86Cu29Se144
_symmetry_space_group_name_H-M   'P 1'
_cell_length_a   17.57848931
_cell_length_b   17.57636542
_cell_length_c   23.43179518
_cell_angle_alpha   90.02152437
_cell_angle_beta   89.99434565
_cell_angle_gamma   89.99848237
_symmetry_Int_Tables_number   1
_chemical_formula_structural   In86Cu29Se144
_chemical_formula_sum   'In86 Cu29 Se144'
_cell_volume   7239.62634720
_cell_formula_units_Z   1
loop_
 _symmetry_equiv_pos_site_id
 _symmetry_equiv_pos_as_xyz
  1  'x, y, z'
loop_
 _atom_site_type_symbol
 _atom_site_label
 _atom_site_symmetry_multiplicity
 _atom_site_fract_x
 _atom_site_fract_y
 _atom_site_fract_z
 _atom_site_occupancy
  In  In0  1  0.01292048  0.14295426  0.15060703  1
  In  In1  1  0.00583595  0.17174496  0.61301237  1
  In  In2  1  -0.00738276  0.50259138  0.12992236  1
  In  In3  1  0.00582669  0.51991739  0.61192904  1
  In  In4  1  0.01380866  0.83690551  0.12050498  1
  In  In5  1  -0.02315760  0.80153383  0.59119691  1
  In  In6  1  0.32819923  0.18056818  0.14177092  1
  In  In7  1  0.33930191  0.18035574  0.59678195  1
  In  In8  1  0.33942257  0.48883972  0.13535291  1
  In  In9  1  0.34398826  0.49679860  0.60520617  1
  In  In10  1  0.32560544  0.84387505  0.13901262  1
  In  In11  1  0.33066678  0.82689537  0.61246474  1
  In  In12  1  0.66801794  0.16835184  0.12902652  1
  In  In13  1  0.67751340  0.17686615  0.61538607  1
  In  In14  1  0.67112457  0.51532403  0.12838440  1
  In  In15  1  0.66497552  0.50039453  0.62172066  1
  In  In16  1  0.65775484  0.82442875  0.12467678  1
  In  In17  1  0.66057799  0.82466799  0.62088894  1
  In  In18  1  0.16640265  -0.00028649  0.37020528  1
  In  In19  1  0.16472065  -0.00336933  0.88482000  1
  In  In20  1  0.17112716  0.33657900  0.37970544  1
  In  In21  1  0.15768219  0.32841159  0.87947144  1
  In  In22  1  0.17045616  0.65355397  0.38739079  1
  In  In23  1  0.16698176  0.67693226  0.87822817  1
  In  In24  1  0.48456257  0.01156457  0.37758617  1
  In  In25  1  0.50110915  0.00386671  0.87673383  1
  In  In26  1  0.48838346  0.33616792  0.38191915  1
  In  In27  1  0.51006105  0.33586718  0.87041628  1
  In  In28  1  0.50029903  0.66416451  0.37411747  1
  In  In29  1  0.49774856  0.64933868  0.87674835  1
  In  In30  1  0.83792091  -0.00315395  0.37582432  1
  In  In31  1  0.83269444  -0.02512909  0.87741797  1
  In  In32  1  0.84628333  0.32225068  0.38029152  1
  In  In33  1  0.82971125  0.34647468  0.87285652  1
  In  In34  1  0.83313884  0.67466960  0.38606236  1
  In  In35  1  0.83843367  0.67220031  0.86122482  1
  In  In36  1  -0.00331011  0.17044959  0.36745402  1
  In  In37  1  0.00959493  0.17241077  0.88135529  1
  In  In38  1  0.01530709  0.49451395  0.39099546  1
  In  In39  1  -0.01174153  0.49601967  0.87207424  1
  In  In40  1  -0.00881582  0.83603240  0.38467505  1
  In  In41  1  0.00675369  0.81940604  0.88665883  1
  In  In42  1  0.33708508  0.16543582  0.37208004  1
  In  In43  1  0.32961312  0.15603547  0.87796399  1
  In  In44  1  0.33265286  0.49782352  0.37790703  1
  In  In45  1  0.34681928  0.51275088  0.88118829  1
  In  In46  1  0.33350533  0.83284597  0.37185285  1
  In  In47  1  0.31747724  0.82109279  0.88370060  1
  In  In48  1  0.66349651  0.16799206  0.38525986  1
  In  In49  1  0.65899343  0.17172615  0.87100458  1
  In  In50  1  0.65521462  0.50735660  0.38214593  1
  In  In51  1  0.66249006  0.49628428  0.86688902  1
  In  In52  1  0.67503254  0.82290003  0.38014029  1
  In  In53  1  0.69899572  0.82651759  0.88087651  1
  In  In54  1  0.16438108  0.00125151  0.13109096  1
  In  In55  1  0.16639745  -0.00073868  0.61689555  1
  In  In56  1  0.17531252  0.32105194  0.13480878  1
  In  In57  1  0.17504569  0.33662020  0.60428537  1
  In  In58  1  0.16928912  0.68038735  0.12406003  1
  In  In59  1  0.15630087  0.65752495  0.60971852  1
  In  In60  1  0.49628956  -0.00777472  0.13338666  1
  In  In61  1  0.50017308  -0.00332697  0.61295958  1
  In  In62  1  0.48829266  0.32929948  0.12963375  1
  In  In63  1  0.51278021  0.35034366  0.60184820  1
  In  In64  1  0.50597221  0.66146480  0.13336545  1
  In  In65  1  0.50446201  0.66996556  0.61947719  1
  In  In66  1  0.84602763  0.00290390  0.13077412  1
  In  In67  1  0.83769500  0.00281097  0.61474240  1
  In  In68  1  0.83823934  0.34005339  0.13685030  1
  In  In69  1  0.82462314  0.32813027  0.61540507  1
  In  In70  1  0.82535027  0.66245975  0.12582697  1
  In  In71  1  0.82880232  0.66035239  0.61758377  1
  In  In72  1  0.00253781  -0.00074657  0.74022532  1
  In  In73  1  0.66257486  0.33473760  0.26249025  1
  In  In74  1  -0.01069879  0.33980601  0.73669055  1
  In  In75  1  0.66284555  -0.00283448  0.25619006  1
  In  In76  1  0.33227778  0.33403069  0.73204144  1
  In  In77  1  0.16848818  0.50443718  0.00007779  1
  In  In78  1  0.49587349  0.83217279  0.00375759  1
  In  In79  1  0.84041382  0.16370212  0.00602674  1
  In  In80  1  0.67035007  -0.00172863  0.75443178  1
  In  In81  1  0.83325362  0.50416884  0.00162195  1
  In  In82  1  0.00285174  0.66664827  0.25445199  1
  In  In83  1  0.33318639  0.00068835  0.74991222  1
  In  In84  1  0.49490449  0.16430677  0.00001052  1
  In  In85  1  0.33050218  0.66723446  0.75397286  1
  Cu  Cu86  1  0.32260731  0.00151215  0.00836536  1
  Cu  Cu87  1  0.34134105  0.66878819  0.49256317  1
  Cu  Cu88  1  0.15575903  0.82684254  0.74817772  1
  Cu  Cu89  1  0.49982481  0.50160913  0.25632392  1
  Cu  Cu90  1  0.82464982  0.50737262  0.74460492  1
  Cu  Cu91  1  0.17173279  0.16696615  0.74472002  1
  Cu  Cu92  1  0.66138544  0.66436767  0.50172393  1
  Cu  Cu93  1  0.66486347  0.66447586  0.00167130  1
  Cu  Cu94  1  0.50206552  0.49828310  0.74422005  1
  Cu  Cu95  1  0.00692758  0.01036401  0.49144854  1
  Cu  Cu96  1  0.50526288  0.83087911  0.74773160  1
  Cu  Cu97  1  0.66816793  0.33632297  0.49518713  1
  Cu  Cu98  1  -0.00382959  0.33138644  0.49537343  1
  Cu  Cu99  1  0.33212257  0.33414079  0.01055773  1
  Cu  Cu100  1  0.01181852  0.32130788  0.01013062  1
  Cu  Cu101  1  0.66365647  0.34066324  -0.00466623  1
  Cu  Cu102  1  0.66846374  -0.00785530  0.49527521  1
  Cu  Cu103  1  0.83796135  0.82513465  0.74181507  1
  Cu  Cu104  1  0.83885819  0.50118089  0.25939095  1
  Cu  Cu105  1  0.16519755  0.17013834  0.25812803  1
  Cu  Cu106  1  0.17117082  0.49670816  0.25940174  1
  Cu  Cu107  1  0.00426417  -0.00340975  0.00815461  1
  Cu  Cu108  1  0.33421700  -0.00112940  0.49045804  1
  Cu  Cu109  1  0.16411907  0.83341246  0.25316602  1
  Cu  Cu110  1  0.15672403  0.50838270  0.74179847  1
  Cu  Cu111  1  0.50009023  0.82666297  0.25337706  1
  Cu  Cu112  1  0.82779195  0.17597578  0.74705577  1
  Cu  Cu113  1  0.83476113  0.83095538  0.25612795  1
  Cu  Cu114  1  0.51238706  0.17560358  0.73953740  1
  Se  Se115  1  0.07963487  0.08556877  0.06233867  1
  Se  Se116  1  0.09119360  0.08865215  0.54811856  1
  Se  Se117  1  0.08324230  0.41389687  0.06507828  1
  Se  Se118  1  0.07527857  0.41728341  0.55056322  1
  Se  Se119  1  0.08021878  0.74287818  0.05166008  1
  Se  Se120  1  0.11316232  0.77766591  0.55563577  1
  Se  Se121  1  0.40865663  0.07938603  0.06509783  1
  Se  Se122  1  0.42089079  0.08037344  0.54369056  1
  Se  Se123  1  0.42012619  0.41707797  0.05676581  1
  Se  Se124  1  0.39129738  0.38403489  0.54551682  1
  Se  Se125  1  0.41241951  0.75146336  0.07208742  1
  Se  Se126  1  0.42404171  0.75166551  0.54868211  1
  Se  Se127  1  0.74532634  0.07609483  0.06232794  1
  Se  Se128  1  0.74839772  0.08062902  0.54942876  1
  Se  Se129  1  0.74464564  0.41033873  0.06087520  1
  Se  Se130  1  0.74880409  0.42088260  0.55032817  1
  Se  Se131  1  0.74677830  0.74753694  0.05629394  1
  Se  Se132  1  0.74730486  0.74991042  0.55121935  1
  Se  Se133  1  0.25267676  0.24481813  0.05886032  1
  Se  Se134  1  0.23126236  0.23643337  0.53722970  1
  Se  Se135  1  0.25748668  0.58225626  0.06706698  1
  Se  Se136  1  0.25707624  0.58672170  0.54757965  1
  Se  Se137  1  0.24490022  0.91453349  0.06177770  1
  Se  Se138  1  0.25368158  0.92012740  0.54942676  1
  Se  Se139  1  0.58954797  0.25779008  0.05738083  1
  Se  Se140  1  0.58530357  0.24574529  0.54551170  1
  Se  Se141  1  0.58238247  0.58267044  0.05589165  1
  Se  Se142  1  0.57689422  0.57772254  0.55167560  1
  Se  Se143  1  0.58739839  0.92721029  0.05875373  1
  Se  Se144  1  0.58435484  0.90978404  0.54992022  1
  Se  Se145  1  0.92400912  0.25191359  0.07047380  1
  Se  Se146  1  0.91257138  0.24749742  0.54939514  1
  Se  Se147  1  0.92699127  0.59546297  0.05557290  1
  Se  Se148  1  0.92054760  0.59655352  0.54299719  1
  Se  Se149  1  0.91696531  0.91620388  0.05904549  1
  Se  Se150  1  0.92395136  0.92649131  0.54653732  1
  Se  Se151  1  0.07893889  0.24990565  0.43985904  1
  Se  Se152  1  0.09536110  0.24053244  0.95568371  1
  Se  Se153  1  0.06839805  0.60059133  0.45685387  1
  Se  Se154  1  0.07102650  0.58384763  0.93820521  1
  Se  Se155  1  0.08627596  0.91912749  0.44307398  1
  Se  Se156  1  0.08377715  0.91208933  0.95117498  1
  Se  Se157  1  0.41446031  0.24415106  0.44730018  1
  Se  Se158  1  0.40888503  0.25971814  0.93863680  1
  Se  Se159  1  0.42278647  0.57820937  0.44482614  1
  Se  Se160  1  0.40866817  0.59954250  0.95489917  1
  Se  Se161  1  0.41940641  0.91108130  0.44339119  1
  Se  Se162  1  0.40319800  0.92655711  0.94261701  1
  Se  Se163  1  0.75374417  0.24876943  0.44871902  1
  Se  Se164  1  0.74776641  0.25537788  0.94249475  1
  Se  Se165  1  0.74740703  0.58444450  0.44770838  1
  Se  Se166  1  0.74524310  0.58768638  0.93681354  1
  Se  Se167  1  0.75658654  0.91249507  0.44455970  1
  Se  Se168  1  0.74045258  0.92700825  0.95354589  1
  Se  Se169  1  0.24950120  0.08219883  0.43911710  1
  Se  Se170  1  0.24485061  0.08595650  0.95057888  1
  Se  Se171  1  0.23144417  0.43864604  0.44588042  1
  Se  Se172  1  0.25942570  0.40924173  0.93964198  1
  Se  Se173  1  0.25305549  0.75114257  0.44438661  1
  Se  Se174  1  0.24960222  0.73792367  0.95643697  1
  Se  Se175  1  0.58209316  0.07661579  0.44695706  1
  Se  Se176  1  0.59568837  0.07767525  0.94532484  1
  Se  Se177  1  0.57742917  0.41730036  0.44779525  1
  Se  Se178  1  0.58008396  0.42280768  0.94272192  1
  Se  Se179  1  0.58136328  0.74751238  0.44515730  1
  Se  Se180  1  0.58838459  0.74668386  0.93906532  1
  Se  Se181  1  0.91634655  0.08880280  0.44094200  1
  Se  Se182  1  0.92648120  0.07194936  0.94014035  1
  Se  Se183  1  0.91161354  0.41950345  0.44861458  1
  Se  Se184  1  0.92760060  0.40085111  0.95020053  1
  Se  Se185  1  0.92114902  0.74828669  0.45663212  1
  Se  Se186  1  0.89071727  0.76247727  0.93863256  1
  Se  Se187  1  0.25060751  0.25421210  0.30770106  1
  Se  Se188  1  0.24878678  0.24808541  0.80665974  1
  Se  Se189  1  0.25058892  0.58588467  0.30906747  1
  Se  Se190  1  0.23968807  0.57158996  0.81096794  1
  Se  Se191  1  0.25157498  0.91675949  0.30228189  1
  Se  Se192  1  0.23905264  0.90742829  0.80725943  1
  Se  Se193  1  0.57125951  0.24110392  0.31418701  1
  Se  Se194  1  0.59088647  0.25787456  0.79748410  1
  Se  Se195  1  0.58780611  0.58562852  0.30286963  1
  Se  Se196  1  0.58083015  0.58382979  0.79962010  1
  Se  Se197  1  0.57623059  0.90775539  0.31753080  1
  Se  Se198  1  0.58017067  0.90706908  0.81429671  1
  Se  Se199  1  0.91508637  0.25497430  0.29874550  1
  Se  Se200  1  0.91417834  0.24621018  0.81014391  1
  Se  Se201  1  0.91865624  0.57932772  0.32012898  1
  Se  Se202  1  0.91756287  0.57876401  0.79857367  1
  Se  Se203  1  0.92031112  0.91371832  0.30606398  1
  Se  Se204  1  0.91896308  0.90490214  0.80212563  1
  Se  Se205  1  0.07995821  0.08100287  0.30223494  1
  Se  Se206  1  0.09227620  0.08879799  0.80667490  1
  Se  Se207  1  0.08210313  0.41800550  0.31053776  1
  Se  Se208  1  0.08743902  0.41865113  0.80298548  1
  Se  Se209  1  0.08932953  0.75405128  0.31761753  1
  Se  Se210  1  0.07708195  0.74506733  0.80587136  1
  Se  Se211  1  0.41155357  0.08017788  0.29896805  1
  Se  Se212  1  0.43088315  0.09857897  0.80248218  1
  Se  Se213  1  0.41569376  0.41666884  0.30584934  1
  Se  Se214  1  0.41612738  0.42128447  0.80324098  1
  Se  Se215  1  0.41465772  0.74374628  0.30462908  1
  Se  Se216  1  0.42123453  0.76002374  0.81327650  1
  Se  Se217  1  0.75113950  0.09105589  0.31208677  1
  Se  Se218  1  0.76433349  0.08925747  0.81354140  1
  Se  Se219  1  0.75536379  0.42406659  0.31867733  1
  Se  Se220  1  0.74913758  0.41676706  0.79819602  1
  Se  Se221  1  0.75406635  0.74313155  0.30668782  1
  Se  Se222  1  0.74616548  0.74891614  0.79433920  1
  Se  Se223  1  0.24518213  0.08650940  0.20032198  1
  Se  Se224  1  0.25471383  0.09191152  0.68373541  1
  Se  Se225  1  0.25093563  0.41153074  0.20240349  1
  Se  Se226  1  0.23973972  0.43204883  0.68124885  1
  Se  Se227  1  0.24843015  0.74795486  0.20267634  1
  Se  Se228  1  0.24446880  0.75316335  0.68926703  1
  Se  Se229  1  0.57555727  0.09244601  0.19581669  1
  Se  Se230  1  0.58578103  0.08294904  0.68510744  1
  Se  Se231  1  0.58216259  0.42406986  0.19237966  1
  Se  Se232  1  0.57968380  0.41271142  0.68864441  1
  Se  Se233  1  0.58773187  0.74648904  0.20187178  1
  Se  Se234  1  0.58447686  0.74451590  0.69531050  1
  Se  Se235  1  0.90361831  0.08564731  0.20914367  1
  Se  Se236  1  0.91061458  0.09876991  0.68833363  1
  Se  Se237  1  0.92280905  0.42030120  0.20511631  1
  Se  Se238  1  0.90501123  0.43347867  0.67835246  1
  Se  Se239  1  0.91380081  0.75344420  0.19090821  1
  Se  Se240  1  0.91891788  0.74528468  0.68362755  1
  Se  Se241  1  0.08037468  0.25377803  0.20335166  1
  Se  Se242  1  0.09324743  0.25169909  0.68699560  1
  Se  Se243  1  0.09514252  0.57648516  0.19369180  1
  Se  Se244  1  0.07728697  0.59552814  0.69179444  1
  Se  Se245  1  0.08033419  0.91566285  0.19899552  1
  Se  Se246  1  0.08529166  0.90547227  0.68181634  1
  Se  Se247  1  0.42340228  0.25087660  0.20663631  1
  Se  Se248  1  0.42662931  0.24450609  0.67761524  1
  Se  Se249  1  0.41687085  0.58244260  0.19965412  1
  Se  Se250  1  0.41516475  0.57712661  0.68797732  1
  Se  Se251  1  0.41751500  0.91794579  0.20734908  1
  Se  Se252  1  0.42232338  0.90839769  0.68912234  1
  Se  Se253  1  0.75409841  0.24662284  0.19889982  1
  Se  Se254  1  0.74538818  0.25729679  0.69404093  1
  Se  Se255  1  0.75666358  0.58209943  0.20325674  1
  Se  Se256  1  0.74155412  0.58914536  0.69112384  1
  Se  Se257  1  0.75247896  0.90694417  0.19314444  1
  Se  Se258  1  0.75880915  0.91456899  0.68775099  1
