# generated using pymatgen
data_In86Cu29Se144
_symmetry_space_group_name_H-M   'P 1'
_cell_length_a   17.64776935
_cell_length_b   17.64233026
_cell_length_c   23.48480722
_cell_angle_alpha   90.00998520
_cell_angle_beta   89.96012992
_cell_angle_gamma   89.99242568
_symmetry_Int_Tables_number   1
_chemical_formula_structural   In86Cu29Se144
_chemical_formula_sum   'In86 Cu29 Se144'
_cell_volume   7311.94053248
_cell_formula_units_Z   1
loop_
 _symmetry_equiv_pos_site_id
 _symmetry_equiv_pos_as_xyz
  1  'x, y, z'
loop_
 _atom_site_type_symbol
 _atom_site_label
 _atom_site_symmetry_multiplicity
 _atom_site_fract_x
 _atom_site_fract_y
 _atom_site_fract_z
 _atom_site_occupancy
  In  In0  1  0.00453514  0.16946843  0.12651127  1
  In  In1  1  0.00919219  0.16335006  0.62430369  1
  In  In2  1  0.00028616  0.50280123  0.12493966  1
  In  In3  1  -0.01339057  0.50162775  0.62472242  1
  In  In4  1  0.00739039  0.83204357  0.12793393  1
  In  In5  1  -0.00200976  0.84142791  0.62153407  1
  In  In6  1  0.32996420  0.16013761  0.11528724  1
  In  In7  1  0.32663956  0.16770177  0.62875506  1
  In  In8  1  0.33685267  0.50673388  0.12049717  1
  In  In9  1  0.33815912  0.50935267  0.63152988  1
  In  In10  1  0.33473085  0.83850050  0.12512464  1
  In  In11  1  0.33590769  0.82955246  0.63505054  1
  In  In12  1  0.69454975  0.17871462  0.09577300  1
  In  In13  1  0.67752529  0.17646772  0.63116115  1
  In  In14  1  0.66379736  0.48841823  0.11207444  1
  In  In15  1  0.66767147  0.49097422  0.62978235  1
  In  In16  1  0.67786641  0.84798186  0.11197076  1
  In  In17  1  0.66881739  0.82792764  0.62407934  1
  In  In18  1  0.16974605  0.00350771  0.36673189  1
  In  In19  1  0.16949904  -0.00969810  0.88383302  1
  In  In20  1  0.15128412  0.33158810  0.37164593  1
  In  In21  1  0.15476134  0.34046925  0.88286323  1
  In  In22  1  0.17609975  0.66222176  0.36617996  1
  In  In23  1  0.17128741  0.66317114  0.88228804  1
  In  In24  1  0.49962355  0.00824754  0.36680376  1
  In  In25  1  0.49059130  0.01512048  0.88716221  1
  In  In26  1  0.50455904  0.32185576  0.36751330  1
  In  In27  1  0.49638255  0.33941701  0.88426243  1
  In  In28  1  0.49566704  0.66781199  0.36950264  1
  In  In29  1  0.49275114  0.67451460  0.88524341  1
  In  In30  1  0.83204101  -0.01983612  0.36829387  1
  In  In31  1  0.80019749  0.02462933  0.90730842  1
  In  In32  1  0.83503168  0.34044014  0.36565507  1
  In  In33  1  0.82783481  0.32921318  0.88225192  1
  In  In34  1  0.83454016  0.65802823  0.37697771  1
  In  In35  1  0.81979066  0.67379024  0.88468212  1
  In  In36  1  0.00429016  0.17686494  0.36419443  1
  In  In37  1  -0.01159997  0.17320290  0.88467154  1
  In  In38  1  -0.00911327  0.48272856  0.36590295  1
  In  In39  1  0.00311048  0.49552574  0.88203567  1
  In  In40  1  -0.01814773  0.82038936  0.35795306  1
  In  In41  1  -0.01242119  0.84509059  0.88456744  1
  In  In42  1  0.33286111  0.15028656  0.36985526  1
  In  In43  1  0.33355681  0.15629933  0.88016891  1
  In  In44  1  0.32655569  0.50486771  0.36947062  1
  In  In45  1  0.32683159  0.50638514  0.88259715  1
  In  In46  1  0.32883373  0.82933160  0.36348455  1
  In  In47  1  0.33236881  0.83372729  0.87857777  1
  In  In48  1  0.65627439  0.16755125  0.36785624  1
  In  In49  1  0.63359813  0.20021125  0.92272516  1
  In  In50  1  0.68058219  0.50143112  0.37092018  1
  In  In51  1  0.67172191  0.48695002  0.89096193  1
  In  In52  1  0.68711061  0.83750890  0.36950884  1
  In  In53  1  0.65455924  0.85009707  0.89830545  1
  In  In54  1  0.16915020  0.00259507  0.12656251  1
  In  In55  1  0.16641348  0.00873168  0.62484778  1
  In  In56  1  0.16229944  0.33129126  0.12145488  1
  In  In57  1  0.16450713  0.31629844  0.62602982  1
  In  In58  1  0.16507908  0.67119666  0.12718693  1
  In  In59  1  0.17117858  0.67468954  0.62507320  1
  In  In60  1  0.50157936  -0.00260519  0.11458037  1
  In  In61  1  0.49791276  -0.00943051  0.63336135  1
  In  In62  1  0.51722012  0.33456536  0.10246539  1
  In  In63  1  0.51331434  0.34726179  0.63638935  1
  In  In64  1  0.49347866  0.66434425  0.11928417  1
  In  In65  1  0.49178973  0.66255418  0.62910496  1
  In  In66  1  0.84378395  0.00414261  0.12531448  1
  In  In67  1  0.83965123  0.00070228  0.62061263  1
  In  In68  1  0.83471503  0.33907098  0.11996638  1
  In  In69  1  0.82486944  0.34296117  0.63559996  1
  In  In70  1  0.84679760  0.67111365  0.11944875  1
  In  In71  1  0.84039763  0.66901878  0.61720757  1
  In  In72  1  0.33309019  0.33101224  0.75615318  1
  In  In73  1  0.50380192  0.83208680  0.50378649  1
  In  In74  1  0.49884588  0.16372135  0.49693253  1
  In  In75  1  0.66170889  0.65983963  0.75679977  1
  In  In76  1  0.33227248  0.33451892  0.23305651  1
  In  In77  1  0.16609468  0.83439976  0.48629868  1
  In  In78  1  0.67149161  0.00394296  0.23687219  1
  In  In79  1  0.50270040  0.49955043  0.50504416  1
  In  In80  1  0.83452001  0.16444606  0.49812098  1
  In  In81  1  -0.00084623  0.00091714  0.74949174  1
  In  In82  1  0.66549502  0.00685251  0.76197394  1
  In  In83  1  0.66128006  0.66307921  0.24234002  1
  In  In84  1  0.15992089  0.49958308  0.49814352  1
  In  In85  1  0.00452562  0.66403717  0.75226721  1
  Cu  Cu86  1  -0.00482338  0.32727776  0.49366713  1
  Cu  Cu87  1  0.32553923  0.33429028  0.00140182  1
  Cu  Cu88  1  0.32617047  0.32896151  0.50545532  1
  Cu  Cu89  1  -0.00610696  0.66798664  0.48975032  1
  Cu  Cu90  1  0.50552306  0.17162707  0.76616991  1
  Cu  Cu91  1  0.83274735  0.18121747  0.75736792  1
  Cu  Cu92  1  0.17079730  0.16962012  0.24342204  1
  Cu  Cu93  1  0.17330045  0.84081907  0.24470900  1
  Cu  Cu94  1  0.32966565  -0.00360801  0.00184413  1
  Cu  Cu95  1  0.66562003  0.66246588  0.00539714  1
  Cu  Cu96  1  0.17559847  0.82873690  0.75837635  1
  Cu  Cu97  1  0.00550116  -0.00098907  0.00924782  1
  Cu  Cu98  1  0.00644875  0.66200700  0.00496170  1
  Cu  Cu99  1  0.83273964  0.17256720  0.23985096  1
  Cu  Cu100  1  0.67243596  0.33740945  0.50272562  1
  Cu  Cu101  1  0.67520326  0.67210580  0.49802971  1
  Cu  Cu102  1  0.49874877  0.83642555  0.24332608  1
  Cu  Cu103  1  0.16308297  0.16270037  0.75108691  1
  Cu  Cu104  1  0.49992596  0.49052073  0.23487159  1
  Cu  Cu105  1  0.83122850  0.49475224  0.24445779  1
  Cu  Cu106  1  0.83108279  0.83752719  0.75626876  1
  Cu  Cu107  1  -0.00133998  0.33390746  0.00372520  1
  Cu  Cu108  1  -0.00532781  -0.00350170  0.49505174  1
  Cu  Cu109  1  0.32636655  0.67315823  0.00294636  1
  Cu  Cu110  1  0.50507218  0.16737000  0.24053916  1
  Cu  Cu111  1  0.32985801  -0.00547107  0.49570544  1
  Cu  Cu112  1  0.48748396  0.83219521  0.75723651  1
  Cu  Cu113  1  0.16843936  0.49713679  0.75915938  1
  Cu  Cu114  1  0.83512377  0.49705957  0.75654324  1
  Se  Se115  1  0.08813032  0.08695221  0.05741837  1
  Se  Se116  1  0.07828248  0.07576537  0.55171069  1
  Se  Se117  1  0.08190701  0.41941291  0.05518472  1
  Se  Se118  1  0.07405328  0.40588290  0.55909611  1
  Se  Se119  1  0.08695201  0.75259929  0.05349418  1
  Se  Se120  1  0.07524918  0.74393166  0.55289684  1
  Se  Se121  1  0.41843568  0.08336540  0.04693908  1
  Se  Se122  1  0.41008519  0.07233032  0.55912506  1
  Se  Se123  1  0.41188231  0.41483058  0.05349193  1
  Se  Se124  1  0.40939309  0.40553550  0.56325803  1
  Se  Se125  1  0.41400259  0.75376238  0.05424919  1
  Se  Se126  1  0.40729220  0.74319345  0.55698858  1
  Se  Se127  1  0.73668024  0.04954482  0.05732621  1
  Se  Se128  1  0.73954805  0.07979403  0.55936179  1
  Se  Se129  1  0.74347966  0.40184492  0.04635334  1
  Se  Se130  1  0.75347459  0.41997619  0.55695077  1
  Se  Se131  1  0.75296444  0.74552532  0.05519521  1
  Se  Se132  1  0.75495875  0.75538493  0.55379698  1
  Se  Se133  1  0.24488705  0.24849778  0.05329483  1
  Se  Se134  1  0.24567661  0.23984508  0.55343468  1
  Se  Se135  1  0.24622127  0.58780989  0.05721932  1
  Se  Se136  1  0.25507198  0.58749836  0.55625561  1
  Se  Se137  1  0.24660768  0.91566073  0.05621379  1
  Se  Se138  1  0.25335623  0.91514343  0.55903518  1
  Se  Se139  1  0.57864943  0.23003935  0.03869893  1
  Se  Se140  1  0.58698256  0.25824307  0.55932852  1
  Se  Se141  1  0.57756838  0.57990700  0.05335657  1
  Se  Se142  1  0.59530561  0.59474852  0.56116649  1
  Se  Se143  1  0.57814743  0.90877122  0.04756826  1
  Se  Se144  1  0.59181680  0.92787429  0.55977655  1
  Se  Se145  1  0.91893479  0.24775905  0.05701796  1
  Se  Se146  1  0.91750128  0.25503044  0.56239290  1
  Se  Se147  1  0.91616583  0.57794092  0.05106576  1
  Se  Se148  1  0.91807039  0.58286347  0.54855082  1
  Se  Se149  1  0.92249155  0.91315610  0.05992646  1
  Se  Se150  1  0.91345425  0.91451709  0.55003076  1
  Se  Se151  1  0.08185591  0.24534060  0.44491926  1
  Se  Se152  1  0.08162688  0.24902766  0.95019997  1
  Se  Se153  1  0.07577482  0.58766120  0.43334425  1
  Se  Se154  1  0.08728919  0.57924083  0.94810005  1
  Se  Se155  1  0.07157695  0.92002191  0.43047653  1
  Se  Se156  1  0.08227054  0.91338718  0.95162280  1
  Se  Se157  1  0.40632255  0.25531936  0.43962985  1
  Se  Se158  1  0.40610543  0.25257479  0.94427507  1
  Se  Se159  1  0.41339778  0.58585650  0.44280618  1
  Se  Se160  1  0.41026042  0.58727179  0.95140272  1
  Se  Se161  1  0.41526323  0.91973238  0.43709983  1
  Se  Se162  1  0.41629966  0.91695299  0.94742638  1
  Se  Se163  1  0.74183105  0.25340472  0.43847122  1
  Se  Se164  1  0.76782424  0.23514707  0.95573628  1
  Se  Se165  1  0.75041705  0.57926282  0.44761508  1
  Se  Se166  1  0.75152995  0.58086365  0.95281346  1
  Se  Se167  1  0.74457982  0.92404620  0.44510970  1
  Se  Se168  1  0.78379257  0.88580963  0.94000478  1
  Se  Se169  1  0.24852875  0.07995579  0.44344622  1
  Se  Se170  1  0.24608011  0.08185597  0.94964201  1
  Se  Se171  1  0.25472246  0.40901247  0.44070008  1
  Se  Se172  1  0.24448593  0.41958988  0.94776504  1
  Se  Se173  1  0.26336261  0.73959474  0.44115776  1
  Se  Se174  1  0.24500586  0.75636642  0.94782754  1
  Se  Se175  1  0.59250766  0.07238636  0.44223919  1
  Se  Se176  1  0.62203245  0.05267129  0.92723377  1
  Se  Se177  1  0.58745759  0.40937227  0.43951169  1
  Se  Se178  1  0.57868712  0.41422632  0.95660759  1
  Se  Se179  1  0.59219431  0.74538677  0.43624948  1
  Se  Se180  1  0.58124615  0.74829645  0.95488273  1
  Se  Se181  1  0.92068814  0.07994810  0.43290863  1
  Se  Se182  1  0.92096055  0.08074674  0.95467174  1
  Se  Se183  1  0.91205336  0.41248231  0.44368263  1
  Se  Se184  1  0.91597597  0.41456468  0.94723693  1
  Se  Se185  1  0.91018391  0.75415327  0.44095260  1
  Se  Se186  1  0.92435148  0.73952871  0.94539866  1
  Se  Se187  1  0.25188309  0.24838594  0.30647441  1
  Se  Se188  1  0.23980001  0.24346892  0.81355577  1
  Se  Se189  1  0.25747214  0.58450225  0.29576263  1
  Se  Se190  1  0.24855522  0.58488971  0.80735702  1
  Se  Se191  1  0.25720177  0.92395539  0.29939084  1
  Se  Se192  1  0.25226104  0.92011235  0.80841373  1
  Se  Se193  1  0.58737160  0.25144716  0.29332261  1
  Se  Se194  1  0.58499406  0.24916553  0.82403421  1
  Se  Se195  1  0.57365336  0.56870573  0.30423337  1
  Se  Se196  1  0.58093611  0.57791996  0.82531751  1
  Se  Se197  1  0.58367079  0.91168373  0.30421238  1
  Se  Se198  1  0.57290196  0.91098680  0.81355700  1
  Se  Se199  1  0.91408961  0.25392399  0.29872832  1
  Se  Se200  1  0.92029796  0.25830896  0.81016820  1
  Se  Se201  1  0.90888063  0.57506192  0.30488218  1
  Se  Se202  1  0.90816423  0.58525341  0.81430638  1
  Se  Se203  1  0.92250497  0.92416784  0.29452993  1
  Se  Se204  1  0.90434197  0.92490226  0.81292210  1
  Se  Se205  1  0.08745994  0.08904511  0.30025909  1
  Se  Se206  1  0.08408519  0.08640103  0.81501321  1
  Se  Se207  1  0.09612288  0.42711974  0.30208687  1
  Se  Se208  1  0.07955984  0.41685706  0.80612243  1
  Se  Se209  1  0.09904479  0.76110682  0.30828667  1
  Se  Se210  1  0.08301531  0.75971732  0.81458186  1
  Se  Se211  1  0.42120077  0.08658135  0.29479007  1
  Se  Se212  1  0.41720933  0.08325953  0.80593807  1
  Se  Se213  1  0.42183991  0.41715356  0.30422383  1
  Se  Se214  1  0.41773383  0.42582235  0.81194623  1
  Se  Se215  1  0.42050496  0.75068163  0.29886543  1
  Se  Se216  1  0.41003278  0.74437259  0.80924292  1
  Se  Se217  1  0.75740341  0.09188253  0.30550478  1
  Se  Se218  1  0.75640959  0.09745632  0.81526749  1
  Se  Se219  1  0.74351732  0.41334681  0.29674258  1
  Se  Se220  1  0.75134500  0.41825744  0.81223593  1
  Se  Se221  1  0.75904487  0.74648745  0.29970454  1
  Se  Se222  1  0.74281480  0.76229147  0.81206742  1
  Se  Se223  1  0.25620706  0.08620296  0.19385969  1
  Se  Se224  1  0.24889193  0.08229307  0.69813607  1
  Se  Se225  1  0.23835764  0.43070231  0.18742606  1
  Se  Se226  1  0.24227881  0.41848036  0.69069599  1
  Se  Se227  1  0.25375725  0.75278520  0.19354227  1
  Se  Se228  1  0.25189378  0.74391150  0.70046027  1
  Se  Se229  1  0.58708189  0.09485739  0.17649725  1
  Se  Se230  1  0.57708532  0.09476755  0.69429527  1
  Se  Se231  1  0.58351007  0.40813658  0.18499558  1
  Se  Se232  1  0.58860684  0.42658296  0.70712127  1
  Se  Se233  1  0.58196918  0.76128216  0.18262857  1
  Se  Se234  1  0.57361373  0.75892569  0.69576731  1
  Se  Se235  1  0.92080166  0.08681555  0.19625928  1
  Se  Se236  1  0.90497381  0.09693837  0.69366744  1
  Se  Se237  1  0.91914898  0.41484728  0.19227742  1
  Se  Se238  1  0.91948700  0.41845274  0.70011401  1
  Se  Se239  1  0.94454767  0.72545727  0.19303587  1
  Se  Se240  1  0.91141869  0.76026470  0.69512022  1
  Se  Se241  1  0.08473320  0.25479351  0.19684282  1
  Se  Se242  1  0.07936607  0.24646354  0.69940417  1
  Se  Se243  1  0.05708111  0.61024085  0.19105063  1
  Se  Se244  1  0.09335329  0.57368164  0.69002677  1
  Se  Se245  1  0.08472542  0.92163596  0.19571190  1
  Se  Se246  1  0.09495023  0.90601088  0.69421683  1
  Se  Se247  1  0.42812346  0.24755393  0.17773937  1
  Se  Se248  1  0.42844873  0.24371938  0.69460440  1
  Se  Se249  1  0.41827811  0.58380472  0.19396245  1
  Se  Se250  1  0.43123846  0.57180948  0.70031326  1
  Se  Se251  1  0.42117770  0.92458765  0.19085526  1
  Se  Se252  1  0.41014485  0.91972938  0.70286296  1
  Se  Se253  1  0.74797119  0.24843762  0.18380930  1
  Se  Se254  1  0.74397800  0.26011838  0.70537981  1
  Se  Se255  1  0.75190490  0.57385301  0.18302826  1
  Se  Se256  1  0.76317035  0.58370848  0.69367163  1
  Se  Se257  1  0.76562877  0.90437405  0.19367498  1
  Se  Se258  1  0.75292307  0.91753886  0.69350605  1
