# generated using pymatgen
data_In86Cu29Se144
_symmetry_space_group_name_H-M   'P 1'
_cell_length_a   17.57119690
_cell_length_b   17.57657357
_cell_length_c   23.43018839
_cell_angle_alpha   90.00049648
_cell_angle_beta   89.98639166
_cell_angle_gamma   89.99567503
_symmetry_Int_Tables_number   1
_chemical_formula_structural   In86Cu29Se144
_chemical_formula_sum   'In86 Cu29 Se144'
_cell_volume   7236.21278233
_cell_formula_units_Z   1
loop_
 _symmetry_equiv_pos_site_id
 _symmetry_equiv_pos_as_xyz
  1  'x, y, z'
loop_
 _atom_site_type_symbol
 _atom_site_label
 _atom_site_symmetry_multiplicity
 _atom_site_fract_x
 _atom_site_fract_y
 _atom_site_fract_z
 _atom_site_occupancy
  In  In0  1  -0.02821001  0.18163522  0.14991430  1
  In  In1  1  -0.00900795  0.17840237  0.61421521  1
  In  In2  1  -0.03249822  0.52027497  0.13889760  1
  In  In3  1  0.00475374  0.50347989  0.61623846  1
  In  In4  1  0.00315856  0.84205008  0.12428320  1
  In  In5  1  -0.01862278  0.81346290  0.61382186  1
  In  In6  1  0.33472258  0.16865939  0.12633729  1
  In  In7  1  0.34926072  0.15639362  0.63059799  1
  In  In8  1  0.34137931  0.48745510  0.12407455  1
  In  In9  1  0.32889828  0.49560134  0.62375365  1
  In  In10  1  0.32167524  0.84458902  0.12278637  1
  In  In11  1  0.34268633  0.84087033  0.61833008  1
  In  In12  1  0.69346805  0.15536586  0.15088284  1
  In  In13  1  0.66416347  0.15953914  0.61406437  1
  In  In14  1  0.66634955  0.50471996  0.12804817  1
  In  In15  1  0.68031840  0.51439756  0.61347197  1
  In  In16  1  0.67419900  0.82355288  0.13883250  1
  In  In17  1  0.67238388  0.83882831  0.62551594  1
  In  In18  1  0.15220765  -0.00686170  0.37244809  1
  In  In19  1  0.16233588  -0.01664091  0.86857678  1
  In  In20  1  0.15929352  0.34466190  0.38182494  1
  In  In21  1  0.16635865  0.32228476  0.87226904  1
  In  In22  1  0.15869522  0.66620868  0.38735443  1
  In  In23  1  0.16796531  0.68511209  0.87604383  1
  In  In24  1  0.51791910  -0.01631588  0.38688691  1
  In  In25  1  0.50423150  0.00389128  0.87012893  1
  In  In26  1  0.51276168  0.32182516  0.38837105  1
  In  In27  1  0.50740704  0.35099430  0.86932542  1
  In  In28  1  0.51086930  0.65514238  0.38504307  1
  In  In29  1  0.50395311  0.65300016  0.87571397  1
  In  In30  1  0.83285731  -0.01202131  0.36504879  1
  In  In31  1  0.81717682  -0.01247273  0.86677624  1
  In  In32  1  0.82984449  0.34108875  0.37442671  1
  In  In33  1  0.84428275  0.33826082  0.87728963  1
  In  In34  1  0.82318116  0.67423280  0.37544931  1
  In  In35  1  0.82984562  0.66717772  0.87485313  1
  In  In36  1  -0.02184927  0.15536666  0.36268981  1
  In  In37  1  0.00176449  0.17705519  0.87612003  1
  In  In38  1  -0.00363147  0.49662666  0.38184033  1
  In  In39  1  -0.01919101  0.50152349  0.87814125  1
  In  In40  1  -0.00613465  0.84020666  0.37752178  1
  In  In41  1  0.00225193  0.83095682  0.87605518  1
  In  In42  1  0.33907780  0.17628667  0.37931773  1
  In  In43  1  0.33656859  0.16906955  0.86140125  1
  In  In44  1  0.33468930  0.49493848  0.38597152  1
  In  In45  1  0.34940651  0.50544803  0.86983532  1
  In  In46  1  0.33096434  0.83560769  0.38384573  1
  In  In47  1  0.32120884  0.82960443  0.87263680  1
  In  In48  1  0.67653552  0.16208630  0.37194746  1
  In  In49  1  0.67463694  0.15177047  0.87706335  1
  In  In50  1  0.67112042  0.50070296  0.37676064  1
  In  In51  1  0.66239374  0.50423599  0.87924013  1
  In  In52  1  0.67188410  0.82860959  0.36962154  1
  In  In53  1  0.67943483  0.84296388  0.86091503  1
  In  In54  1  0.14169936  -0.01493827  0.12098985  1
  In  In55  1  0.17702248  -0.00060476  0.62398771  1
  In  In56  1  0.16177698  0.32583481  0.12815950  1
  In  In57  1  0.16678294  0.35148554  0.61870023  1
  In  In58  1  0.15251042  0.67938940  0.12481860  1
  In  In59  1  0.15471917  0.65723367  0.61820907  1
  In  In60  1  0.50256023  0.00655641  0.12635075  1
  In  In61  1  0.50845519  -0.00131690  0.62302615  1
  In  In62  1  0.50812301  0.34600710  0.12069236  1
  In  In63  1  0.49899352  0.32497109  0.61802424  1
  In  In64  1  0.51885500  0.66643375  0.12463610  1
  In  In65  1  0.51448315  0.68239077  0.61564723  1
  In  In66  1  0.83898568  -0.01119312  0.13767299  1
  In  In67  1  0.81503847  -0.01962739  0.60973328  1
  In  In68  1  0.80530292  0.36702894  0.16545564  1
  In  In69  1  0.84807979  0.33756493  0.59965886  1
  In  In70  1  0.82193522  0.65962111  0.12168001  1
  In  In71  1  0.83577619  0.67291071  0.62860498  1
  In  In72  1  0.00127582  0.00028029  0.74696130  1
  In  In73  1  0.00354042  0.33932698  0.74122381  1
  In  In74  1  0.16704648  0.16237014  0.49751782  1
  In  In75  1  0.51127880  0.17181655  -0.00074898  1
  In  In76  1  -0.01205591  0.67570110  0.26294693  1
  In  In77  1  0.33694363  0.00358317  0.24961674  1
  In  In78  1  0.33616090  0.33601650  0.25141512  1
  In  In79  1  0.83606251  0.16498576  0.00845529  1
  In  In80  1  0.66456421  0.32899289  0.74196124  1
  In  In81  1  0.16431912  0.50654937  0.00361931  1
  In  In82  1  0.50439909  0.82966988  0.00366723  1
  In  In83  1  0.16336709  0.15915485  0.00678914  1
  In  In84  1  0.33702180  0.67088734  0.74779333  1
  In  In85  1  0.33521015  0.66910102  0.24429658  1
  Cu  Cu86  1  -0.00493830  -0.00546953  0.49302399  1
  Cu  Cu87  1  0.33989549  0.00047216  0.50280754  1
  Cu  Cu88  1  -0.00770624  0.67536084  0.00347725  1
  Cu  Cu89  1  -0.00946732  0.34622853  0.01310988  1
  Cu  Cu90  1  0.50342740  0.83773353  0.74401180  1
  Cu  Cu91  1  0.33360281  0.66690584  -0.00256735  1
  Cu  Cu92  1  0.67243726  -0.00037944  0.49365079  1
  Cu  Cu93  1  0.67288304  0.33529231  0.00936973  1
  Cu  Cu94  1  0.50440140  0.82660287  0.25816242  1
  Cu  Cu95  1  0.67040771  0.66285950  -0.00043394  1
  Cu  Cu96  1  0.32513234  -0.00373684  -0.00498305  1
  Cu  Cu97  1  0.16784808  0.83421447  0.74513962  1
  Cu  Cu98  1  0.16040526  0.50647721  0.26186691  1
  Cu  Cu99  1  0.49935417  0.49769323  0.74291593  1
  Cu  Cu100  1  0.33456799  0.33169652  0.50366445  1
  Cu  Cu101  1  0.50259597  0.16464505  0.74367895  1
  Cu  Cu102  1  0.50808888  0.16814158  0.26057075  1
  Cu  Cu103  1  0.82811312  0.50779707  0.74820774  1
  Cu  Cu104  1  0.17980413  0.16832485  0.74449529  1
  Cu  Cu105  1  0.51401794  0.49814622  0.25567125  1
  Cu  Cu106  1  0.66970425  0.67271414  0.49961358  1
  Cu  Cu107  1  -0.00407694  0.66320555  0.49802962  1
  Cu  Cu108  1  0.32985824  0.66461736  0.50392102  1
  Cu  Cu109  1  0.16394586  0.50462983  0.74496957  1
  Cu  Cu110  1  0.82779855  0.16359107  0.73877915  1
  Cu  Cu111  1  0.66646633  0.33591147  0.49453820  1
  Cu  Cu112  1  0.34075299  0.34452675  -0.00751307  1
  Cu  Cu113  1  -0.01003274  -0.00137784  0.00054334  1
  Cu  Cu114  1  0.16107642  0.16318003  0.25150732  1
  Se  Se115  1  0.05815369  0.08757816  0.06411225  1
  Se  Se116  1  0.07408162  0.07217546  0.55712728  1
  Se  Se117  1  0.07723670  0.42312824  0.07035845  1
  Se  Se118  1  0.05989827  0.39534850  0.55284700  1
  Se  Se119  1  0.08116694  0.75865039  0.04997406  1
  Se  Se120  1  0.08303105  0.74809031  0.54908521  1
  Se  Se121  1  0.40730496  0.07846375  0.05206713  1
  Se  Se122  1  0.42439202  0.08328650  0.55363049  1
  Se  Se123  1  0.42552185  0.42241102  0.04776034  1
  Se  Se124  1  0.41714314  0.41760027  0.55575477  1
  Se  Se125  1  0.40920114  0.74306361  0.06558549  1
  Se  Se126  1  0.41719180  0.75129671  0.55016911  1
  Se  Se127  1  0.74625244  0.07362364  0.06490313  1
  Se  Se128  1  0.75588965  0.08623542  0.54630240  1
  Se  Se129  1  0.75520161  0.41373053  0.06667120  1
  Se  Se130  1  0.75113455  0.42110405  0.54546205  1
  Se  Se131  1  0.74356387  0.75098106  0.05649578  1
  Se  Se132  1  0.75268371  0.75239323  0.55647636  1
  Se  Se133  1  0.26182669  0.26280659  0.05369628  1
  Se  Se134  1  0.25483346  0.24798554  0.56360802  1
  Se  Se135  1  0.25776158  0.59292601  0.06661429  1
  Se  Se136  1  0.24675666  0.57796905  0.55463948  1
  Se  Se137  1  0.23925009  0.92012779  0.05121364  1
  Se  Se138  1  0.25112293  0.91735148  0.55083940  1
  Se  Se139  1  0.60138177  0.24680978  0.06935688  1
  Se  Se140  1  0.58526074  0.24953402  0.54854406  1
  Se  Se141  1  0.58532980  0.57912245  0.05137448  1
  Se  Se142  1  0.58279617  0.58586047  0.54886506  1
  Se  Se143  1  0.58988914  0.91727557  0.06586339  1
  Se  Se144  1  0.59066156  0.91856358  0.55220206  1
  Se  Se145  1  0.90787060  0.26522531  0.06992658  1
  Se  Se146  1  0.91617193  0.24177161  0.53416020  1
  Se  Se147  1  0.91170927  0.58510262  0.05010419  1
  Se  Se148  1  0.91198592  0.58617835  0.55644074  1
  Se  Se149  1  0.90935220  0.91525967  0.05632035  1
  Se  Se150  1  0.91295674  0.90921234  0.54622358  1
  Se  Se151  1  0.07681831  0.23927151  0.43155385  1
  Se  Se152  1  0.07312031  0.26518019  0.95343744  1
  Se  Se153  1  0.08260054  0.57505769  0.45233954  1
  Se  Se154  1  0.07522679  0.59452710  0.94075344  1
  Se  Se155  1  0.08670032  0.91056936  0.44933253  1
  Se  Se156  1  0.07868263  0.92078258  0.94586346  1
  Se  Se157  1  0.41946898  0.24607105  0.45467375  1
  Se  Se158  1  0.41598464  0.25603235  0.93596366  1
  Se  Se159  1  0.41594006  0.58234526  0.45076025  1
  Se  Se160  1  0.41779202  0.58161182  0.94925314  1
  Se  Se161  1  0.42091495  0.91184499  0.45086898  1
  Se  Se162  1  0.41233457  0.91862359  0.93956439  1
  Se  Se163  1  0.74931126  0.25173196  0.44199243  1
  Se  Se164  1  0.74509878  0.25610960  0.94171142  1
  Se  Se165  1  0.75043000  0.58646809  0.44687498  1
  Se  Se166  1  0.75325874  0.57829751  0.94615375  1
  Se  Se167  1  0.75211957  0.91234849  0.44115066  1
  Se  Se168  1  0.74722397  0.91170078  0.94377107  1
  Se  Se169  1  0.25812774  0.07205103  0.43668555  1
  Se  Se170  1  0.25111857  0.08234192  0.93423584  1
  Se  Se171  1  0.24748248  0.41427303  0.45287438  1
  Se  Se172  1  0.25112621  0.41785284  0.93635279  1
  Se  Se173  1  0.24843249  0.74931883  0.44986477  1
  Se  Se174  1  0.24942964  0.75521019  0.95186108  1
  Se  Se175  1  0.58731296  0.08798676  0.44485761  1
  Se  Se176  1  0.59486345  0.06702978  0.94956366  1
  Se  Se177  1  0.58110494  0.42543640  0.44779563  1
  Se  Se178  1  0.58927592  0.41167621  0.94876405  1
  Se  Se179  1  0.58675324  0.75465306  0.44409669  1
  Se  Se180  1  0.58974625  0.74325915  0.93908638  1
  Se  Se181  1  0.90996032  0.07425283  0.43948715  1
  Se  Se182  1  0.91835410  0.08026930  0.93518253  1
  Se  Se183  1  0.91496868  0.41240857  0.44864557  1
  Se  Se184  1  0.90748504  0.42266645  0.95414188  1
  Se  Se185  1  0.91715705  0.74760314  0.44262061  1
  Se  Se186  1  0.91240836  0.75345484  0.94246053  1
  Se  Se187  1  0.24155984  0.24575368  0.30962950  1
  Se  Se188  1  0.25460615  0.25916613  0.79778063  1
  Se  Se189  1  0.25086852  0.58190069  0.31380849  1
  Se  Se190  1  0.24350495  0.58176864  0.80951060  1
  Se  Se191  1  0.24766657  0.91143833  0.30684418  1
  Se  Se192  1  0.25398444  0.91583724  0.79751576  1
  Se  Se193  1  0.59012004  0.25556931  0.30909297  1
  Se  Se194  1  0.58077681  0.24026958  0.81148739  1
  Se  Se195  1  0.59067934  0.58876899  0.30647235  1
  Se  Se196  1  0.58158798  0.57458114  0.80189073  1
  Se  Se197  1  0.58612963  0.91755369  0.30320528  1
  Se  Se198  1  0.58434970  0.92229943  0.80014287  1
  Se  Se199  1  0.90330460  0.25201125  0.30019017  1
  Se  Se200  1  0.90899202  0.24398589  0.79992326  1
  Se  Se201  1  0.90356485  0.57339918  0.31183090  1
  Se  Se202  1  0.91580310  0.58569016  0.80299143  1
  Se  Se203  1  0.93009733  0.91749193  0.29773594  1
  Se  Se204  1  0.91174031  0.90695556  0.80272231  1
  Se  Se205  1  0.07801126  0.07873180  0.30242879  1
  Se  Se206  1  0.09333391  0.09572227  0.80713162  1
  Se  Se207  1  0.07812478  0.41752572  0.30762977  1
  Se  Se208  1  0.08698065  0.42583628  0.81212823  1
  Se  Se209  1  0.09407139  0.75632061  0.31239887  1
  Se  Se210  1  0.08556352  0.75478594  0.80178534  1
  Se  Se211  1  0.42574846  0.08580191  0.31643839  1
  Se  Se212  1  0.41942434  0.08043493  0.79929415  1
  Se  Se213  1  0.42734559  0.41989964  0.31412753  1
  Se  Se214  1  0.41562446  0.41605700  0.79675693  1
  Se  Se215  1  0.41984096  0.74939366  0.31510337  1
  Se  Se216  1  0.42840913  0.75814553  0.81024643  1
  Se  Se217  1  0.73982544  0.06720704  0.30145453  1
  Se  Se218  1  0.74902236  0.08320756  0.79755471  1
  Se  Se219  1  0.74107451  0.41375431  0.30356556  1
  Se  Se220  1  0.75514378  0.41704564  0.80680967  1
  Se  Se221  1  0.76179296  0.75942907  0.29804893  1
  Se  Se222  1  0.72993290  0.72751061  0.80664904  1
  Se  Se223  1  0.23923411  0.08599022  0.18683409  1
  Se  Se224  1  0.25791460  0.07729896  0.69574484  1
  Se  Se225  1  0.23930947  0.42845983  0.19607784  1
  Se  Se226  1  0.24752302  0.41782519  0.69726964  1
  Se  Se227  1  0.23800819  0.76347257  0.19550353  1
  Se  Se228  1  0.24581113  0.75225042  0.68361957  1
  Se  Se229  1  0.58107533  0.08267973  0.20034129  1
  Se  Se230  1  0.58963428  0.08552253  0.69212916  1
  Se  Se231  1  0.58868279  0.41250868  0.19760788  1
  Se  Se232  1  0.58361993  0.42459617  0.68116119  1
  Se  Se233  1  0.58566502  0.74043101  0.20468875  1
  Se  Se234  1  0.58794392  0.75276058  0.69464934  1
  Se  Se235  1  0.91541281  0.07326278  0.20795772  1
  Se  Se236  1  0.91356504  0.08612671  0.68208286  1
  Se  Se237  1  0.94050908  0.40381237  0.20034194  1
  Se  Se238  1  0.90369394  0.42260328  0.68688210  1
  Se  Se239  1  0.91102376  0.75154245  0.18587922  1
  Se  Se240  1  0.92206270  0.74786342  0.69987668  1
  Se  Se241  1  0.08181511  0.25327013  0.20216164  1
  Se  Se242  1  0.09259345  0.24276555  0.68560867  1
  Se  Se243  1  0.08428684  0.58678089  0.19767341  1
  Se  Se244  1  0.07632152  0.58275666  0.69427647  1
  Se  Se245  1  0.07483738  0.91767714  0.20360473  1
  Se  Se246  1  0.08498572  0.90908360  0.68326982  1
  Se  Se247  1  0.42994760  0.24415447  0.19369848  1
  Se  Se248  1  0.42017028  0.25405977  0.69617902  1
  Se  Se249  1  0.42892552  0.57069093  0.19308418  1
  Se  Se250  1  0.42523822  0.58567783  0.68426514  1
  Se  Se251  1  0.42629528  0.90390359  0.19314940  1
  Se  Se252  1  0.41864438  0.92004450  0.69229865  1
  Se  Se253  1  0.77238790  0.24070891  0.21860672  1
  Se  Se254  1  0.76011053  0.25276810  0.67761159  1
  Se  Se255  1  0.76421554  0.56820974  0.19631423  1
  Se  Se256  1  0.74504573  0.58968749  0.69503732  1
  Se  Se257  1  0.73433718  0.92696579  0.20141270  1
  Se  Se258  1  0.75111946  0.92188260  0.69679031  1
