# generated using pymatgen
data_In86Cu29Se144
_symmetry_space_group_name_H-M   'P 1'
_cell_length_a   17.58148392
_cell_length_b   17.58364726
_cell_length_c   23.44829573
_cell_angle_alpha   90.00762825
_cell_angle_beta   90.00517922
_cell_angle_gamma   90.00059585
_symmetry_Int_Tables_number   1
_chemical_formula_structural   In86Cu29Se144
_chemical_formula_sum   'In86 Cu29 Se144'
_cell_volume   7248.96107703
_cell_formula_units_Z   1
loop_
 _symmetry_equiv_pos_site_id
 _symmetry_equiv_pos_as_xyz
  1  'x, y, z'
loop_
 _atom_site_type_symbol
 _atom_site_label
 _atom_site_symmetry_multiplicity
 _atom_site_fract_x
 _atom_site_fract_y
 _atom_site_fract_z
 _atom_site_occupancy
  In  In0  1  0.00079266  0.16970550  0.13589246  1
  In  In1  1  -0.00391563  0.15141636  0.62161728  1
  In  In2  1  -0.00535733  0.50447417  0.12199958  1
  In  In3  1  0.00462894  0.51045135  0.61206192  1
  In  In4  1  -0.00072804  0.82810984  0.12204255  1
  In  In5  1  -0.00222365  0.83188069  0.62677149  1
  In  In6  1  0.33667739  0.16324529  0.12577709  1
  In  In7  1  0.34348924  0.17459091  0.62003241  1
  In  In8  1  0.32729007  0.51980411  0.12206893  1
  In  In9  1  0.31464351  0.50148399  0.62786032  1
  In  In10  1  0.29454986  0.81188902  0.10090977  1
  In  In11  1  0.33416317  0.82094761  0.62303324  1
  In  In12  1  0.67775245  0.17263834  0.12604700  1
  In  In13  1  0.66206404  0.17443712  0.62639580  1
  In  In14  1  0.68010205  0.49570814  0.13565672  1
  In  In15  1  0.67879872  0.49634166  0.62940269  1
  In  In16  1  0.66954197  0.81432042  0.12492869  1
  In  In17  1  0.67088568  0.83097349  0.62724623  1
  In  In18  1  0.16897610  0.00706047  0.37778238  1
  In  In19  1  0.15373099  -0.00488866  0.86983214  1
  In  In20  1  0.15452671  0.34780050  0.38397048  1
  In  In21  1  0.16728141  0.33583661  0.86998342  1
  In  In22  1  0.14987740  0.65353328  0.36411049  1
  In  In23  1  0.13715726  0.69419939  0.91419739  1
  In  In24  1  0.50136172  0.00451083  0.38686677  1
  In  In25  1  0.50884781  -0.00950627  0.86938136  1
  In  In26  1  0.50889038  0.32894429  0.37789083  1
  In  In27  1  0.50267151  0.34237835  0.86355517  1
  In  In28  1  0.51069798  0.67661267  0.37237723  1
  In  In29  1  0.49739018  0.65556058  0.87040729  1
  In  In30  1  0.83903167  -0.01823036  0.37859952  1
  In  In31  1  0.82452514  -0.01253320  0.86544951  1
  In  In32  1  0.85738549  0.35962083  0.35673176  1
  In  In33  1  0.83136600  0.34999648  0.87644547  1
  In  In34  1  0.84054084  0.67025855  0.37741343  1
  In  In35  1  0.83539046  0.66947145  0.87703000  1
  In  In36  1  0.00803448  0.17353357  0.37285387  1
  In  In37  1  0.00835676  0.16247317  0.86993892  1
  In  In38  1  0.00031267  0.50960292  0.37679419  1
  In  In39  1  -0.02079134  0.53205982  0.90790746  1
  In  In40  1  -0.01368238  0.81730307  0.36412158  1
  In  In41  1  -0.00425735  0.82248556  0.87661999  1
  In  In42  1  0.33967533  0.16526138  0.38523175  1
  In  In43  1  0.32104558  0.17895974  0.86927641  1
  In  In44  1  0.31540917  0.50641145  0.37604426  1
  In  In45  1  0.33076932  0.49792352  0.87437928  1
  In  In46  1  0.34145644  0.83489746  0.37698843  1
  In  In47  1  0.31688571  0.82739206  0.87840938  1
  In  In48  1  0.66227676  0.17319799  0.38052686  1
  In  In49  1  0.67014862  0.16952622  0.86453815  1
  In  In50  1  0.69732732  0.52608868  0.35422210  1
  In  In51  1  0.66903584  0.50701904  0.86624544  1
  In  In52  1  0.68073635  0.82405115  0.38635909  1
  In  In53  1  0.67431221  0.83603255  0.86641469  1
  In  In54  1  0.15993515  -0.02292191  0.11839650  1
  In  In55  1  0.14643520  -0.00163947  0.62569962  1
  In  In56  1  0.15024906  0.33503566  0.12941383  1
  In  In57  1  0.17392288  0.34166116  0.62200631  1
  In  In58  1  0.16056646  0.66356037  0.12181754  1
  In  In59  1  0.16253144  0.65756090  0.62402157  1
  In  In60  1  0.49542609  -0.00178735  0.12515320  1
  In  In61  1  0.50747005  0.00728825  0.62085964  1
  In  In62  1  0.50914857  0.34361350  0.12646516  1
  In  In63  1  0.50921765  0.32599074  0.62529900  1
  In  In64  1  0.50957582  0.66328046  0.13770098  1
  In  In65  1  0.50033692  0.68221354  0.62024996  1
  In  In66  1  0.84866908  -0.00115333  0.12440212  1
  In  In67  1  0.84887635  -0.01555706  0.63350652  1
  In  In68  1  0.81855721  0.35557985  0.14332960  1
  In  In69  1  0.82350461  0.33950481  0.62613178  1
  In  In70  1  0.83611965  0.66154952  0.12039319  1
  In  In71  1  0.83526799  0.66313135  0.62386450  1
  In  In72  1  0.32818423  -0.01073043  0.24312491  1
  In  In73  1  -0.00043388  0.33629139  0.75422228  1
  In  In74  1  0.16431393  0.16445030  -0.00764704  1
  In  In75  1  0.82660080  0.17050470  0.50371544  1
  In  In76  1  0.67022810  -0.00290616  0.26048679  1
  In  In77  1  0.83755108  0.17078142  -0.00464222  1
  In  In78  1  0.50272600  0.16576535  0.00693771  1
  In  In79  1  0.50441095  0.49405391  0.49840481  1
  In  In80  1  0.33095129  0.33523386  0.26095726  1
  In  In81  1  0.33452588  0.00368982  0.75462059  1
  In  In82  1  0.16255489  0.82908329  0.50311462  1
  In  In83  1  0.49791447  0.83101838  -0.00295090  1
  In  In84  1  0.49884170  0.50140505  -0.00401948  1
  In  In85  1  0.32538228  0.66450352  0.75152533  1
  Cu  Cu86  1  0.15589076  0.50461471  0.75453656  1
  Cu  Cu87  1  0.50172059  0.16479227  0.25484629  1
  Cu  Cu88  1  0.33509460  0.00281811  0.50315456  1
  Cu  Cu89  1  0.50162455  0.50286974  0.24918198  1
  Cu  Cu90  1  0.16752654  0.16906523  0.74601237  1
  Cu  Cu91  1  0.50249973  0.17338721  0.74321208  1
  Cu  Cu92  1  0.33045873  0.66643618  0.49888170  1
  Cu  Cu93  1  0.83590645  0.16757215  0.25023116  1
  Cu  Cu94  1  0.33261444  0.32920226  -0.00242543  1
  Cu  Cu95  1  -0.00001808  -0.00331714  0.50093813  1
  Cu  Cu96  1  0.67288796  0.34004703  0.49725501  1
  Cu  Cu97  1  0.83550116  0.82948843  0.24880459  1
  Cu  Cu98  1  0.83145728  0.16277228  0.74393001  1
  Cu  Cu99  1  0.66985709  0.67010521  0.49819460  1
  Cu  Cu100  1  0.83629675  0.82446318  0.74926822  1
  Cu  Cu101  1  0.83627570  0.50798121  0.75409569  1
  Cu  Cu102  1  0.67401607  -0.00902600  -0.00682269  1
  Cu  Cu103  1  0.16406351  0.16304271  0.25493085  1
  Cu  Cu104  1  0.67281065  0.66158236  -0.00189592  1
  Cu  Cu105  1  0.66698320  -0.00291424  0.50573925  1
  Cu  Cu106  1  0.50623619  0.83328496  0.74659302  1
  Cu  Cu107  1  0.00402665  0.33587429  0.49492919  1
  Cu  Cu108  1  0.49816392  0.83079073  0.25296569  1
  Cu  Cu109  1  0.15813733  0.82539634  0.24228435  1
  Cu  Cu110  1  -0.00892496  0.34082421  0.00837889  1
  Cu  Cu111  1  0.33350491  0.32987788  0.50102053  1
  Cu  Cu112  1  0.49976612  0.49710832  0.74504965  1
  Cu  Cu113  1  0.16320787  0.50382735  0.24894244  1
  Cu  Cu114  1  0.00020525  -0.00878396  -0.00227198  1
  Se  Se115  1  0.07346973  0.08037935  0.05706832  1
  Se  Se116  1  0.08455079  0.08425356  0.54815110  1
  Se  Se117  1  0.08430232  0.41881073  0.05511108  1
  Se  Se118  1  0.08731902  0.41726062  0.55209082  1
  Se  Se119  1  0.10318856  0.76927959  0.05633531  1
  Se  Se120  1  0.07014374  0.73597601  0.55517781  1
  Se  Se121  1  0.40377423  0.07064971  0.05230718  1
  Se  Se122  1  0.42217260  0.08719867  0.55262392  1
  Se  Se123  1  0.40751107  0.41085760  0.06007919  1
  Se  Se124  1  0.40958142  0.41376196  0.56277800  1
  Se  Se125  1  0.42049709  0.74017763  0.06358294  1
  Se  Se126  1  0.41527847  0.75320357  0.54634483  1
  Se  Se127  1  0.74702114  0.07529248  0.05565386  1
  Se  Se128  1  0.74990657  0.07407853  0.56758726  1
  Se  Se129  1  0.74634861  0.41396452  0.05898696  1
  Se  Se130  1  0.75451698  0.42292649  0.55082550  1
  Se  Se131  1  0.75324398  0.74871597  0.05012472  1
  Se  Se132  1  0.75204881  0.75046580  0.55619577  1
  Se  Se133  1  0.25171752  0.25247482  0.05989778  1
  Se  Se134  1  0.24840824  0.24904945  0.55512063  1
  Se  Se135  1  0.23504026  0.57556421  0.04894262  1
  Se  Se136  1  0.24740806  0.58334991  0.55129688  1
  Se  Se137  1  0.26139674  0.93405953  0.04740010  1
  Se  Se138  1  0.25361473  0.92332965  0.56264514  1
  Se  Se139  1  0.59625177  0.26154667  0.05628851  1
  Se  Se140  1  0.59019713  0.25427038  0.54897368  1
  Se  Se141  1  0.58947379  0.58632113  0.05942705  1
  Se  Se142  1  0.58936399  0.58861787  0.55928049  1
  Se  Se143  1  0.59164646  0.92066803  0.05872345  1
  Se  Se144  1  0.58369537  0.91229188  0.55804229  1
  Se  Se145  1  0.91684462  0.25411780  0.06631667  1
  Se  Se146  1  0.92454990  0.26008750  0.56070870  1
  Se  Se147  1  0.92518259  0.59135225  0.04821629  1
  Se  Se148  1  0.89664322  0.56694479  0.55242679  1
  Se  Se149  1  0.91442437  0.91142505  0.05156150  1
  Se  Se150  1  0.91802969  0.91175251  0.55280526  1
  Se  Se151  1  0.08765660  0.24647223  0.44862064  1
  Se  Se152  1  0.06818023  0.26232992  0.94326248  1
  Se  Se153  1  0.09052099  0.58136851  0.44684139  1
  Se  Se154  1  0.10947975  0.56043204  0.95518982  1
  Se  Se155  1  0.07715179  0.91651583  0.43752899  1
  Se  Se156  1  0.08343311  0.91143619  0.94302922  1
  Se  Se157  1  0.42360432  0.25287395  0.44851540  1
  Se  Se158  1  0.41694387  0.25424057  0.93920547  1
  Se  Se159  1  0.41473224  0.58763766  0.43967892  1
  Se  Se160  1  0.40390844  0.59508237  0.94528491  1
  Se  Se161  1  0.41577587  0.91771941  0.44964913  1
  Se  Se162  1  0.41040158  0.92338545  0.93664078  1
  Se  Se163  1  0.75767945  0.26541497  0.43502414  1
  Se  Se164  1  0.74111392  0.25730539  0.93985432  1
  Se  Se165  1  0.75261611  0.58638056  0.44556569  1
  Se  Se166  1  0.75056826  0.57807401  0.94131754  1
  Se  Se167  1  0.75391695  0.91639932  0.45393614  1
  Se  Se168  1  0.75626277  0.90618899  0.94316198  1
  Se  Se169  1  0.25084998  0.08387444  0.44944847  1
  Se  Se170  1  0.25589530  0.07561429  0.93364772  1
  Se  Se171  1  0.25224654  0.41725085  0.44988713  1
  Se  Se172  1  0.25152944  0.40993979  0.94218783  1
  Se  Se173  1  0.24934545  0.74403853  0.43654193  1
  Se  Se174  1  0.26152559  0.74703543  0.95864050  1
  Se  Se175  1  0.58987868  0.08562042  0.45155731  1
  Se  Se176  1  0.59193284  0.07749764  0.94071200  1
  Se  Se177  1  0.60131462  0.42321136  0.43273461  1
  Se  Se178  1  0.58978466  0.41220190  0.93850100  1
  Se  Se179  1  0.58102176  0.75401671  0.45070781  1
  Se  Se180  1  0.58944081  0.74020736  0.93758045  1
  Se  Se181  1  0.91937967  0.08163900  0.44284885  1
  Se  Se182  1  0.92295064  0.07407096  0.93675251  1
  Se  Se183  1  0.91858781  0.42020638  0.44561542  1
  Se  Se184  1  0.90470248  0.42081893  0.95570328  1
  Se  Se185  1  0.91347335  0.76000080  0.44724957  1
  Se  Se186  1  0.92847440  0.73268971  0.94965254  1
  Se  Se187  1  0.24239957  0.24159129  0.31749416  1
  Se  Se188  1  0.24746343  0.25845517  0.79540468  1
  Se  Se189  1  0.25097577  0.58742735  0.29785031  1
  Se  Se190  1  0.23616972  0.58423289  0.81562493  1
  Se  Se191  1  0.23742147  0.90355745  0.30689687  1
  Se  Se192  1  0.24038534  0.90671247  0.80190177  1
  Se  Se193  1  0.58615107  0.24917208  0.30389568  1
  Se  Se194  1  0.58598535  0.25502626  0.79947370  1
  Se  Se195  1  0.58343597  0.58930703  0.30155323  1
  Se  Se196  1  0.58014281  0.58404352  0.79732342  1
  Se  Se197  1  0.57592334  0.90928645  0.31691229  1
  Se  Se198  1  0.59078988  0.91843788  0.79669641  1
  Se  Se199  1  0.92304551  0.24925288  0.30202445  1
  Se  Se200  1  0.90543343  0.24261297  0.81113302  1
  Se  Se201  1  0.90367979  0.57352800  0.30801160  1
  Se  Se202  1  0.92280789  0.58167979  0.81238636  1
  Se  Se203  1  0.91773326  0.91774485  0.29891821  1
  Se  Se204  1  0.91889262  0.90863461  0.80437961  1
  Se  Se205  1  0.08108145  0.07748723  0.30626893  1
  Se  Se206  1  0.08468325  0.08339861  0.79685425  1
  Se  Se207  1  0.08264204  0.42199911  0.30634650  1
  Se  Se208  1  0.07384393  0.43148725  0.81897698  1
  Se  Se209  1  0.07456644  0.74191548  0.29559234  1
  Se  Se210  1  0.09071252  0.73934791  0.81722722  1
  Se  Se211  1  0.41800711  0.08138306  0.30731025  1
  Se  Se212  1  0.42745086  0.09732273  0.81137575  1
  Se  Se213  1  0.42399005  0.42833275  0.31560052  1
  Se  Se214  1  0.41124679  0.42132008  0.80003934  1
  Se  Se215  1  0.41348178  0.74798939  0.30569307  1
  Se  Se216  1  0.42041825  0.75972132  0.80825681  1
  Se  Se217  1  0.76165863  0.08972244  0.31692302  1
  Se  Se218  1  0.74867325  0.07988665  0.79964333  1
  Se  Se219  1  0.73762941  0.40331459  0.30319970  1
  Se  Se220  1  0.75060447  0.41795281  0.79942093  1
  Se  Se221  1  0.75218556  0.75204825  0.30718104  1
  Se  Se222  1  0.75082194  0.74267659  0.80274991  1
  Se  Se223  1  0.23696758  0.08624023  0.18792345  1
  Se  Se224  1  0.24816598  0.08731102  0.68658393  1
  Se  Se225  1  0.24768285  0.42062695  0.19210064  1
  Se  Se226  1  0.24090587  0.42077125  0.70223440  1
  Se  Se227  1  0.24868934  0.74557485  0.19212869  1
  Se  Se228  1  0.23601423  0.75679072  0.69190578  1
  Se  Se229  1  0.58129644  0.08553010  0.19293259  1
  Se  Se230  1  0.58511312  0.08494911  0.69514216  1
  Se  Se231  1  0.58589074  0.41638663  0.20102862  1
  Se  Se232  1  0.58609123  0.41582861  0.69227748  1
  Se  Se233  1  0.58967699  0.75084923  0.20432638  1
  Se  Se234  1  0.58626383  0.74559911  0.69592257  1
  Se  Se235  1  0.91757497  0.08092282  0.19967116  1
  Se  Se236  1  0.92205731  0.07958413  0.69994759  1
  Se  Se237  1  0.93497340  0.40764820  0.19382537  1
  Se  Se238  1  0.91363967  0.42554657  0.69139376  1
  Se  Se239  1  0.91585371  0.74795221  0.19149119  1
  Se  Se240  1  0.91956878  0.74321553  0.69442973  1
  Se  Se241  1  0.08321625  0.25190064  0.20502108  1
  Se  Se242  1  0.08247909  0.24671889  0.68687052  1
  Se  Se243  1  0.07950515  0.58459226  0.19363593  1
  Se  Se244  1  0.07622060  0.58160724  0.69407291  1
  Se  Se245  1  0.07628137  0.91603242  0.19528111  1
  Se  Se246  1  0.07791172  0.91433397  0.69699978  1
  Se  Se247  1  0.42180637  0.24687435  0.19522240  1
  Se  Se248  1  0.41496305  0.25681936  0.69513402  1
  Se  Se249  1  0.41402716  0.58312730  0.19784980  1
  Se  Se250  1  0.41992916  0.58149074  0.68602243  1
  Se  Se251  1  0.41902576  0.89945354  0.18553227  1
  Se  Se252  1  0.41968394  0.91173906  0.68998842  1
  Se  Se253  1  0.74717820  0.24987712  0.20245703  1
  Se  Se254  1  0.75007558  0.25164162  0.69560152  1
  Se  Se255  1  0.74596638  0.59765224  0.19468462  1
  Se  Se256  1  0.75060836  0.58711748  0.69834695  1
  Se  Se257  1  0.75337317  0.91309875  0.19052326  1
  Se  Se258  1  0.75320292  0.91241689  0.69841305  1
