# generated using pymatgen
data_In86Cu29Se144
_symmetry_space_group_name_H-M   'P 1'
_cell_length_a   17.57978999
_cell_length_b   17.57876533
_cell_length_c   23.44564281
_cell_angle_alpha   90.01822798
_cell_angle_beta   90.02737865
_cell_angle_gamma   90.01291026
_symmetry_Int_Tables_number   1
_chemical_formula_structural   In86Cu29Se144
_chemical_formula_sum   'In86 Cu29 Se144'
_cell_volume   7245.42913241
_cell_formula_units_Z   1
loop_
 _symmetry_equiv_pos_site_id
 _symmetry_equiv_pos_as_xyz
  1  'x, y, z'
loop_
 _atom_site_type_symbol
 _atom_site_label
 _atom_site_symmetry_multiplicity
 _atom_site_fract_x
 _atom_site_fract_y
 _atom_site_fract_z
 _atom_site_occupancy
  In  In0  1  -0.00684525  0.15952571  0.12870972  1
  In  In1  1  0.00322963  0.16704764  0.62020280  1
  In  In2  1  0.00487569  0.50308065  0.11361382  1
  In  In3  1  0.00754967  0.49207007  0.63917595  1
  In  In4  1  0.00801202  0.83836399  0.11698152  1
  In  In5  1  -0.00409810  0.84086994  0.63702392  1
  In  In6  1  0.34159269  0.15487063  0.12872728  1
  In  In7  1  0.31652740  0.17805283  0.62993758  1
  In  In8  1  0.33354631  0.50196402  0.12250322  1
  In  In9  1  0.33577379  0.50034971  0.63792787  1
  In  In10  1  0.32676913  0.83004621  0.12212177  1
  In  In11  1  0.34088972  0.83363016  0.63829518  1
  In  In12  1  0.65607175  0.17837272  0.13045973  1
  In  In13  1  0.67599992  0.14802314  0.61653640  1
  In  In14  1  0.66362404  0.49447373  0.11886060  1
  In  In15  1  0.66241726  0.49406004  0.62873163  1
  In  In16  1  0.66332811  0.83134947  0.11752754  1
  In  In17  1  0.67177690  0.84336932  0.61232576  1
  In  In18  1  0.18028913  0.00991031  0.36823768  1
  In  In19  1  0.16691090  -0.00333541  0.87327003  1
  In  In20  1  0.17329119  0.32059741  0.37832858  1
  In  In21  1  0.17981313  0.34570070  0.86873706  1
  In  In22  1  0.17051781  0.65484522  0.37521018  1
  In  In23  1  0.16778261  0.66721576  0.87514136  1
  In  In24  1  0.48587709  -0.00018375  0.37518638  1
  In  In25  1  0.49174056  -0.00011675  0.88221484  1
  In  In26  1  0.49959299  0.32753659  0.36270130  1
  In  In27  1  0.47750772  0.35038070  0.88651331  1
  In  In28  1  0.50179029  0.68103719  0.37247836  1
  In  In29  1  0.48789291  0.67495797  0.87655365  1
  In  In30  1  0.84478269  -0.01075140  0.38173860  1
  In  In31  1  0.83670708  -0.00916773  0.87535700  1
  In  In32  1  0.82410929  0.33524650  0.37361104  1
  In  In33  1  0.84751450  0.33434475  0.87137911  1
  In  In34  1  0.83777247  0.67129455  0.37714974  1
  In  In35  1  0.83786599  0.66305074  0.87959732  1
  In  In36  1  0.02116310  0.16027213  0.38720671  1
  In  In37  1  0.00183065  0.16643252  0.86522064  1
  In  In38  1  -0.00463669  0.49905151  0.37346470  1
  In  In39  1  0.00147683  0.50262164  0.87503988  1
  In  In40  1  -0.01372629  0.83432270  0.37977857  1
  In  In41  1  0.00359423  0.83405434  0.87368708  1
  In  In42  1  0.33465143  0.16677216  0.37241297  1
  In  In43  1  0.33283557  0.16749743  0.87433156  1
  In  In44  1  0.33707900  0.50337445  0.36421012  1
  In  In45  1  0.33475118  0.50147585  0.87529367  1
  In  In46  1  0.33813721  0.84231192  0.37026652  1
  In  In47  1  0.34083391  0.82825489  0.87269072  1
  In  In48  1  0.66085331  0.17862812  0.37350732  1
  In  In49  1  0.66089395  0.15598252  0.87440446  1
  In  In50  1  0.67282837  0.48056604  0.36564829  1
  In  In51  1  0.65888830  0.50716239  0.88584600  1
  In  In52  1  0.66427987  0.84053142  0.38511702  1
  In  In53  1  0.66292797  0.84028389  0.88392748  1
  In  In54  1  0.17780716  -0.01488756  0.13100593  1
  In  In55  1  0.15985722  0.00895397  0.63275903  1
  In  In56  1  0.16866253  0.34980809  0.12048860  1
  In  In57  1  0.17110369  0.32261237  0.62487438  1
  In  In58  1  0.17482750  0.67843366  0.11496665  1
  In  In59  1  0.17049514  0.66046326  0.63967306  1
  In  In60  1  0.47233704  -0.02077594  0.10333270  1
  In  In61  1  0.49560942  -0.01337311  0.62772271  1
  In  In62  1  0.49720650  0.33297340  0.12136715  1
  In  In63  1  0.48942131  0.33048418  0.62935352  1
  In  In64  1  0.49062106  0.65537092  0.11473147  1
  In  In65  1  0.48251375  0.68089997  0.63852136  1
  In  In66  1  0.84510895  -0.00166890  0.12878321  1
  In  In67  1  0.84394169  0.01009189  0.61000609  1
  In  In68  1  0.82536022  0.33468721  0.12820370  1
  In  In69  1  0.84769290  0.33053032  0.62148406  1
  In  In70  1  0.83221722  0.66645273  0.11653281  1
  In  In71  1  0.82984962  0.67943157  0.62927474  1
  In  In72  1  0.66011962  0.00977779  0.25194746  1
  In  In73  1  0.82730463  0.16967794  0.00712726  1
  In  In74  1  0.83485391  0.50342710  0.49101807  1
  In  In75  1  0.16551621  0.83486632  0.50783261  1
  In  In76  1  0.66115041  0.67259906  0.75999887  1
  In  In77  1  0.50240643  0.16130534  0.49717870  1
  In  In78  1  0.00496463  0.33077826  0.25032364  1
  In  In79  1  0.16885421  0.49242944  0.50767763  1
  In  In80  1  0.65927271  0.33242825  0.74739568  1
  In  In81  1  0.17070816  0.16156673  -0.00491350  1
  In  In82  1  0.49718436  0.50497979  0.51010411  1
  In  In83  1  0.66091625  0.66092499  0.24064148  1
  In  In84  1  0.00136040  0.66848513  0.25575701  1
  In  In85  1  0.66594304  -0.00139192  0.74789717  1
  Cu  Cu86  1  0.33267553  0.00210168  0.49880606  1
  Cu  Cu87  1  -0.00594809  0.66647675  0.50855035  1
  Cu  Cu88  1  -0.00052496  0.66981935  -0.00628935  1
  Cu  Cu89  1  0.66234351  0.00100938  0.00017239  1
  Cu  Cu90  1  0.84404750  0.16415483  0.73979287  1
  Cu  Cu91  1  0.33978248  0.67660914  0.50514356  1
  Cu  Cu92  1  0.17119946  0.16518266  0.25340003  1
  Cu  Cu93  1  0.16432780  0.16330953  0.74997049  1
  Cu  Cu94  1  0.16590724  0.83585279  0.24427536  1
  Cu  Cu95  1  0.66611778  0.33376371  0.00263760  1
  Cu  Cu96  1  0.66042936  0.67192529  0.50072137  1
  Cu  Cu97  1  0.67224095  0.66710220  -0.00087345  1
  Cu  Cu98  1  0.84378919  0.83872311  0.75048670  1
  Cu  Cu99  1  0.33101255  0.66561259  -0.00342381  1
  Cu  Cu100  1  0.49900469  0.49673415  0.24002522  1
  Cu  Cu101  1  0.33366007  0.33518701  -0.00112929  1
  Cu  Cu102  1  0.17207134  0.83068740  0.75667303  1
  Cu  Cu103  1  0.00580830  -0.00202795  0.50491787  1
  Cu  Cu104  1  0.16259824  0.49833902  0.75731588  1
  Cu  Cu105  1  0.66555943  0.33028636  0.49570795  1
  Cu  Cu106  1  0.83917866  0.16443956  0.25243450  1
  Cu  Cu107  1  0.17422019  0.50483624  0.24487545  1
  Cu  Cu108  1  0.48503543  0.83503861  0.24634052  1
  Cu  Cu109  1  -0.00048026  -0.00441713  -0.00077897  1
  Cu  Cu110  1  0.49081758  0.16990665  0.75354201  1
  Cu  Cu111  1  0.83417604  0.49977469  0.75474329  1
  Cu  Cu112  1  0.83245097  0.83221184  0.25243518  1
  Cu  Cu113  1  0.49721959  0.16605544  0.24531616  1
  Cu  Cu114  1  0.00403979  0.34070137  -0.00567949  1
  Se  Se115  1  0.07886992  0.07683974  0.05989615  1
  Se  Se116  1  0.09097973  0.08370620  0.55298115  1
  Se  Se117  1  0.09009449  0.42324347  0.04525523  1
  Se  Se118  1  0.07004248  0.40649966  0.55992778  1
  Se  Se119  1  0.08395982  0.75261997  0.04769207  1
  Se  Se120  1  0.08023262  0.74010835  0.56746308  1
  Se  Se121  1  0.42012716  0.09404287  0.04797948  1
  Se  Se122  1  0.40991176  0.08248415  0.56293660  1
  Se  Se123  1  0.41705725  0.41955773  0.05315065  1
  Se  Se124  1  0.40204211  0.41028990  0.55853881  1
  Se  Se125  1  0.41315133  0.74929724  0.05250022  1
  Se  Se126  1  0.41885428  0.76121674  0.55908464  1
  Se  Se127  1  0.74011277  0.07607477  0.06646144  1
  Se  Se128  1  0.74795812  0.07327617  0.54117649  1
  Se  Se129  1  0.75487612  0.41508420  0.05222366  1
  Se  Se130  1  0.74386498  0.41437123  0.55516519  1
  Se  Se131  1  0.75302852  0.75482058  0.05079318  1
  Se  Se132  1  0.75290420  0.74890473  0.55103810  1
  Se  Se133  1  0.25389533  0.25375035  0.05942604  1
  Se  Se134  1  0.24834501  0.24918003  0.54877732  1
  Se  Se135  1  0.24893622  0.58187093  0.05211296  1
  Se  Se136  1  0.25968184  0.59218251  0.56092024  1
  Se  Se137  1  0.24314579  0.91036712  0.05227959  1
  Se  Se138  1  0.25728854  0.92445816  0.56478138  1
  Se  Se139  1  0.58123251  0.24867094  0.05182264  1
  Se  Se140  1  0.58874644  0.25554276  0.56195551  1
  Se  Se141  1  0.58699981  0.58284965  0.05113291  1
  Se  Se142  1  0.58710610  0.59756215  0.56784733  1
  Se  Se143  1  0.58032636  0.91045232  0.04771269  1
  Se  Se144  1  0.59078438  0.93634178  0.55370307  1
  Se  Se145  1  0.92836803  0.26054373  0.05839781  1
  Se  Se146  1  0.90326134  0.23272692  0.55364006  1
  Se  Se147  1  0.91770894  0.58579218  0.04931810  1
  Se  Se148  1  0.91755174  0.58070201  0.56645020  1
  Se  Se149  1  0.91245207  0.91590706  0.05283793  1
  Se  Se150  1  0.92490371  0.90843229  0.55440799  1
  Se  Se151  1  0.08716824  0.25854889  0.45224359  1
  Se  Se152  1  0.08071275  0.25496446  0.93726149  1
  Se  Se153  1  0.07342328  0.58750890  0.44791784  1
  Se  Se154  1  0.08453318  0.58381389  0.94468895  1
  Se  Se155  1  0.08484945  0.92167991  0.43879938  1
  Se  Se156  1  0.08496252  0.91709900  0.94473362  1
  Se  Se157  1  0.41657160  0.25927537  0.44175303  1
  Se  Se158  1  0.41363675  0.24568084  0.94832651  1
  Se  Se159  1  0.41261023  0.59237548  0.44225899  1
  Se  Se160  1  0.41786652  0.58246771  0.94618555  1
  Se  Se161  1  0.41473975  0.91460351  0.44871360  1
  Se  Se162  1  0.42848571  0.89902093  0.94605520  1
  Se  Se163  1  0.75072759  0.24818277  0.44493858  1
  Se  Se164  1  0.74462888  0.25598436  0.93778112  1
  Se  Se165  1  0.73232201  0.58951069  0.43606053  1
  Se  Se166  1  0.75519413  0.58085208  0.94852056  1
  Se  Se167  1  0.76281670  0.90574148  0.44778930  1
  Se  Se168  1  0.75212460  0.92155781  0.94908405  1
  Se  Se169  1  0.25319585  0.08762871  0.44513030  1
  Se  Se170  1  0.26342242  0.06784862  0.94450712  1
  Se  Se171  1  0.26096129  0.41794388  0.43916786  1
  Se  Se172  1  0.25008334  0.42060904  0.94749969  1
  Se  Se173  1  0.25274881  0.74629330  0.44299712  1
  Se  Se174  1  0.25102075  0.75120319  0.94264322  1
  Se  Se175  1  0.59150631  0.07273866  0.43582976  1
  Se  Se176  1  0.57997962  0.08476807  0.94797067  1
  Se  Se177  1  0.58152991  0.41307391  0.44185058  1
  Se  Se178  1  0.57996478  0.41638063  0.95004032  1
  Se  Se179  1  0.57655025  0.75582797  0.44887223  1
  Se  Se180  1  0.58525289  0.74469805  0.94432180  1
  Se  Se181  1  0.92520522  0.07932463  0.44647614  1
  Se  Se182  1  0.92106517  0.08495470  0.94412149  1
  Se  Se183  1  0.92658720  0.40392405  0.44285392  1
  Se  Se184  1  0.91440426  0.42079022  0.94489048  1
  Se  Se185  1  0.91385305  0.74815471  0.45221237  1
  Se  Se186  1  0.91570146  0.75614602  0.94357373  1
  Se  Se187  1  0.25472881  0.25221314  0.30201015  1
  Se  Se188  1  0.24779013  0.24643909  0.80480075  1
  Se  Se189  1  0.25432409  0.59085864  0.29887804  1
  Se  Se190  1  0.24916513  0.58261653  0.80604156  1
  Se  Se191  1  0.25124440  0.91733505  0.30024784  1
  Se  Se192  1  0.25511613  0.91633424  0.80696747  1
  Se  Se193  1  0.58640819  0.24897715  0.29423257  1
  Se  Se194  1  0.57371599  0.24731258  0.81341637  1
  Se  Se195  1  0.57509410  0.57303059  0.30862070  1
  Se  Se196  1  0.57212544  0.57470179  0.81028259  1
  Se  Se197  1  0.57360767  0.90778731  0.30627958  1
  Se  Se198  1  0.57743044  0.91215046  0.80884554  1
  Se  Se199  1  0.91973143  0.24263124  0.31433032  1
  Se  Se200  1  0.91855066  0.25024178  0.79796683  1
  Se  Se201  1  0.90225569  0.57362248  0.30448076  1
  Se  Se202  1  0.91644429  0.58564588  0.80566581  1
  Se  Se203  1  0.91919143  0.91516674  0.30216555  1
  Se  Se204  1  0.92515364  0.92378140  0.80348227  1
  Se  Se205  1  0.08352265  0.08442437  0.30423099  1
  Se  Se206  1  0.08333045  0.07742995  0.80277822  1
  Se  Se207  1  0.09588884  0.42629153  0.30891967  1
  Se  Se208  1  0.07705145  0.41196138  0.80583839  1
  Se  Se209  1  0.09278434  0.76054696  0.31468781  1
  Se  Se210  1  0.08291428  0.74810919  0.80485145  1
  Se  Se211  1  0.41575796  0.08358205  0.30195059  1
  Se  Se212  1  0.41630888  0.08079947  0.80788671  1
  Se  Se213  1  0.41746312  0.41570991  0.29863682  1
  Se  Se214  1  0.40395724  0.40891286  0.80439623  1
  Se  Se215  1  0.40960219  0.74726803  0.30228871  1
  Se  Se216  1  0.41687764  0.74672506  0.79800503  1
  Se  Se217  1  0.75795532  0.08694976  0.31451324  1
  Se  Se218  1  0.76244066  0.09104770  0.80485943  1
  Se  Se219  1  0.75755394  0.41106422  0.29447123  1
  Se  Se220  1  0.74820861  0.42122644  0.81133117  1
  Se  Se221  1  0.74689354  0.75234651  0.30741299  1
  Se  Se222  1  0.75848383  0.76496409  0.81173877  1
  Se  Se223  1  0.25007361  0.08091666  0.19613905  1
  Se  Se224  1  0.25314533  0.08192673  0.69978207  1
  Se  Se225  1  0.25438350  0.41639881  0.19469704  1
  Se  Se226  1  0.23896973  0.41838984  0.69422831  1
  Se  Se227  1  0.24799447  0.74766405  0.19575990  1
  Se  Se228  1  0.25482569  0.74770829  0.70191482  1
  Se  Se229  1  0.56608696  0.07796479  0.18255513  1
  Se  Se230  1  0.57539024  0.09558997  0.69164725  1
  Se  Se231  1  0.58526076  0.41327605  0.19086537  1
  Se  Se232  1  0.56450477  0.42895477  0.69723709  1
  Se  Se233  1  0.56931812  0.75682501  0.18803908  1
  Se  Se234  1  0.58909874  0.76519199  0.69006484  1
  Se  Se235  1  0.92130474  0.07776821  0.20313454  1
  Se  Se236  1  0.92357847  0.07654506  0.68886808  1
  Se  Se237  1  0.92085452  0.42282183  0.18830981  1
  Se  Se238  1  0.91192137  0.41246997  0.69978692  1
  Se  Se239  1  0.91265617  0.75383466  0.19066347  1
  Se  Se240  1  0.92001676  0.74481206  0.70114607  1
  Se  Se241  1  0.09540742  0.24322374  0.18683369  1
  Se  Se242  1  0.08271274  0.24697578  0.69417154  1
  Se  Se243  1  0.08827831  0.58389791  0.18909619  1
  Se  Se244  1  0.07890804  0.58509897  0.70552305  1
  Se  Se245  1  0.07657944  0.91724958  0.19592160  1
  Se  Se246  1  0.09029808  0.91431399  0.70072102  1
  Se  Se247  1  0.41476064  0.25182826  0.19284421  1
  Se  Se248  1  0.40810971  0.25274912  0.69945475  1
  Se  Se249  1  0.41500297  0.58560823  0.19399701  1
  Se  Se250  1  0.41523495  0.58622155  0.70333270  1
  Se  Se251  1  0.40669702  0.91946186  0.19121687  1
  Se  Se252  1  0.41545547  0.92435481  0.70556722  1
  Se  Se253  1  0.75513549  0.24319361  0.19710889  1
  Se  Se254  1  0.75158714  0.24168614  0.68803783  1
  Se  Se255  1  0.75920238  0.57449686  0.18829720  1
  Se  Se256  1  0.75113586  0.57845112  0.69562257  1
  Se  Se257  1  0.74872989  0.91165006  0.19383623  1
  Se  Se258  1  0.76302374  0.91590942  0.68790968  1
