# generated using pymatgen
data_In86Cu29Se144
_symmetry_space_group_name_H-M   'P 1'
_cell_length_a   17.56411571
_cell_length_b   17.57155931
_cell_length_c   23.43151851
_cell_angle_alpha   90.02743468
_cell_angle_beta   89.99719403
_cell_angle_gamma   90.01497052
_symmetry_Int_Tables_number   1
_chemical_formula_structural   In86Cu29Se144
_chemical_formula_sum   'In86 Cu29 Se144'
_cell_volume   7231.64272034
_cell_formula_units_Z   1
loop_
 _symmetry_equiv_pos_site_id
 _symmetry_equiv_pos_as_xyz
  1  'x, y, z'
loop_
 _atom_site_type_symbol
 _atom_site_label
 _atom_site_symmetry_multiplicity
 _atom_site_fract_x
 _atom_site_fract_y
 _atom_site_fract_z
 _atom_site_occupancy
  In  In0  1  -0.01387653  0.18045931  0.13586600  1
  In  In1  1  0.00459182  0.17877875  0.61831313  1
  In  In2  1  -0.01507382  0.51840948  0.13626341  1
  In  In3  1  -0.01241831  0.50532392  0.63345099  1
  In  In4  1  0.00893960  0.82388089  0.12370277  1
  In  In5  1  -0.00658223  0.83416253  0.63028235  1
  In  In6  1  0.31704495  0.16255995  0.13186243  1
  In  In7  1  0.33232900  0.16395332  0.61563877  1
  In  In8  1  0.33257874  0.51824707  0.12824338  1
  In  In9  1  0.34348123  0.51032092  0.62866203  1
  In  In10  1  0.33527674  0.83079074  0.11785947  1
  In  In11  1  0.32482231  0.82460732  0.62572286  1
  In  In12  1  0.68064843  0.16061942  0.12412661  1
  In  In13  1  0.66845705  0.16517293  0.62014616  1
  In  In14  1  0.68258424  0.49214100  0.12930311  1
  In  In15  1  0.70197603  0.46915896  0.66033582  1
  In  In16  1  0.65695590  0.84713530  0.12502167  1
  In  In17  1  0.66899001  0.83019475  0.63732052  1
  In  In18  1  0.17094537  0.00569324  0.36696396  1
  In  In19  1  0.14830086  -0.01934500  0.88249004  1
  In  In20  1  0.13981471  0.33148406  0.36663824  1
  In  In21  1  0.15869608  0.35192885  0.87578535  1
  In  In22  1  0.16178913  0.64549982  0.35198175  1
  In  In23  1  0.16588274  0.66924988  0.87322141  1
  In  In24  1  0.51108089  0.01138797  0.36430421  1
  In  In25  1  0.50086373  -0.01672771  0.88059730  1
  In  In26  1  0.50083884  0.31781173  0.37506819  1
  In  In27  1  0.51676264  0.32255398  0.87447146  1
  In  In28  1  0.50354709  0.66903867  0.36753257  1
  In  In29  1  0.50295948  0.67402758  0.87869003  1
  In  In30  1  0.84172996  0.00736624  0.36328671  1
  In  In31  1  0.83204066  0.01762976  0.88734275  1
  In  In32  1  0.83222947  0.33490743  0.37632241  1
  In  In33  1  0.82882889  0.32948990  0.87115697  1
  In  In34  1  0.82719224  0.65992200  0.36886905  1
  In  In35  1  0.82730916  0.65584351  0.87188286  1
  In  In36  1  -0.00483411  0.16971283  0.37583010  1
  In  In37  1  -0.03519662  0.16504670  0.88294326  1
  In  In38  1  -0.00777631  0.48652696  0.36070705  1
  In  In39  1  -0.02293701  0.48766522  0.85864250  1
  In  In40  1  -0.00067391  0.83033039  0.36174271  1
  In  In41  1  0.01464815  0.82983370  0.89005377  1
  In  In42  1  0.34261247  0.15852738  0.37658491  1
  In  In43  1  0.34026113  0.16909515  0.87638884  1
  In  In44  1  0.32723419  0.50720871  0.36839922  1
  In  In45  1  0.32271749  0.51425895  0.87616878  1
  In  In46  1  0.32591730  0.82605618  0.36643017  1
  In  In47  1  0.33954043  0.81232304  0.89999516  1
  In  In48  1  0.66723759  0.17043099  0.37391371  1
  In  In49  1  0.68193835  0.17499011  0.86212628  1
  In  In50  1  0.67866590  0.50924087  0.37099038  1
  In  In51  1  0.67764362  0.49995603  0.87025696  1
  In  In52  1  0.66384042  0.83051994  0.36368258  1
  In  In53  1  0.66082046  0.83031020  0.87785145  1
  In  In54  1  0.17402416  -0.00733794  0.13714354  1
  In  In55  1  0.15331411  0.00820974  0.62172163  1
  In  In56  1  0.15817412  0.32300038  0.12914739  1
  In  In57  1  0.16204146  0.32211517  0.62380171  1
  In  In58  1  0.15405161  0.67693323  0.12369756  1
  In  In59  1  0.16789115  0.66732763  0.63201450  1
  In  In60  1  0.51104347  -0.01395365  0.12693548  1
  In  In61  1  0.50432829  0.01014016  0.62123042  1
  In  In62  1  0.51965253  0.33999913  0.12584112  1
  In  In63  1  0.51040976  0.33168543  0.62286941  1
  In  In64  1  0.49538396  0.68261420  0.12556145  1
  In  In65  1  0.50670102  0.65721866  0.63457728  1
  In  In66  1  0.82091872  0.01379778  0.12820730  1
  In  In67  1  0.81889921  0.00041076  0.62549669  1
  In  In68  1  0.83241173  0.33681381  0.12155845  1
  In  In69  1  0.83874681  0.33095027  0.62353469  1
  In  In70  1  0.84390744  0.65443350  0.12369463  1
  In  In71  1  0.84532381  0.65234529  0.64588210  1
  In  In72  1  0.33188622  0.34082109  0.74408358  1
  In  In73  1  0.33972855  0.33384896  0.25239309  1
  In  In74  1  0.83312330  0.83272003  0.00076560  1
  In  In75  1  0.82959435  0.83905192  0.50182455  1
  In  In76  1  0.33753783  -0.00534739  0.75197045  1
  In  In77  1  0.51303543  0.50544142  -0.00826803  1
  In  In78  1  0.16946044  0.83843718  0.50003328  1
  In  In79  1  -0.00572278  -0.00453761  0.75897266  1
  In  In80  1  0.50798374  0.49548542  0.50677243  1
  In  In81  1  0.16022134  0.16158123  0.00355703  1
  In  In82  1  0.51378462  0.15727123  0.01194127  1
  In  In83  1  0.16103640  0.49395727  0.48950475  1
  In  In84  1  0.50151848  0.83378843  0.48918033  1
  In  In85  1  0.14869186  0.51110469  0.01052577  1
  Cu  Cu86  1  -0.00732064  0.33428959  0.49600726  1
  Cu  Cu87  1  0.50269451  0.16369250  0.24774723  1
  Cu  Cu88  1  0.66608623  0.66576910  -0.00140934  1
  Cu  Cu89  1  0.34463198  0.34496949  0.00361732  1
  Cu  Cu90  1  0.51264928  0.50553579  0.24562410  1
  Cu  Cu91  1  0.51826954  0.16574968  0.74617953  1
  Cu  Cu92  1  0.66530766  0.00616079  0.49551784  1
  Cu  Cu93  1  0.15978579  0.16719539  0.75226922  1
  Cu  Cu94  1  0.17406240  0.82512923  0.75702962  1
  Cu  Cu95  1  0.32551924  -0.00444454  0.00533318  1
  Cu  Cu96  1  0.33297759  0.66691309  0.49733770  1
  Cu  Cu97  1  0.83030278  0.17440827  0.25189664  1
  Cu  Cu98  1  0.83262911  0.83000644  0.75949483  1
  Cu  Cu99  1  0.32672174  0.32444067  0.49619023  1
  Cu  Cu100  1  0.83348345  0.16772334  0.74683396  1
  Cu  Cu101  1  0.49656663  0.82847879  0.76003179  1
  Cu  Cu102  1  0.67138006  0.33256645  0.50275907  1
  Cu  Cu103  1  0.15781699  0.16502843  0.25352430  1
  Cu  Cu104  1  0.15571424  0.50645234  0.75333595  1
  Cu  Cu105  1  0.49248246  0.50461589  0.75822382  1
  Cu  Cu106  1  0.83580782  0.49709681  0.24896847  1
  Cu  Cu107  1  -0.00919364  0.66375447  0.50165323  1
  Cu  Cu108  1  0.68121360  0.65548640  0.50415388  1
  Cu  Cu109  1  0.83332038  0.83004257  0.24013981  1
  Cu  Cu110  1  0.00083726  0.01373860  0.49370362  1
  Cu  Cu111  1  -0.01291133  0.32770355  -0.00166702  1
  Cu  Cu112  1  0.16759257  0.83005709  0.24582674  1
  Cu  Cu113  1  0.49533988  0.83546866  0.24629187  1
  Cu  Cu114  1  0.33552441  0.01175586  0.49109965  1
  Se  Se115  1  0.08088847  0.08589059  0.07701171  1
  Se  Se116  1  0.08612072  0.09301575  0.54853333  1
  Se  Se117  1  0.07105669  0.40133846  0.05919016  1
  Se  Se118  1  0.07426266  0.41404158  0.55887220  1
  Se  Se119  1  0.07515570  0.74201448  0.04551686  1
  Se  Se120  1  0.07498830  0.74532673  0.55842825  1
  Se  Se121  1  0.40407740  0.07933365  0.06387479  1
  Se  Se122  1  0.42213977  0.08638996  0.54908411  1
  Se  Se123  1  0.42171073  0.42324679  0.06349827  1
  Se  Se124  1  0.40303678  0.40702409  0.55818282  1
  Se  Se125  1  0.42180971  0.75434472  0.04798269  1
  Se  Se126  1  0.41672516  0.74362871  0.55699627  1
  Se  Se127  1  0.74766320  0.08084311  0.04677701  1
  Se  Se128  1  0.75325773  0.08413940  0.54941700  1
  Se  Se129  1  0.76696710  0.43263779  0.05172791  1
  Se  Se130  1  0.74648540  0.41825527  0.56164250  1
  Se  Se131  1  0.74404161  0.74394939  0.06360203  1
  Se  Se132  1  0.75042854  0.74506331  0.56509725  1
  Se  Se133  1  0.25811223  0.25973598  0.05553489  1
  Se  Se134  1  0.24240233  0.24465531  0.55163538  1
  Se  Se135  1  0.25529102  0.59783013  0.05395599  1
  Se  Se136  1  0.25135783  0.58496361  0.55509535  1
  Se  Se137  1  0.24015522  0.91450520  0.05719778  1
  Se  Se138  1  0.26132807  0.93252005  0.55887685  1
  Se  Se139  1  0.60347366  0.26233865  0.05389026  1
  Se  Se140  1  0.58339931  0.24836924  0.55077766  1
  Se  Se141  1  0.59070812  0.58766528  0.06517881  1
  Se  Se142  1  0.59736511  0.58217279  0.56596093  1
  Se  Se143  1  0.58643025  0.92265854  0.04647913  1
  Se  Se144  1  0.59297062  0.91680994  0.55540482  1
  Se  Se145  1  0.90860021  0.24233027  0.05349752  1
  Se  Se146  1  0.91214979  0.24765999  0.54873512  1
  Se  Se147  1  0.92128410  0.57817934  0.04924647  1
  Se  Se148  1  0.90958991  0.58506138  0.55910277  1
  Se  Se149  1  0.91311756  0.91859568  0.06944362  1
  Se  Se150  1  0.92760865  0.93131945  0.55819036  1
  Se  Se151  1  0.08008552  0.25139113  0.44676806  1
  Se  Se152  1  0.07659996  0.25456076  0.93833942  1
  Se  Se153  1  0.07301124  0.59121319  0.43582090  1
  Se  Se154  1  0.07280326  0.57323809  0.92694757  1
  Se  Se155  1  0.07458246  0.92027618  0.43820235  1
  Se  Se156  1  0.06671362  0.92802405  0.96408010  1
  Se  Se157  1  0.41814411  0.24478008  0.44810974  1
  Se  Se158  1  0.41989473  0.25629940  0.94811572  1
  Se  Se159  1  0.41745122  0.58537056  0.44226546  1
  Se  Se160  1  0.40672863  0.59319112  0.94729766  1
  Se  Se161  1  0.40860414  0.92374798  0.43216417  1
  Se  Se162  1  0.41513031  0.91611643  0.95451851  1
  Se  Se163  1  0.75087581  0.24989949  0.44488387  1
  Se  Se164  1  0.77176068  0.22614239  0.93937524  1
  Se  Se165  1  0.76310337  0.57635252  0.44758190  1
  Se  Se166  1  0.74765958  0.58073006  0.94746751  1
  Se  Se167  1  0.74196368  0.92196441  0.43492655  1
  Se  Se168  1  0.74022493  0.92521923  0.94480718  1
  Se  Se169  1  0.24285016  0.08920526  0.44167821  1
  Se  Se170  1  0.25423625  0.07672476  0.93959567  1
  Se  Se171  1  0.25573620  0.40442932  0.43220752  1
  Se  Se172  1  0.25344292  0.41962716  0.94914348  1
  Se  Se173  1  0.24488126  0.73810910  0.43740130  1
  Se  Se174  1  0.22191205  0.75959172  0.95029421  1
  Se  Se175  1  0.57993102  0.08836358  0.44326499  1
  Se  Se176  1  0.58628914  0.08784178  0.93004713  1
  Se  Se177  1  0.59117532  0.41099028  0.43819016  1
  Se  Se178  1  0.60209630  0.40411834  0.94347718  1
  Se  Se179  1  0.60004132  0.73563046  0.44323273  1
  Se  Se180  1  0.58140733  0.75257579  0.95234336  1
  Se  Se181  1  0.90731829  0.08712771  0.44296729  1
  Se  Se182  1  0.94586526  0.05490049  0.95324033  1
  Se  Se183  1  0.91659082  0.42331146  0.44279500  1
  Se  Se184  1  0.91158403  0.41349160  0.94126599  1
  Se  Se185  1  0.91928807  0.74979137  0.44016673  1
  Se  Se186  1  0.91807685  0.73686160  0.94213192  1
  Se  Se187  1  0.24525991  0.24596889  0.31113183  1
  Se  Se188  1  0.24520415  0.24925501  0.80949919  1
  Se  Se189  1  0.27131704  0.59219438  0.29101598  1
  Se  Se190  1  0.24585769  0.58720414  0.80046629  1
  Se  Se191  1  0.24867625  0.91555112  0.30071366  1
  Se  Se192  1  0.24966064  0.91025279  0.81666768  1
  Se  Se193  1  0.58403053  0.24947054  0.30030834  1
  Se  Se194  1  0.59533431  0.25801249  0.79500721  1
  Se  Se195  1  0.59271892  0.58942224  0.30307982  1
  Se  Se196  1  0.57910315  0.58216708  0.81307415  1
  Se  Se197  1  0.58336527  0.91797777  0.29805194  1
  Se  Se198  1  0.58352788  0.91615129  0.80454853  1
  Se  Se199  1  0.91652309  0.25508975  0.30588418  1
  Se  Se200  1  0.91850140  0.24861754  0.80067586  1
  Se  Se201  1  0.91824079  0.58602249  0.30031573  1
  Se  Se202  1  0.90714219  0.58503834  0.79480466  1
  Se  Se203  1  0.91490688  0.91429652  0.29669635  1
  Se  Se204  1  0.90989264  0.90820335  0.82364079  1
  Se  Se205  1  0.07297434  0.08149294  0.30626735  1
  Se  Se206  1  0.08474605  0.08861445  0.81726323  1
  Se  Se207  1  0.10944584  0.44387117  0.30169932  1
  Se  Se208  1  0.07724929  0.41128362  0.79650127  1
  Se  Se209  1  0.08206601  0.74441045  0.29620528  1
  Se  Se210  1  0.07822669  0.75336819  0.80736454  1
  Se  Se211  1  0.41432866  0.08288944  0.29832230  1
  Se  Se212  1  0.43125969  0.09106610  0.80708069  1
  Se  Se213  1  0.43328134  0.42659231  0.30984574  1
  Se  Se214  1  0.41790514  0.41799068  0.81798664  1
  Se  Se215  1  0.41639308  0.74817523  0.30118303  1
  Se  Se216  1  0.40868970  0.75133155  0.81320125  1
  Se  Se217  1  0.74658356  0.08685593  0.30271806  1
  Se  Se218  1  0.75923193  0.07624616  0.80073722  1
  Se  Se219  1  0.75160616  0.41625419  0.30419716  1
  Se  Se220  1  0.74939037  0.41198781  0.79989137  1
  Se  Se221  1  0.75242576  0.74915027  0.29983041  1
  Se  Se222  1  0.74486614  0.74900550  0.80977562  1
  Se  Se223  1  0.24851353  0.08206322  0.20768568  1
  Se  Se224  1  0.24286097  0.08862179  0.69382532  1
  Se  Se225  1  0.25149302  0.41620474  0.18708555  1
  Se  Se226  1  0.23706126  0.43060379  0.68626465  1
  Se  Se227  1  0.25038549  0.75051935  0.18864274  1
  Se  Se228  1  0.25614405  0.74373162  0.70138196  1
  Se  Se229  1  0.58423455  0.08564617  0.18850059  1
  Se  Se230  1  0.59395834  0.07606467  0.69297607  1
  Se  Se231  1  0.59553498  0.41570172  0.20092787  1
  Se  Se232  1  0.56935703  0.42180953  0.69768562  1
  Se  Se233  1  0.58549213  0.75546796  0.19537791  1
  Se  Se234  1  0.57970541  0.74986246  0.70157110  1
  Se  Se235  1  0.91037642  0.08564420  0.19979459  1
  Se  Se236  1  0.91727334  0.08467896  0.68800017  1
  Se  Se237  1  0.91853882  0.41230580  0.19522443  1
  Se  Se238  1  0.90481434  0.42001845  0.69739915  1
  Se  Se239  1  0.92010599  0.74503848  0.19175754  1
  Se  Se240  1  0.92102443  0.75456742  0.70403096  1
  Se  Se241  1  0.07730442  0.25492545  0.20554981  1
  Se  Se242  1  0.07868253  0.25126560  0.69827548  1
  Se  Se243  1  0.10085825  0.57079216  0.19016196  1
  Se  Se244  1  0.07708775  0.59023464  0.69608184  1
  Se  Se245  1  0.07861565  0.91259709  0.19735265  1
  Se  Se246  1  0.09515398  0.91047137  0.69691150  1
  Se  Se247  1  0.42552053  0.24562084  0.18551433  1
  Se  Se248  1  0.42210830  0.23960564  0.69098187  1
  Se  Se249  1  0.42627858  0.58741989  0.19554584  1
  Se  Se250  1  0.41170449  0.59036193  0.70505991  1
  Se  Se251  1  0.41202413  0.91687940  0.19094299  1
  Se  Se252  1  0.42629963  0.90580171  0.68721562  1
  Se  Se253  1  0.74992791  0.25435788  0.19265797  1
  Se  Se254  1  0.75100683  0.24675848  0.68953734  1
  Se  Se255  1  0.75438934  0.58548882  0.19739116  1
  Se  Se256  1  0.72423840  0.60541739  0.69590513  1
  Se  Se257  1  0.74761522  0.91904506  0.19520191  1
  Se  Se258  1  0.75523287  0.91470378  0.70185300  1
