# generated using pymatgen
data_In86Cu29Se144
_symmetry_space_group_name_H-M   'P 1'
_cell_length_a   17.58739869
_cell_length_b   17.58215784
_cell_length_c   23.44808885
_cell_angle_alpha   90.01049713
_cell_angle_beta   89.98984859
_cell_angle_gamma   90.00849818
_symmetry_Int_Tables_number   1
_chemical_formula_structural   In86Cu29Se144
_chemical_formula_sum   'In86 Cu29 Se144'
_cell_volume   7250.72135369
_cell_formula_units_Z   1
loop_
 _symmetry_equiv_pos_site_id
 _symmetry_equiv_pos_as_xyz
  1  'x, y, z'
loop_
 _atom_site_type_symbol
 _atom_site_label
 _atom_site_symmetry_multiplicity
 _atom_site_fract_x
 _atom_site_fract_y
 _atom_site_fract_z
 _atom_site_occupancy
  In  In0  1  -0.02854854  0.16035568  0.12569956  1
  In  In1  1  0.00246603  0.16266602  0.63216457  1
  In  In2  1  -0.00534760  0.48789022  0.10552348  1
  In  In3  1  0.01040676  0.48793872  0.63013576  1
  In  In4  1  -0.00166832  0.85089116  0.12794118  1
  In  In5  1  0.01236264  0.84200684  0.61807543  1
  In  In6  1  0.33259425  0.14882436  0.12548674  1
  In  In7  1  0.32644679  0.15730613  0.62023565  1
  In  In8  1  0.32215834  0.51337257  0.11708428  1
  In  In9  1  0.32786984  0.51252179  0.62670330  1
  In  In10  1  0.33927482  0.83312755  0.12906773  1
  In  In11  1  0.33867810  0.83548947  0.62364225  1
  In  In12  1  0.67745341  0.17735290  0.11967321  1
  In  In13  1  0.66371189  0.18160276  0.61969864  1
  In  In14  1  0.67542695  0.48666868  0.12980034  1
  In  In15  1  0.67219814  0.49853086  0.63582440  1
  In  In16  1  0.65710118  0.82396516  0.11965962  1
  In  In17  1  0.65664603  0.82540505  0.61787798  1
  In  In18  1  0.16911001  -0.00343228  0.37452817  1
  In  In19  1  0.16630724  -0.00141915  0.86268229  1
  In  In20  1  0.15728748  0.32973194  0.39203203  1
  In  In21  1  0.16333402  0.34689892  0.87169360  1
  In  In22  1  0.16827431  0.67253606  0.38705506  1
  In  In23  1  0.16919754  0.65763625  0.86920542  1
  In  In24  1  0.48992927  0.00971746  0.38030908  1
  In  In25  1  0.49681966  0.00450566  0.87868744  1
  In  In26  1  0.50812008  0.32124345  0.37875019  1
  In  In27  1  0.50087180  0.31319250  0.87461131  1
  In  In28  1  0.50586170  0.66794385  0.37424462  1
  In  In29  1  0.50516012  0.67321495  0.87014885  1
  In  In30  1  0.82695114  -0.01068661  0.37226898  1
  In  In31  1  0.84156121  -0.00570853  0.88356254  1
  In  In32  1  0.83209572  0.33932544  0.37161484  1
  In  In33  1  0.83550329  0.33441518  0.87542064  1
  In  In34  1  0.82938516  0.67777622  0.37353214  1
  In  In35  1  0.82442151  0.67431725  0.88301140  1
  In  In36  1  0.01367920  0.17117288  0.37845825  1
  In  In37  1  -0.00547528  0.16158649  0.87080507  1
  In  In38  1  0.00065354  0.50204512  0.37860385  1
  In  In39  1  0.00453159  0.48876186  0.88326517  1
  In  In40  1  -0.00161366  0.83643648  0.38004941  1
  In  In41  1  -0.00897882  0.83490282  0.87408409  1
  In  In42  1  0.33457978  0.15818797  0.37862668  1
  In  In43  1  0.34620076  0.16150985  0.87515033  1
  In  In44  1  0.32655525  0.49978048  0.38032842  1
  In  In45  1  0.32333715  0.50434106  0.87221308  1
  In  In46  1  0.31503641  0.85195675  0.39287522  1
  In  In47  1  0.34029073  0.84059280  0.86653840  1
  In  In48  1  0.66433281  0.16482844  0.37301085  1
  In  In49  1  0.66337029  0.17282509  0.87871621  1
  In  In50  1  0.66493832  0.50193840  0.36778163  1
  In  In51  1  0.67568436  0.50675897  0.86971199  1
  In  In52  1  0.67235729  0.82736211  0.37987060  1
  In  In53  1  0.67191253  0.82630181  0.88151268  1
  In  In54  1  0.16310663  -0.00542369  0.14342005  1
  In  In55  1  0.16807428  0.00168535  0.62726198  1
  In  In56  1  0.15491938  0.34045510  0.12248299  1
  In  In57  1  0.15211311  0.32052288  0.61138786  1
  In  In58  1  0.17397845  0.65714183  0.12206770  1
  In  In59  1  0.19021120  0.68554748  0.60494324  1
  In  In60  1  0.49636612  -0.00928260  0.11975335  1
  In  In61  1  0.49021660  -0.01128897  0.61643265  1
  In  In62  1  0.51536123  0.33386719  0.12333638  1
  In  In63  1  0.51523534  0.33017294  0.62429427  1
  In  In64  1  0.49470903  0.68398040  0.12306638  1
  In  In65  1  0.48960931  0.67852581  0.63496491  1
  In  In66  1  0.84024278  0.00904148  0.12029337  1
  In  In67  1  0.84865825  -0.00046602  0.62473858  1
  In  In68  1  0.82469363  0.31618135  0.10734718  1
  In  In69  1  0.83140667  0.33577857  0.63542110  1
  In  In70  1  0.82566762  0.65641948  0.11772104  1
  In  In71  1  0.82144914  0.66788446  0.62954575  1
  In  In72  1  0.83534423  0.16533579  0.50119571  1
  In  In73  1  0.00012048  0.66816335  0.25483114  1
  In  In74  1  0.66686819  0.00102103  0.74779911  1
  In  In75  1  0.33927464  0.33156063  0.25867375  1
  In  In76  1  0.16522223  0.82699091  0.00219271  1
  In  In77  1  0.66895175  0.00171232  0.24692218  1
  In  In78  1  0.00006843  0.66511328  0.74923956  1
  In  In79  1  0.16325965  0.17111708  0.00162484  1
  In  In80  1  0.33527546  0.67613937  0.24869381  1
  In  In81  1  0.50009682  0.50131482  -0.00330408  1
  In  In82  1  0.83895985  0.49652115  0.50949403  1
  In  In83  1  -0.00445948  0.32762464  0.24508239  1
  In  In84  1  0.49563094  0.50220104  0.50227125  1
  In  In85  1  0.33364429  0.33488003  0.75219198  1
  Cu  Cu86  1  0.16470674  0.16887939  0.74431117  1
  Cu  Cu87  1  0.33510982  -0.00436009  -0.00081548  1
  Cu  Cu88  1  0.17168076  0.83581236  0.73999440  1
  Cu  Cu89  1  0.50352064  0.16663465  0.25288062  1
  Cu  Cu90  1  0.82872022  0.82926002  0.25039811  1
  Cu  Cu91  1  0.66488176  0.66408938  0.50277138  1
  Cu  Cu92  1  0.66064618  0.66628471  0.00031918  1
  Cu  Cu93  1  0.00029626  0.66713225  0.49831276  1
  Cu  Cu94  1  0.67019167  0.33053066  -0.00197166  1
  Cu  Cu95  1  -0.00449279  0.66839529  -0.00620357  1
  Cu  Cu96  1  0.16576986  0.50331055  0.74642689  1
  Cu  Cu97  1  0.33250009  0.33053831  0.49949505  1
  Cu  Cu98  1  0.50624559  0.50117344  0.74972116  1
  Cu  Cu99  1  0.33622135  0.33048119  -0.00551526  1
  Cu  Cu100  1  0.82374297  0.49775265  0.24264795  1
  Cu  Cu101  1  0.66647287  0.00015039  0.00158841  1
  Cu  Cu102  1  0.83312548  0.49990259  0.75604977  1
  Cu  Cu103  1  -0.00116158  0.00487633  0.00225338  1
  Cu  Cu104  1  0.49947852  0.16041762  0.75107079  1
  Cu  Cu105  1  0.16276234  0.50037489  0.24794879  1
  Cu  Cu106  1  0.83422443  0.83809857  0.75602050  1
  Cu  Cu107  1  0.83366149  0.16853983  0.75103184  1
  Cu  Cu108  1  0.16596720  0.15933586  0.25427818  1
  Cu  Cu109  1  0.00631140  -0.00261159  0.50196094  1
  Cu  Cu110  1  0.33097698  0.00267220  0.50202830  1
  Cu  Cu111  1  0.50852976  0.50473059  0.24984813  1
  Cu  Cu112  1  0.50214578  0.83121413  0.74586817  1
  Cu  Cu113  1  0.49789355  0.84143894  0.25038249  1
  Cu  Cu114  1  0.66535550  -0.00167978  0.49495404  1
  Se  Se115  1  0.08241289  0.07689683  0.06560392  1
  Se  Se116  1  0.08170179  0.08378879  0.55897705  1
  Se  Se117  1  0.10271039  0.42901010  0.04594703  1
  Se  Se118  1  0.08336406  0.42168716  0.55001902  1
  Se  Se119  1  0.07040670  0.74210468  0.06341224  1
  Se  Se120  1  0.08492017  0.75460360  0.54733045  1
  Se  Se121  1  0.41800544  0.08106112  0.05148343  1
  Se  Se122  1  0.41916118  0.08618177  0.55166870  1
  Se  Se123  1  0.41072990  0.41116145  0.06050578  1
  Se  Se124  1  0.40912305  0.40872135  0.56402597  1
  Se  Se125  1  0.39865046  0.74416358  0.05483119  1
  Se  Se126  1  0.42331802  0.75269519  0.55628420  1
  Se  Se127  1  0.75153986  0.08519247  0.05229807  1
  Se  Se128  1  0.74351743  0.07417053  0.56117768  1
  Se  Se129  1  0.75065804  0.41909824  0.04940699  1
  Se  Se130  1  0.74017306  0.40734357  0.55995235  1
  Se  Se131  1  0.74805685  0.74874970  0.05213993  1
  Se  Se132  1  0.75157177  0.74827577  0.55312471  1
  Se  Se133  1  0.25911989  0.25629047  0.06286229  1
  Se  Se134  1  0.24962298  0.24453238  0.55127249  1
  Se  Se135  1  0.24477698  0.58622116  0.04314321  1
  Se  Se136  1  0.24696437  0.57349209  0.54826538  1
  Se  Se137  1  0.24886751  0.92527359  0.06119553  1
  Se  Se138  1  0.25039937  0.91903057  0.55808472  1
  Se  Se139  1  0.58388953  0.24798973  0.05006417  1
  Se  Se140  1  0.57745162  0.24787632  0.54667393  1
  Se  Se141  1  0.58558747  0.58543327  0.06456182  1
  Se  Se142  1  0.58779824  0.58587350  0.56590146  1
  Se  Se143  1  0.58172049  0.91326481  0.05073182  1
  Se  Se144  1  0.58265236  0.91463602  0.54967713  1
  Se  Se145  1  0.94820683  0.27193644  0.05850964  1
  Se  Se146  1  0.91903779  0.25558766  0.56451442  1
  Se  Se147  1  0.91304267  0.58283259  0.04709330  1
  Se  Se148  1  0.92624567  0.59235695  0.56665722  1
  Se  Se149  1  0.91539853  0.91717635  0.05164208  1
  Se  Se150  1  0.91726486  0.91452163  0.55067707  1
  Se  Se151  1  0.07832304  0.24517989  0.45855103  1
  Se  Se152  1  0.07790238  0.25701404  0.93736253  1
  Se  Se153  1  0.08264469  0.58147199  0.44716407  1
  Se  Se154  1  0.08251309  0.58892490  0.94157999  1
  Se  Se155  1  0.08786965  0.91408763  0.44671918  1
  Se  Se156  1  0.08056734  0.92552773  0.94210264  1
  Se  Se157  1  0.41444838  0.24946744  0.44361243  1
  Se  Se158  1  0.42005017  0.24170060  0.95029414  1
  Se  Se159  1  0.40817601  0.59454963  0.44293579  1
  Se  Se160  1  0.41121512  0.59101564  0.93828332  1
  Se  Se161  1  0.42052549  0.92007211  0.45156638  1
  Se  Se162  1  0.41743817  0.91374490  0.94450819  1
  Se  Se163  1  0.74592461  0.25651881  0.44218432  1
  Se  Se164  1  0.75505706  0.24724211  0.94542425  1
  Se  Se165  1  0.74800807  0.58389998  0.44409101  1
  Se  Se166  1  0.74570169  0.58300948  0.94867572  1
  Se  Se167  1  0.75265851  0.91312491  0.44857078  1
  Se  Se168  1  0.75001298  0.91624320  0.94775341  1
  Se  Se169  1  0.24583014  0.08309320  0.44671434  1
  Se  Se170  1  0.25122457  0.07613180  0.94109479  1
  Se  Se171  1  0.24893033  0.41672757  0.44973449  1
  Se  Se172  1  0.25377559  0.41474903  0.94316266  1
  Se  Se173  1  0.25725175  0.74518765  0.45391153  1
  Se  Se174  1  0.25349814  0.74938235  0.93418803  1
  Se  Se175  1  0.58477502  0.08621425  0.44469412  1
  Se  Se176  1  0.58471200  0.08337104  0.94528967  1
  Se  Se177  1  0.59063258  0.41598989  0.44347940  1
  Se  Se178  1  0.58804580  0.40863694  0.93690021  1
  Se  Se179  1  0.58436815  0.74752279  0.44713628  1
  Se  Se180  1  0.57861607  0.75092641  0.94765965  1
  Se  Se181  1  0.92202969  0.07330779  0.43981954  1
  Se  Se182  1  0.91675227  0.08918185  0.94889865  1
  Se  Se183  1  0.92477899  0.40575333  0.44563853  1
  Se  Se184  1  0.90593874  0.42356977  0.94665222  1
  Se  Se185  1  0.91485690  0.74826748  0.44540418  1
  Se  Se186  1  0.91319239  0.75809716  0.94740762  1
  Se  Se187  1  0.23757960  0.24896548  0.31318459  1
  Se  Se188  1  0.24431570  0.24167477  0.81200340  1
  Se  Se189  1  0.24263140  0.58130355  0.30679645  1
  Se  Se190  1  0.25373036  0.58568782  0.79545531  1
  Se  Se191  1  0.25595914  0.91705577  0.30651521  1
  Se  Se192  1  0.25323405  0.91813459  0.79748431  1
  Se  Se193  1  0.58820083  0.25133501  0.30169437  1
  Se  Se194  1  0.58530625  0.24504560  0.79987992  1
  Se  Se195  1  0.58798296  0.59230003  0.30149257  1
  Se  Se196  1  0.58693192  0.58650571  0.80384688  1
  Se  Se197  1  0.58064397  0.91736323  0.31269621  1
  Se  Se198  1  0.58077720  0.91049498  0.80969714  1
  Se  Se199  1  0.91149709  0.23994712  0.31038840  1
  Se  Se200  1  0.91741350  0.25225896  0.80401403  1
  Se  Se201  1  0.90393248  0.57220036  0.30792741  1
  Se  Se202  1  0.91239013  0.58245892  0.81560514  1
  Se  Se203  1  0.91282404  0.90809769  0.30559022  1
  Se  Se204  1  0.91901782  0.92373731  0.80382408  1
  Se  Se205  1  0.08056261  0.08014995  0.30808147  1
  Se  Se206  1  0.08185105  0.08585662  0.80055446  1
  Se  Se207  1  0.08738207  0.41652021  0.30856111  1
  Se  Se208  1  0.08037687  0.42307597  0.80011160  1
  Se  Se209  1  0.09323862  0.75574662  0.31111485  1
  Se  Se210  1  0.09147567  0.76114606  0.80648563  1
  Se  Se211  1  0.41597874  0.08570968  0.30278001  1
  Se  Se212  1  0.41554963  0.07630307  0.80145185  1
  Se  Se213  1  0.42927186  0.42866734  0.31392551  1
  Se  Se214  1  0.42771527  0.42184486  0.81287215  1
  Se  Se215  1  0.41871930  0.76338282  0.31371819  1
  Se  Se216  1  0.41728101  0.74896379  0.80010563  1
  Se  Se217  1  0.76087775  0.09137766  0.30480288  1
  Se  Se218  1  0.75597862  0.08572453  0.81206548  1
  Se  Se219  1  0.74674251  0.41478550  0.30180104  1
  Se  Se220  1  0.74823744  0.41197243  0.80422350  1
  Se  Se221  1  0.74208355  0.74739600  0.30113075  1
  Se  Se222  1  0.75101568  0.75181159  0.80540028  1
  Se  Se223  1  0.25478587  0.08013699  0.20317476  1
  Se  Se224  1  0.25182374  0.08374773  0.69785356  1
  Se  Se225  1  0.25000222  0.42038212  0.19340814  1
  Se  Se226  1  0.24187437  0.41507907  0.68788576  1
  Se  Se227  1  0.23482929  0.75833420  0.19169867  1
  Se  Se228  1  0.25498250  0.74857086  0.69188633  1
  Se  Se229  1  0.57888794  0.09002351  0.18573741  1
  Se  Se230  1  0.57734409  0.08603954  0.68459035  1
  Se  Se231  1  0.58561925  0.41305686  0.19959390  1
  Se  Se232  1  0.58587967  0.41234130  0.69940953  1
  Se  Se233  1  0.57784816  0.75373306  0.19822227  1
  Se  Se234  1  0.59105576  0.74771900  0.69850756  1
  Se  Se235  1  0.92395473  0.06623310  0.20038771  1
  Se  Se236  1  0.91651414  0.08208609  0.70039536  1
  Se  Se237  1  0.91037776  0.42193086  0.18593488  1
  Se  Se238  1  0.91694280  0.42122583  0.69971947  1
  Se  Se239  1  0.90976030  0.75024699  0.18858391  1
  Se  Se240  1  0.91365310  0.76028327  0.69058519  1
  Se  Se241  1  0.09043696  0.23656823  0.18836119  1
  Se  Se242  1  0.08190614  0.25667795  0.69648291  1
  Se  Se243  1  0.07860613  0.57379190  0.18772141  1
  Se  Se244  1  0.09578064  0.59107384  0.68414097  1
  Se  Se245  1  0.07740355  0.91222219  0.20672600  1
  Se  Se246  1  0.08121149  0.91994114  0.69623931  1
  Se  Se247  1  0.42206391  0.24524691  0.18984392  1
  Se  Se248  1  0.42060403  0.24418891  0.69034965  1
  Se  Se249  1  0.42114691  0.57661825  0.18992706  1
  Se  Se250  1  0.41744388  0.58019698  0.69851604  1
  Se  Se251  1  0.41404646  0.92295239  0.19727952  1
  Se  Se252  1  0.41822187  0.91802343  0.69678366  1
  Se  Se253  1  0.76069489  0.25018952  0.19188620  1
  Se  Se254  1  0.74639864  0.24687487  0.69745991  1
  Se  Se255  1  0.74318814  0.58803260  0.19429954  1
  Se  Se256  1  0.75053672  0.58569713  0.70419596  1
  Se  Se257  1  0.75315815  0.90844308  0.18542576  1
  Se  Se258  1  0.75542001  0.91005768  0.68792456  1
