# generated using pymatgen
data_In86Cu29Se144
_symmetry_space_group_name_H-M   'P 1'
_cell_length_a   17.58986040
_cell_length_b   17.58476903
_cell_length_c   23.44991321
_cell_angle_alpha   89.99601956
_cell_angle_beta   90.03155003
_cell_angle_gamma   89.99473607
_symmetry_Int_Tables_number   1
_chemical_formula_structural   In86Cu29Se144
_chemical_formula_sum   'In86 Cu29 Se144'
_cell_volume   7253.37668888
_cell_formula_units_Z   1
loop_
 _symmetry_equiv_pos_site_id
 _symmetry_equiv_pos_as_xyz
  1  'x, y, z'
loop_
 _atom_site_type_symbol
 _atom_site_label
 _atom_site_symmetry_multiplicity
 _atom_site_fract_x
 _atom_site_fract_y
 _atom_site_fract_z
 _atom_site_occupancy
  In  In0  1  -0.00447626  0.16902986  0.12915068  1
  In  In1  1  -0.00060298  0.16262041  0.61828315  1
  In  In2  1  0.00539254  0.49643404  0.13535441  1
  In  In3  1  -0.00285905  0.50425745  0.63193654  1
  In  In4  1  0.00008465  0.83412522  0.14249298  1
  In  In5  1  -0.01783978  0.85483682  0.63412641  1
  In  In6  1  0.33509912  0.15734871  0.12714227  1
  In  In7  1  0.34494420  0.18666254  0.60689364  1
  In  In8  1  0.33752437  0.49164364  0.12165053  1
  In  In9  1  0.33760552  0.47910078  0.62526614  1
  In  In10  1  0.33343730  0.85644443  0.13479275  1
  In  In11  1  0.33857738  0.82551675  0.61927564  1
  In  In12  1  0.65909660  0.16255191  0.12014051  1
  In  In13  1  0.67083655  0.16481741  0.62769734  1
  In  In14  1  0.65442306  0.50639847  0.11812973  1
  In  In15  1  0.65800872  0.50570626  0.63088499  1
  In  In16  1  0.67751726  0.84814854  0.13699034  1
  In  In17  1  0.67070359  0.83671229  0.62092661  1
  In  In18  1  0.17149979  0.00043865  0.36570202  1
  In  In19  1  0.14703890  0.00120117  0.88235515  1
  In  In20  1  0.15234029  0.33220495  0.37709321  1
  In  In21  1  0.16579902  0.32795965  0.86380397  1
  In  In22  1  0.16022946  0.67881582  0.36872334  1
  In  In23  1  0.16403350  0.68327817  0.88005113  1
  In  In24  1  0.50306145  0.00015603  0.37407449  1
  In  In25  1  0.51771299  -0.00148727  0.87248417  1
  In  In26  1  0.49687656  0.32827013  0.39477304  1
  In  In27  1  0.50205735  0.33124043  0.86931338  1
  In  In28  1  0.50536899  0.66728134  0.38319743  1
  In  In29  1  0.49664612  0.65785786  0.87259444  1
  In  In30  1  0.82903406  0.00268587  0.37214484  1
  In  In31  1  0.84397122  0.01169630  0.87145835  1
  In  In32  1  0.84352963  0.31923618  0.38284178  1
  In  In33  1  0.82006922  0.32000528  0.86363718  1
  In  In34  1  0.85334689  0.67611561  0.37069645  1
  In  In35  1  0.83245041  0.66922584  0.86423086  1
  In  In36  1  -0.00247421  0.16237998  0.37470587  1
  In  In37  1  -0.01270676  0.15400658  0.86622604  1
  In  In38  1  0.01374201  0.50174909  0.36343544  1
  In  In39  1  -0.00169400  0.49828342  0.86867907  1
  In  In40  1  -0.00769896  0.83916836  0.36210408  1
  In  In41  1  0.00140156  0.84167122  0.87219551  1
  In  In42  1  0.34496353  0.15606027  0.38742431  1
  In  In43  1  0.33244268  0.18044311  0.87026741  1
  In  In44  1  0.33804685  0.50238528  0.37998282  1
  In  In45  1  0.34605018  0.49883645  0.87349898  1
  In  In46  1  0.33695559  0.84591628  0.36587274  1
  In  In47  1  0.32600505  0.82390794  0.88028996  1
  In  In48  1  0.67960399  0.15140078  0.38930795  1
  In  In49  1  0.66669370  0.16425214  0.87374637  1
  In  In50  1  0.66447485  0.49170293  0.38242508  1
  In  In51  1  0.65725180  0.49189581  0.86284034  1
  In  In52  1  0.65613836  0.85095904  0.37928147  1
  In  In53  1  0.67636314  0.84233873  0.86255604  1
  In  In54  1  0.17010832  -0.00656032  0.13553415  1
  In  In55  1  0.14673483  0.00698302  0.62227689  1
  In  In56  1  0.16608306  0.32652071  0.12858079  1
  In  In57  1  0.17382797  0.32016506  0.63031682  1
  In  In58  1  0.14307223  0.67266906  0.13554264  1
  In  In59  1  0.16384898  0.66016254  0.62421218  1
  In  In60  1  0.49214933  0.00870866  0.13631702  1
  In  In61  1  0.51140105  0.01280035  0.61804380  1
  In  In62  1  0.49933402  0.33151196  0.11482333  1
  In  In63  1  0.49990484  0.33249311  0.62566292  1
  In  In64  1  0.50947317  0.66285242  0.12035032  1
  In  In65  1  0.51188663  0.67457332  0.61585943  1
  In  In66  1  0.82805822  0.00579878  0.13702802  1
  In  In67  1  0.83578078  -0.00148334  0.61795777  1
  In  In68  1  0.84503722  0.32693392  0.12219932  1
  In  In69  1  0.84598468  0.31999435  0.63408721  1
  In  In70  1  0.84030896  0.67946069  0.12584090  1
  In  In71  1  0.82398354  0.67760675  0.62908747  1
  In  In72  1  0.32854735  0.00388683  0.74607133  1
  In  In73  1  0.16242753  0.83882682  0.48809372  1
  In  In74  1  0.33056638  0.66238447  0.75226931  1
  In  In75  1  0.82715400  0.49398618  -0.00236467  1
  In  In76  1  0.32691707  0.32754438  0.25023803  1
  In  In77  1  0.66877113  0.32584787  0.26238324  1
  In  In78  1  0.16659968  0.50022630  0.00712805  1
  In  In79  1  0.33054277  0.66628310  0.25987075  1
  In  In80  1  0.67189326  0.66847400  0.24428780  1
  In  In81  1  0.82973522  0.49903086  0.50432310  1
  In  In82  1  0.17138030  0.49605993  0.49903692  1
  In  In83  1  0.16904959  0.16433273  0.00539634  1
  In  In84  1  0.49867210  0.83688029  0.00184951  1
  In  In85  1  0.83541371  0.83931851  0.00954738  1
  Cu  Cu86  1  0.34597935  0.66503501  0.49705335  1
  Cu  Cu87  1  -0.00008584  0.32913599  0.50231973  1
  Cu  Cu88  1  0.83320050  0.50058899  0.74701077  1
  Cu  Cu89  1  0.16361822  0.16445655  0.25126536  1
  Cu  Cu90  1  0.50045632  0.49452140  0.25104578  1
  Cu  Cu91  1  0.66120621  0.66622040  -0.00589994  1
  Cu  Cu92  1  0.83567192  0.16775428  0.25657448  1
  Cu  Cu93  1  -0.00054175  0.68072407  0.49978074  1
  Cu  Cu94  1  0.67395345  0.67421046  0.50050015  1
  Cu  Cu95  1  0.66150087  0.33242024  0.50877592  1
  Cu  Cu96  1  0.33838176  0.00745389  0.00677144  1
  Cu  Cu97  1  0.50465760  0.15880194  0.25655335  1
  Cu  Cu98  1  0.83224315  0.16180552  0.74609404  1
  Cu  Cu99  1  0.16262838  0.16464977  0.74471169  1
  Cu  Cu100  1  0.34519773  0.33850346  -0.00697281  1
  Cu  Cu101  1  0.50833517  0.83457494  0.74239920  1
  Cu  Cu102  1  0.66782501  0.00592439  0.00207803  1
  Cu  Cu103  1  0.83179950  0.83348929  0.74512095  1
  Cu  Cu104  1  0.49862976  0.49777575  0.74757374  1
  Cu  Cu105  1  0.15679101  0.83571403  0.75330432  1
  Cu  Cu106  1  0.66422995  0.00121824  0.50120679  1
  Cu  Cu107  1  0.32765594  0.67151921  0.00135402  1
  Cu  Cu108  1  0.16035353  0.49915215  0.74816206  1
  Cu  Cu109  1  0.50334717  0.16939511  0.74402204  1
  Cu  Cu110  1  -0.00757487  0.31918071  -0.00400444  1
  Cu  Cu111  1  0.84086637  0.49729010  0.24894273  1
  Cu  Cu112  1  0.33142769  -0.00625322  0.49532014  1
  Cu  Cu113  1  0.66371524  0.32827442  -0.01077743  1
  Cu  Cu114  1  -0.00220635  0.67186382  0.00557093  1
  Se  Se115  1  0.08157066  0.07578691  0.06472446  1
  Se  Se116  1  0.07963673  0.08415688  0.54540347  1
  Se  Se117  1  0.07128463  0.40207725  0.05619640  1
  Se  Se118  1  0.07681554  0.41446333  0.56141813  1
  Se  Se119  1  0.07363050  0.75629038  0.06176009  1
  Se  Se120  1  0.08296046  0.75410662  0.56088889  1
  Se  Se121  1  0.42539659  0.08853702  0.05624834  1
  Se  Se122  1  0.41164568  0.07724088  0.55197815  1
  Se  Se123  1  0.42373392  0.42393636  0.04835760  1
  Se  Se124  1  0.42110087  0.41304424  0.55227493  1
  Se  Se125  1  0.40866224  0.74935379  0.06406649  1
  Se  Se126  1  0.42445845  0.75429229  0.54813484  1
  Se  Se127  1  0.75358615  0.08191279  0.05916238  1
  Se  Se128  1  0.74841456  0.08479284  0.55404579  1
  Se  Se129  1  0.73733679  0.40352738  0.05935283  1
  Se  Se130  1  0.74730141  0.40890238  0.56815611  1
  Se  Se131  1  0.73446158  0.74451617  0.05978980  1
  Se  Se132  1  0.75854500  0.75803828  0.55064187  1
  Se  Se133  1  0.26542505  0.26155499  0.05720449  1
  Se  Se134  1  0.23860454  0.25049933  0.54794583  1
  Se  Se135  1  0.25140072  0.59466867  0.06677355  1
  Se  Se136  1  0.26376076  0.58921355  0.55863398  1
  Se  Se137  1  0.25376586  0.92436572  0.05741330  1
  Se  Se138  1  0.25077736  0.91907560  0.55962251  1
  Se  Se139  1  0.58274800  0.24793976  0.04941924  1
  Se  Se140  1  0.58187388  0.24371172  0.55951060  1
  Se  Se141  1  0.57597931  0.58064284  0.04279716  1
  Se  Se142  1  0.59248948  0.58515059  0.55066998  1
  Se  Se143  1  0.59035223  0.92360281  0.06307463  1
  Se  Se144  1  0.58112125  0.91514271  0.55312639  1
  Se  Se145  1  0.91180700  0.23691260  0.05061235  1
  Se  Se146  1  0.91134439  0.24801817  0.55162335  1
  Se  Se147  1  0.91984973  0.58186050  0.05943912  1
  Se  Se148  1  0.92253222  0.59434685  0.55791650  1
  Se  Se149  1  0.92428594  0.92556108  0.06933445  1
  Se  Se150  1  0.92036943  0.91788068  0.54884683  1
  Se  Se151  1  0.07975659  0.24524161  0.44705290  1
  Se  Se152  1  0.08217272  0.24824119  0.93783692  1
  Se  Se153  1  0.07970741  0.59383246  0.44389383  1
  Se  Se154  1  0.07471615  0.58810262  0.94505657  1
  Se  Se155  1  0.06991428  0.92899628  0.43413293  1
  Se  Se156  1  0.08547084  0.90450967  0.94917545  1
  Se  Se157  1  0.41050316  0.24758939  0.45786319  1
  Se  Se158  1  0.42159834  0.24816021  0.94180707  1
  Se  Se159  1  0.42705314  0.57598501  0.44815428  1
  Se  Se160  1  0.41001134  0.59031873  0.94664225  1
  Se  Se161  1  0.41771528  0.91426131  0.44244508  1
  Se  Se162  1  0.41012743  0.92689449  0.93869622  1
  Se  Se163  1  0.74515658  0.25717170  0.44979046  1
  Se  Se164  1  0.75305145  0.24466335  0.94404919  1
  Se  Se165  1  0.75144362  0.59301271  0.43766230  1
  Se  Se166  1  0.74307453  0.58740221  0.93578099  1
  Se  Se167  1  0.74989286  0.92129645  0.44673083  1
  Se  Se168  1  0.74636411  0.92323226  0.94298845  1
  Se  Se169  1  0.24525340  0.07567816  0.44378697  1
  Se  Se170  1  0.25867746  0.07941288  0.93857304  1
  Se  Se171  1  0.25836800  0.40333944  0.44095055  1
  Se  Se172  1  0.25112667  0.41161702  0.93939301  1
  Se  Se173  1  0.26143544  0.74316882  0.43822955  1
  Se  Se174  1  0.24151140  0.75779599  0.95596774  1
  Se  Se175  1  0.57594532  0.08388104  0.44977449  1
  Se  Se176  1  0.58279369  0.08466763  0.94673815  1
  Se  Se177  1  0.58241745  0.41935199  0.45502301  1
  Se  Se178  1  0.58227772  0.41716123  0.93993636  1
  Se  Se179  1  0.58681075  0.75450913  0.44764986  1
  Se  Se180  1  0.58812636  0.75373467  0.93468133  1
  Se  Se181  1  0.89087909  0.10505637  0.43761400  1
  Se  Se182  1  0.92917261  0.07467203  0.94732485  1
  Se  Se183  1  0.92935088  0.42059778  0.44226382  1
  Se  Se184  1  0.91777694  0.40582832  0.93719269  1
  Se  Se185  1  0.92044126  0.76262633  0.44395684  1
  Se  Se186  1  0.91368733  0.74402742  0.94332292  1
  Se  Se187  1  0.24569113  0.23841904  0.31506474  1
  Se  Se188  1  0.25029718  0.24877194  0.79456659  1
  Se  Se189  1  0.23925877  0.57009725  0.31232851  1
  Se  Se190  1  0.23781057  0.57606352  0.81480212  1
  Se  Se191  1  0.23366396  0.89869183  0.30003143  1
  Se  Se192  1  0.24405683  0.91251279  0.81117789  1
  Se  Se193  1  0.57550921  0.24040422  0.32106197  1
  Se  Se194  1  0.58690115  0.24831287  0.80276233  1
  Se  Se195  1  0.58329333  0.57523948  0.30747551  1
  Se  Se196  1  0.57957337  0.58680922  0.79905786  1
  Se  Se197  1  0.58262269  0.92167005  0.30085167  1
  Se  Se198  1  0.58851428  0.92141090  0.79537803  1
  Se  Se199  1  0.92132627  0.25427047  0.30372783  1
  Se  Se200  1  0.91651236  0.24764579  0.79917642  1
  Se  Se201  1  0.92072157  0.58275262  0.30213906  1
  Se  Se202  1  0.91746680  0.58312862  0.80127717  1
  Se  Se203  1  0.89515506  0.91281672  0.29754515  1
  Se  Se204  1  0.91236813  0.91531952  0.80379159  1
  Se  Se205  1  0.07882842  0.08188775  0.30310124  1
  Se  Se206  1  0.08474282  0.08054114  0.80198302  1
  Se  Se207  1  0.08679590  0.40939956  0.29886167  1
  Se  Se208  1  0.07894457  0.41324089  0.80126068  1
  Se  Se209  1  0.07660206  0.75094406  0.29902410  1
  Se  Se210  1  0.07770173  0.74773930  0.80553156  1
  Se  Se211  1  0.41248885  0.08134494  0.30651793  1
  Se  Se212  1  0.42437881  0.08816081  0.80717793  1
  Se  Se213  1  0.42401863  0.41296887  0.31110700  1
  Se  Se214  1  0.41503546  0.41406168  0.80057367  1
  Se  Se215  1  0.43248209  0.75336115  0.30816656  1
  Se  Se216  1  0.42370842  0.76156342  0.80518534  1
  Se  Se217  1  0.74301225  0.08705767  0.30286035  1
  Se  Se218  1  0.74991917  0.08148147  0.80435193  1
  Se  Se219  1  0.76336443  0.42261146  0.31373533  1
  Se  Se220  1  0.74871908  0.41556887  0.79826429  1
  Se  Se221  1  0.74548690  0.75174079  0.31665401  1
  Se  Se222  1  0.74666345  0.74794378  0.79636142  1
  Se  Se223  1  0.25306478  0.08504160  0.19937326  1
  Se  Se224  1  0.24642264  0.09230342  0.68129572  1
  Se  Se225  1  0.24208740  0.42658399  0.19314997  1
  Se  Se226  1  0.24580666  0.41617091  0.69711278  1
  Se  Se227  1  0.25081421  0.75137184  0.19028514  1
  Se  Se228  1  0.24161634  0.75910274  0.69368560  1
  Se  Se229  1  0.59069517  0.08379901  0.19869735  1
  Se  Se230  1  0.58699874  0.08104577  0.69763315  1
  Se  Se231  1  0.58222172  0.41386961  0.19277722  1
  Se  Se232  1  0.58337566  0.41318583  0.69683708  1
  Se  Se233  1  0.57569885  0.75941828  0.19019798  1
  Se  Se234  1  0.59004193  0.74903775  0.69106731  1
  Se  Se235  1  0.91904989  0.08605678  0.20150671  1
  Se  Se236  1  0.91604251  0.08228833  0.68971986  1
  Se  Se237  1  0.91751601  0.40856619  0.19569975  1
  Se  Se238  1  0.91958374  0.41581036  0.69859944  1
  Se  Se239  1  0.91863077  0.74085332  0.20377028  1
  Se  Se240  1  0.91941695  0.74913471  0.69584478  1
  Se  Se241  1  0.08309619  0.24943065  0.19733751  1
  Se  Se242  1  0.07610374  0.24711782  0.69235053  1
  Se  Se243  1  0.08485579  0.57648098  0.20407361  1
  Se  Se244  1  0.08186214  0.58924715  0.69833410  1
  Se  Se245  1  0.09129086  0.91382994  0.20647220  1
  Se  Se246  1  0.08058925  0.92390343  0.69953065  1
  Se  Se247  1  0.42953857  0.24413243  0.19455033  1
  Se  Se248  1  0.41354564  0.24832719  0.69350051  1
  Se  Se249  1  0.42309285  0.57772229  0.19278553  1
  Se  Se250  1  0.42075484  0.58174755  0.68648826  1
  Se  Se251  1  0.42574550  0.91666214  0.20550058  1
  Se  Se252  1  0.42142646  0.91347301  0.68741632  1
  Se  Se253  1  0.75442923  0.24556902  0.19298487  1
  Se  Se254  1  0.74798310  0.25061091  0.69895335  1
  Se  Se255  1  0.75921877  0.57022706  0.18530460  1
  Se  Se256  1  0.74944144  0.58512096  0.69510139  1
  Se  Se257  1  0.77678422  0.90068456  0.20683371  1
  Se  Se258  1  0.75203559  0.91938707  0.69073357  1
