# generated using pymatgen
data_In86Cu29Se144
_symmetry_space_group_name_H-M   'P 1'
_cell_length_a   17.58572630
_cell_length_b   17.58772192
_cell_length_c   23.44704531
_cell_angle_alpha   90.01752919
_cell_angle_beta   90.00533901
_cell_angle_gamma   90.00685225
_symmetry_Int_Tables_number   1
_chemical_formula_structural   In86Cu29Se144
_chemical_formula_sum   'In86 Cu29 Se144'
_cell_volume   7252.00336861
_cell_formula_units_Z   1
loop_
 _symmetry_equiv_pos_site_id
 _symmetry_equiv_pos_as_xyz
  1  'x, y, z'
loop_
 _atom_site_type_symbol
 _atom_site_label
 _atom_site_symmetry_multiplicity
 _atom_site_fract_x
 _atom_site_fract_y
 _atom_site_fract_z
 _atom_site_occupancy
  In  In0  1  -0.01232001  0.16002633  0.12856997  1
  In  In1  1  -0.00215942  0.16872344  0.62351379  1
  In  In2  1  0.00961135  0.51249729  0.11522977  1
  In  In3  1  -0.01702749  0.49295343  0.62823585  1
  In  In4  1  -0.00717878  0.84214348  0.13056638  1
  In  In5  1  -0.00282824  0.84895009  0.62679017  1
  In  In6  1  0.34722907  0.17799640  0.12903793  1
  In  In7  1  0.33532384  0.17844262  0.62474214  1
  In  In8  1  0.33413106  0.50401005  0.12411741  1
  In  In9  1  0.33811000  0.49571064  0.62663818  1
  In  In10  1  0.33343501  0.82339275  0.12145721  1
  In  In11  1  0.33897179  0.82635609  0.63293352  1
  In  In12  1  0.66702666  0.16734391  0.13133934  1
  In  In13  1  0.67844952  0.15774659  0.63283482  1
  In  In14  1  0.65625597  0.49465652  0.11556104  1
  In  In15  1  0.65664906  0.51014935  0.63469414  1
  In  In16  1  0.66503699  0.84467290  0.11092345  1
  In  In17  1  0.67454464  0.81778470  0.63552636  1
  In  In18  1  0.16605913  0.01489684  0.37633922  1
  In  In19  1  0.16650023  0.00885006  0.86905818  1
  In  In20  1  0.16996763  0.32238860  0.37920092  1
  In  In21  1  0.17749309  0.34100531  0.86297422  1
  In  In22  1  0.16963282  0.66902807  0.36945572  1
  In  In23  1  0.17334512  0.65104660  0.87789133  1
  In  In24  1  0.51036022  -0.01617320  0.36799825  1
  In  In25  1  0.51333118  -0.01598928  0.88478065  1
  In  In26  1  0.50849251  0.34429251  0.37055163  1
  In  In27  1  0.50940008  0.34073380  0.87013293  1
  In  In28  1  0.48977139  0.65842832  0.36436946  1
  In  In29  1  0.49915425  0.66500722  0.87326492  1
  In  In30  1  0.83149905  -0.00238073  0.37580862  1
  In  In31  1  0.82499057  -0.01337840  0.86829250  1
  In  In32  1  0.81981239  0.32953632  0.37773447  1
  In  In33  1  0.83925195  0.33524758  0.87193763  1
  In  In34  1  0.84463374  0.66596165  0.37111569  1
  In  In35  1  0.81872079  0.68165832  0.88536379  1
  In  In36  1  0.00566617  0.15716142  0.38175292  1
  In  In37  1  0.00792392  0.16202329  0.86038793  1
  In  In38  1  -0.00906766  0.50719425  0.37012823  1
  In  In39  1  0.00459161  0.49616116  0.88268542  1
  In  In40  1  -0.00869330  0.82725710  0.36844156  1
  In  In41  1  -0.01323064  0.83424194  0.87508911  1
  In  In42  1  0.32055987  0.16668677  0.37710678  1
  In  In43  1  0.32485304  0.17509933  0.86854066  1
  In  In44  1  0.35253693  0.51556458  0.36111094  1
  In  In45  1  0.33670706  0.49996604  0.87360648  1
  In  In46  1  0.34117417  0.81614407  0.36989521  1
  In  In47  1  0.37953029  0.83474533  0.87525813  1
  In  In48  1  0.67428011  0.16851284  0.37639802  1
  In  In49  1  0.66807304  0.16422473  0.86510965  1
  In  In50  1  0.66589065  0.48771676  0.37203083  1
  In  In51  1  0.66371956  0.50137960  0.87953569  1
  In  In52  1  0.65844544  0.84877450  0.36993419  1
  In  In53  1  0.66752017  0.83553154  0.87424213  1
  In  In54  1  0.16053068  -0.01054264  0.12754210  1
  In  In55  1  0.15019942  0.00196611  0.62942501  1
  In  In56  1  0.16696699  0.35174968  0.12181103  1
  In  In57  1  0.17573933  0.31763890  0.63665925  1
  In  In58  1  0.17979709  0.66147435  0.12977281  1
  In  In59  1  0.17477333  0.67022266  0.62844744  1
  In  In60  1  0.50936767  0.00173318  0.12013357  1
  In  In61  1  0.50838950  0.00218975  0.63214420  1
  In  In62  1  0.48798397  0.35434574  0.14195664  1
  In  In63  1  0.48947394  0.34405005  0.63482349  1
  In  In64  1  0.48823357  0.65748721  0.11747964  1
  In  In65  1  0.50839936  0.66127221  0.62948970  1
  In  In66  1  0.83511153  -0.00379924  0.12800223  1
  In  In67  1  0.83133340  -0.00014152  0.62210559  1
  In  In68  1  0.81679228  0.33440609  0.12598609  1
  In  In69  1  0.84240073  0.32689960  0.63453189  1
  In  In70  1  0.83828685  0.67959502  0.11672698  1
  In  In71  1  0.81804493  0.66234186  0.62440917  1
  In  In72  1  0.16926653  0.49259794  0.50718673  1
  In  In73  1  0.17098557  0.82731643  0.00200138  1
  In  In74  1  0.16623093  0.83895423  0.49238190  1
  In  In75  1  0.50202305  0.17089977  0.50582470  1
  In  In76  1  0.66212361  0.66547369  0.23973148  1
  In  In77  1  0.33200496  0.00116590  0.25133155  1
  In  In78  1  0.50156198  0.83065921  0.49764220  1
  In  In79  1  0.50493432  0.16680254  -0.00198409  1
  In  In80  1  0.82810762  0.49731696  0.49929244  1
  In  In81  1  -0.00099954  0.66208118  0.75595802  1
  In  In82  1  0.33856933  -0.00009287  0.75624584  1
  In  In83  1  0.00153652  0.33590108  0.25128200  1
  In  In84  1  0.16761963  0.16960509  -0.01158677  1
  In  In85  1  0.83486486  0.16721680  -0.00173998  1
  Cu  Cu86  1  0.83449534  0.83640814  0.75056751  1
  Cu  Cu87  1  -0.01111350  0.00662109  0.50369369  1
  Cu  Cu88  1  0.16270912  0.16795555  0.25381406  1
  Cu  Cu89  1  -0.00222506  0.66707561  -0.00083159  1
  Cu  Cu90  1  0.32544869  -0.00288753  0.50071301  1
  Cu  Cu91  1  0.33268542  0.34229911  -0.00101458  1
  Cu  Cu92  1  0.16003159  0.83143183  0.25009985  1
  Cu  Cu93  1  0.16783724  0.49412373  0.75141254  1
  Cu  Cu94  1  0.83134152  0.15756218  0.25329103  1
  Cu  Cu95  1  0.33365862  0.33560540  0.50398721  1
  Cu  Cu96  1  0.83709133  0.16259460  0.74726300  1
  Cu  Cu97  1  0.00263001  0.67538920  0.49490318  1
  Cu  Cu98  1  0.65838924  0.33695063  0.00208667  1
  Cu  Cu99  1  0.49905368  0.49892052  0.75441551  1
  Cu  Cu100  1  0.66380682  0.66862226  0.50451016  1
  Cu  Cu101  1  -0.00165570  0.34322171  -0.00398495  1
  Cu  Cu102  1  0.66350543  0.33559142  0.50297491  1
  Cu  Cu103  1  0.66150032  0.66733956  -0.00018494  1
  Cu  Cu104  1  0.83517972  0.50321010  0.24694915  1
  Cu  Cu105  1  0.50741637  0.17086815  0.25290567  1
  Cu  Cu106  1  0.67151995  -0.00306865  0.50039738  1
  Cu  Cu107  1  0.50338789  0.16865973  0.74992445  1
  Cu  Cu108  1  -0.00447823  -0.00216518  0.00003360  1
  Cu  Cu109  1  0.33409834  0.66101308  -0.00215941  1
  Cu  Cu110  1  0.82361703  0.50183853  0.75704079  1
  Cu  Cu111  1  0.17348589  0.83225648  0.75210845  1
  Cu  Cu112  1  0.17462907  0.50338456  0.24735587  1
  Cu  Cu113  1  0.82860763  0.83306782  0.24578810  1
  Cu  Cu114  1  -0.00178910  0.32273315  0.50393308  1
  Se  Se115  1  0.07784356  0.08127827  0.05598090  1
  Se  Se116  1  0.08103951  0.08376989  0.55371088  1
  Se  Se117  1  0.08688965  0.42283780  0.04710857  1
  Se  Se118  1  0.07267542  0.40721004  0.56397836  1
  Se  Se119  1  0.07737341  0.74488012  0.06391556  1
  Se  Se120  1  0.08014045  0.74956217  0.56004308  1
  Se  Se121  1  0.40770507  0.08269905  0.05735394  1
  Se  Se122  1  0.41095294  0.07273575  0.56063209  1
  Se  Se123  1  0.41831128  0.41761860  0.05653692  1
  Se  Se124  1  0.42023007  0.41769069  0.55385788  1
  Se  Se125  1  0.41541261  0.74969316  0.04796836  1
  Se  Se126  1  0.41337847  0.74255426  0.55853632  1
  Se  Se127  1  0.74509227  0.07999068  0.05873713  1
  Se  Se128  1  0.74962640  0.08550523  0.55262518  1
  Se  Se129  1  0.75062746  0.41760086  0.04996233  1
  Se  Se130  1  0.74425688  0.41363237  0.56656463  1
  Se  Se131  1  0.74743704  0.75271766  0.04899324  1
  Se  Se132  1  0.75012516  0.75229194  0.55278989  1
  Se  Se133  1  0.25460063  0.25631195  0.05667903  1
  Se  Se134  1  0.24812699  0.25074058  0.55308906  1
  Se  Se135  1  0.24805288  0.58156241  0.05221370  1
  Se  Se136  1  0.25882773  0.59149309  0.55700470  1
  Se  Se137  1  0.25704679  0.92644316  0.05740713  1
  Se  Se138  1  0.25265574  0.91787775  0.56538094  1
  Se  Se139  1  0.58175192  0.25868004  0.06575301  1
  Se  Se140  1  0.58916015  0.25727831  0.56917369  1
  Se  Se141  1  0.57712933  0.58116647  0.04869438  1
  Se  Se142  1  0.58321540  0.58087707  0.55415079  1
  Se  Se143  1  0.57191050  0.91759685  0.04385987  1
  Se  Se144  1  0.59033787  0.91818260  0.56076358  1
  Se  Se145  1  0.92421499  0.26137248  0.05902070  1
  Se  Se146  1  0.90676266  0.24682323  0.55481521  1
  Se  Se147  1  0.91237061  0.58368258  0.05101466  1
  Se  Se148  1  0.92252928  0.59278229  0.55489957  1
  Se  Se149  1  0.91407132  0.91617269  0.05458571  1
  Se  Se150  1  0.91169813  0.91331411  0.55167090  1
  Se  Se151  1  0.08493412  0.24588161  0.44860688  1
  Se  Se152  1  0.07383324  0.26041526  0.93443897  1
  Se  Se153  1  0.08024347  0.58580728  0.44238707  1
  Se  Se154  1  0.08455536  0.58395777  0.94996413  1
  Se  Se155  1  0.06963615  0.92851625  0.43929687  1
  Se  Se156  1  0.08154295  0.92156569  0.94104350  1
  Se  Se157  1  0.41260661  0.25470660  0.44148716  1
  Se  Se158  1  0.41036601  0.25758390  0.94023668  1
  Se  Se159  1  0.41976471  0.58514532  0.44300220  1
  Se  Se160  1  0.41952917  0.57918130  0.94443895  1
  Se  Se161  1  0.40622716  0.92277782  0.43904534  1
  Se  Se162  1  0.41889344  0.92316826  0.95638723  1
  Se  Se163  1  0.74667464  0.24962669  0.45274073  1
  Se  Se164  1  0.73922993  0.25625151  0.94218060  1
  Se  Se165  1  0.74233949  0.59080295  0.43820420  1
  Se  Se166  1  0.74815731  0.58355942  0.94907613  1
  Se  Se167  1  0.74816981  0.91139570  0.44399236  1
  Se  Se168  1  0.75865056  0.90799699  0.94460649  1
  Se  Se169  1  0.24556326  0.08692981  0.45227024  1
  Se  Se170  1  0.26369171  0.07411567  0.94122336  1
  Se  Se171  1  0.25843172  0.41511333  0.43878995  1
  Se  Se172  1  0.24739394  0.41833783  0.94152768  1
  Se  Se173  1  0.25904156  0.73982362  0.44576771  1
  Se  Se174  1  0.26120887  0.74745114  0.93612664  1
  Se  Se175  1  0.58345052  0.07374101  0.44349982  1
  Se  Se176  1  0.60256924  0.07911862  0.94462417  1
  Se  Se177  1  0.58354176  0.41937829  0.44867168  1
  Se  Se178  1  0.57586591  0.42049082  0.94856644  1
  Se  Se179  1  0.58953721  0.74186464  0.43489474  1
  Se  Se180  1  0.58258986  0.74925583  0.94119496  1
  Se  Se181  1  0.90762289  0.08725816  0.44566368  1
  Se  Se182  1  0.92410565  0.08008047  0.93554049  1
  Se  Se183  1  0.92493304  0.40730042  0.44134197  1
  Se  Se184  1  0.90774219  0.42129901  0.94653989  1
  Se  Se185  1  0.91267573  0.75307623  0.44511423  1
  Se  Se186  1  0.91548358  0.75502375  0.95058059  1
  Se  Se187  1  0.24957391  0.25049654  0.30245150  1
  Se  Se188  1  0.23633805  0.23865551  0.79719119  1
  Se  Se189  1  0.25416773  0.59111626  0.30022991  1
  Se  Se190  1  0.25169137  0.57961904  0.80157076  1
  Se  Se191  1  0.24157357  0.90928772  0.31346345  1
  Se  Se192  1  0.25457097  0.90424955  0.81784467  1
  Se  Se193  1  0.59048989  0.25165961  0.30913729  1
  Se  Se194  1  0.58728459  0.25369225  0.80155600  1
  Se  Se195  1  0.58009274  0.56970380  0.30124740  1
  Se  Se196  1  0.58541196  0.58157542  0.80587129  1
  Se  Se197  1  0.58342127  0.91384995  0.28990032  1
  Se  Se198  1  0.58303892  0.91582787  0.80470950  1
  Se  Se199  1  0.91214154  0.24424252  0.31085676  1
  Se  Se200  1  0.91573026  0.24809649  0.80278849  1
  Se  Se201  1  0.92051810  0.58832857  0.29520858  1
  Se  Se202  1  0.90570596  0.58171283  0.81833414  1
  Se  Se203  1  0.91088679  0.91532060  0.30317794  1
  Se  Se204  1  0.92227332  0.91943826  0.79927414  1
  Se  Se205  1  0.07895774  0.08241457  0.30247827  1
  Se  Se206  1  0.08846755  0.07770854  0.79350922  1
  Se  Se207  1  0.09438316  0.42595344  0.31129288  1
  Se  Se208  1  0.07733095  0.41972422  0.80491130  1
  Se  Se209  1  0.07930729  0.74548321  0.30348822  1
  Se  Se210  1  0.09113377  0.75365963  0.81441510  1
  Se  Se211  1  0.42497689  0.09054130  0.31366377  1
  Se  Se212  1  0.43003197  0.08956940  0.81648617  1
  Se  Se213  1  0.40618625  0.40253954  0.30498218  1
  Se  Se214  1  0.41426967  0.41228950  0.80383659  1
  Se  Se215  1  0.43685715  0.76392165  0.29868589  1
  Se  Se216  1  0.40542425  0.73262873  0.80239493  1
  Se  Se217  1  0.74449126  0.07747657  0.30642368  1
  Se  Se218  1  0.75301353  0.07968042  0.80061505  1
  Se  Se219  1  0.75755863  0.41803088  0.30237890  1
  Se  Se220  1  0.74455009  0.41444137  0.81013568  1
  Se  Se221  1  0.75083293  0.75085164  0.30692422  1
  Se  Se222  1  0.75126883  0.75186799  0.80292798  1
  Se  Se223  1  0.24288568  0.09226059  0.18839161  1
  Se  Se224  1  0.25201355  0.08314353  0.68868077  1
  Se  Se225  1  0.25386155  0.41626237  0.19513643  1
  Se  Se226  1  0.25330926  0.41528137  0.69560167  1
  Se  Se227  1  0.25046712  0.75514450  0.19777023  1
  Se  Se228  1  0.25447822  0.74594364  0.70164606  1
  Se  Se229  1  0.58052702  0.08345243  0.19608150  1
  Se  Se230  1  0.58831478  0.08241650  0.70168470  1
  Se  Se231  1  0.60348090  0.40842177  0.19543914  1
  Se  Se232  1  0.58450682  0.41569733  0.70098226  1
  Se  Se233  1  0.57796868  0.75375131  0.17716133  1
  Se  Se234  1  0.57767261  0.75125844  0.69924547  1
  Se  Se235  1  0.91686856  0.07636397  0.20078697  1
  Se  Se236  1  0.91741247  0.07979298  0.69058453  1
  Se  Se237  1  0.91600717  0.42225327  0.18567939  1
  Se  Se238  1  0.91087472  0.41989067  0.70590094  1
  Se  Se239  1  0.91550230  0.74943055  0.19590008  1
  Se  Se240  1  0.91291756  0.75035532  0.69034157  1
  Se  Se241  1  0.08877465  0.24632452  0.18662818  1
  Se  Se242  1  0.06335238  0.26397214  0.69273548  1
  Se  Se243  1  0.08659535  0.58218033  0.19413584  1
  Se  Se244  1  0.08694983  0.57407587  0.68963447  1
  Se  Se245  1  0.07827043  0.92017750  0.20180880  1
  Se  Se246  1  0.08479249  0.91207072  0.70237225  1
  Se  Se247  1  0.41771672  0.25411841  0.20592138  1
  Se  Se248  1  0.41448750  0.24969102  0.70053876  1
  Se  Se249  1  0.41602887  0.58308705  0.19497205  1
  Se  Se250  1  0.41911415  0.57974821  0.69511276  1
  Se  Se251  1  0.41769813  0.91617031  0.18701689  1
  Se  Se252  1  0.42982290  0.90797764  0.69811716  1
  Se  Se253  1  0.75319734  0.24606929  0.20029955  1
  Se  Se254  1  0.75043686  0.25074985  0.70046330  1
  Se  Se255  1  0.75768029  0.57881242  0.18183678  1
  Se  Se256  1  0.74619200  0.58850846  0.70236270  1
  Se  Se257  1  0.74501749  0.91332334  0.19073869  1
  Se  Se258  1  0.75145799  0.91736388  0.69413826  1
