# generated using pymatgen
data_In86Cu29Se144
_symmetry_space_group_name_H-M   'P 1'
_cell_length_a   17.57645495
_cell_length_b   17.57994518
_cell_length_c   23.44153821
_cell_angle_alpha   90.02143598
_cell_angle_beta   90.01793262
_cell_angle_gamma   90.01242831
_symmetry_Int_Tables_number   1
_chemical_formula_structural   In86Cu29Se144
_chemical_formula_sum   'In86 Cu29 Se144'
_cell_volume   7243.27287013
_cell_formula_units_Z   1
loop_
 _symmetry_equiv_pos_site_id
 _symmetry_equiv_pos_as_xyz
  1  'x, y, z'
loop_
 _atom_site_type_symbol
 _atom_site_label
 _atom_site_symmetry_multiplicity
 _atom_site_fract_x
 _atom_site_fract_y
 _atom_site_fract_z
 _atom_site_occupancy
  In  In0  1  0.00419014  0.17578910  0.12071105  1
  In  In1  1  0.00675091  0.17311818  0.61215864  1
  In  In2  1  -0.01210482  0.50407769  0.13924512  1
  In  In3  1  -0.00581880  0.48570671  0.63220101  1
  In  In4  1  -0.01234650  0.84184229  0.12521729  1
  In  In5  1  -0.00280616  0.83701197  0.60985605  1
  In  In6  1  0.34231557  0.17598727  0.11998223  1
  In  In7  1  0.32715428  0.15440397  0.61906338  1
  In  In8  1  0.33112404  0.49142890  0.12363256  1
  In  In9  1  0.34876440  0.49356098  0.62746846  1
  In  In10  1  0.33310375  0.82287741  0.11905428  1
  In  In11  1  0.32671059  0.84277868  0.63312583  1
  In  In12  1  0.67632145  0.17930204  0.11870683  1
  In  In13  1  0.65744795  0.16031872  0.62410751  1
  In  In14  1  0.66189744  0.49543808  0.11886958  1
  In  In15  1  0.67147922  0.51634260  0.62987354  1
  In  In16  1  0.66636700  0.83661892  0.11383631  1
  In  In17  1  0.68297160  0.83036081  0.63886500  1
  In  In18  1  0.15576350  -0.00023508  0.38859106  1
  In  In19  1  0.18045256  0.00260504  0.87090060  1
  In  In20  1  0.15545495  0.32179006  0.36732000  1
  In  In21  1  0.15077465  0.33335130  0.87412126  1
  In  In22  1  0.15000934  0.68071697  0.37994812  1
  In  In23  1  0.17470484  0.65023188  0.86395916  1
  In  In24  1  0.51154082  0.00865609  0.37555257  1
  In  In25  1  0.49821261  -0.00212325  0.87339122  1
  In  In26  1  0.50251845  0.33228782  0.37371671  1
  In  In27  1  0.50379343  0.33140899  0.88652240  1
  In  In28  1  0.48783210  0.66471699  0.37573809  1
  In  In29  1  0.50587243  0.66797554  0.87170345  1
  In  In30  1  0.84828322  -0.00391409  0.39442870  1
  In  In31  1  0.82844080  0.00387787  0.87397830  1
  In  In32  1  0.82658110  0.33061006  0.36871670  1
  In  In33  1  0.83924320  0.32701769  0.88289824  1
  In  In34  1  0.84624740  0.65554527  0.37506971  1
  In  In35  1  0.82048945  0.67621638  0.88243826  1
  In  In36  1  -0.01439311  0.18510950  0.40196742  1
  In  In37  1  -0.00771231  0.17602880  0.88122007  1
  In  In38  1  -0.01646603  0.49525212  0.35955825  1
  In  In39  1  0.00120720  0.48344352  0.87232823  1
  In  In40  1  0.00751158  0.81983129  0.38330761  1
  In  In41  1  -0.01199232  0.82540875  0.87465971  1
  In  In42  1  0.32223227  0.17710550  0.38182648  1
  In  In43  1  0.34068133  0.16089471  0.87969284  1
  In  In44  1  0.34860843  0.50034716  0.37732740  1
  In  In45  1  0.33575869  0.51218962  0.87062586  1
  In  In46  1  0.31820785  0.82677531  0.37588135  1
  In  In47  1  0.34517990  0.84013978  0.86471268  1
  In  In48  1  0.66112366  0.17350917  0.38132974  1
  In  In49  1  0.67151512  0.15896767  0.87821669  1
  In  In50  1  0.67685875  0.48177576  0.37491161  1
  In  In51  1  0.66172232  0.50861796  0.88199618  1
  In  In52  1  0.66966786  0.84952410  0.37497307  1
  In  In53  1  0.67004897  0.83062632  0.86959069  1
  In  In54  1  0.15032172  0.00749637  0.12491464  1
  In  In55  1  0.17034570  0.00776334  0.61496192  1
  In  In56  1  0.17238389  0.33135946  0.13497523  1
  In  In57  1  0.16271121  0.31831937  0.61872582  1
  In  In58  1  0.16637529  0.65640450  0.12650586  1
  In  In59  1  0.16191112  0.67859322  0.62647679  1
  In  In60  1  0.50447028  0.00462226  0.11309797  1
  In  In61  1  0.49656099  0.00348899  0.63147325  1
  In  In62  1  0.50179561  0.33617658  0.12305663  1
  In  In63  1  0.49753828  0.33061254  0.61732706  1
  In  In64  1  0.49696823  0.66651346  0.11133139  1
  In  In65  1  0.50788422  0.66420862  0.63205966  1
  In  In66  1  0.82997808  0.00103356  0.11546835  1
  In  In67  1  0.82850752  -0.00310044  0.62081027  1
  In  In68  1  0.83507614  0.33236068  0.12892650  1
  In  In69  1  0.85119912  0.33244563  0.62908973  1
  In  In70  1  0.83512578  0.66805926  0.11796649  1
  In  In71  1  0.82148900  0.66878309  0.63276738  1
  In  In72  1  0.32834638  0.00323296  0.26078814  1
  In  In73  1  0.00057180  0.00271346  0.25658317  1
  In  In74  1  -0.00309881  0.66344770  0.74527542  1
  In  In75  1  0.16670543  0.49540288  -0.00324709  1
  In  In76  1  -0.00325967  -0.00117592  0.74409596  1
  In  In77  1  0.16448403  0.83642184  -0.00529477  1
  In  In78  1  0.32632617  0.33129370  0.74890122  1
  In  In79  1  0.83039039  0.49628712  0.50232522  1
  In  In80  1  0.16751190  0.49799574  0.50263766  1
  In  In81  1  0.66997949  0.33501729  0.75955665  1
  In  In82  1  0.32459913  0.65995623  0.24655688  1
  In  In83  1  0.67006645  0.65985338  0.24566293  1
  In  In84  1  0.50250978  0.83705603  0.50387057  1
  In  In85  1  0.67314499  0.01477221  0.24893390  1
  Cu  Cu86  1  0.50131708  0.18274049  0.24876168  1
  Cu  Cu87  1  -0.00197761  0.33173028  0.00617197  1
  Cu  Cu88  1  0.17145457  0.83303716  0.74775616  1
  Cu  Cu89  1  0.49581687  0.15578698  0.75071658  1
  Cu  Cu90  1  0.50449138  0.50165771  0.75181648  1
  Cu  Cu91  1  0.33866879  0.33295263  0.49811145  1
  Cu  Cu92  1  -0.00599134  0.00555040  -0.00191198  1
  Cu  Cu93  1  0.16187261  0.16330356  0.74171636  1
  Cu  Cu94  1  0.83598274  0.82693651  0.24850110  1
  Cu  Cu95  1  0.66797319  0.66806197  -0.00333285  1
  Cu  Cu96  1  0.66579644  0.33028609  0.49952552  1
  Cu  Cu97  1  0.67229025  0.00418023  0.50351605  1
  Cu  Cu98  1  0.66092823  -0.00250480  -0.00808623  1
  Cu  Cu99  1  0.16501532  0.50057029  0.25281495  1
  Cu  Cu100  1  0.33458216  0.66649101  0.49985458  1
  Cu  Cu101  1  0.83619950  0.16762793  0.25404150  1
  Cu  Cu102  1  0.50559322  0.49103517  0.24963893  1
  Cu  Cu103  1  0.16715366  0.16656781  0.25365700  1
  Cu  Cu104  1  0.66897773  0.33311258  0.00145776  1
  Cu  Cu105  1  0.33208568  0.00489331  -0.00376050  1
  Cu  Cu106  1  0.49302643  0.83640709  0.23848596  1
  Cu  Cu107  1  0.83697097  0.17190601  0.75455939  1
  Cu  Cu108  1  0.34357248  0.67203424  -0.01014840  1
  Cu  Cu109  1  0.66343197  0.67213304  0.50831758  1
  Cu  Cu110  1  -0.00423103  0.66465670  0.50042066  1
  Cu  Cu111  1  0.33394572  0.33226029  0.00546147  1
  Cu  Cu112  1  -0.00570074  0.66538009  0.00174761  1
  Cu  Cu113  1  0.50489308  0.82977028  0.75158019  1
  Cu  Cu114  1  0.33799097  -0.00392806  0.50395612  1
  Se  Se115  1  0.08027417  0.08738117  0.04987945  1
  Se  Se116  1  0.08272919  0.08123686  0.54769624  1
  Se  Se117  1  0.08084916  0.41417316  0.06446964  1
  Se  Se118  1  0.07129462  0.40753042  0.55477843  1
  Se  Se119  1  0.07953319  0.74510437  0.05898646  1
  Se  Se120  1  0.08425097  0.74783798  0.54883929  1
  Se  Se121  1  0.41629182  0.08767450  0.05016222  1
  Se  Se122  1  0.42288188  0.08051148  0.55393612  1
  Se  Se123  1  0.41804208  0.42039504  0.05289038  1
  Se  Se124  1  0.42092796  0.41942219  0.54898015  1
  Se  Se125  1  0.42065035  0.75853238  0.04515059  1
  Se  Se126  1  0.41266312  0.74697527  0.56276948  1
  Se  Se127  1  0.74081598  0.08002199  0.05130843  1
  Se  Se128  1  0.75228471  0.09167089  0.55574541  1
  Se  Se129  1  0.75355266  0.41321807  0.05668663  1
  Se  Se130  1  0.74072090  0.40872438  0.56562991  1
  Se  Se131  1  0.75162426  0.75155253  0.05082672  1
  Se  Se132  1  0.75095853  0.75288506  0.55796496  1
  Se  Se133  1  0.24581018  0.25318803  0.05769262  1
  Se  Se134  1  0.25610265  0.24854038  0.55151325  1
  Se  Se135  1  0.26133202  0.59297292  0.05143980  1
  Se  Se136  1  0.25733946  0.58771558  0.56355386  1
  Se  Se137  1  0.25184339  0.92651797  0.05915452  1
  Se  Se138  1  0.25207588  0.91224394  0.55347072  1
  Se  Se139  1  0.58076979  0.25056086  0.05282960  1
  Se  Se140  1  0.58176054  0.24624101  0.55252012  1
  Se  Se141  1  0.58464214  0.58305237  0.04961040  1
  Se  Se142  1  0.58264650  0.58347050  0.55653715  1
  Se  Se143  1  0.57820701  0.91322948  0.04655563  1
  Se  Se144  1  0.59370352  0.92128305  0.56488917  1
  Se  Se145  1  0.90958663  0.24634767  0.05425967  1
  Se  Se146  1  0.91560375  0.25606388  0.55025365  1
  Se  Se147  1  0.91994591  0.57617475  0.05639719  1
  Se  Se148  1  0.91983038  0.58714212  0.56438292  1
  Se  Se149  1  0.91360500  0.91666843  0.04863102  1
  Se  Se150  1  0.91543300  0.92556970  0.54894009  1
  Se  Se151  1  0.10112458  0.24709188  0.45179110  1
  Se  Se152  1  0.08275422  0.25135558  0.95048604  1
  Se  Se153  1  0.06965574  0.57799520  0.43995182  1
  Se  Se154  1  0.07757234  0.59123934  0.93949145  1
  Se  Se155  1  0.08125077  0.90706057  0.45162892  1
  Se  Se156  1  0.07319851  0.92701410  0.93456593  1
  Se  Se157  1  0.42187467  0.24844135  0.44423410  1
  Se  Se158  1  0.41549869  0.24843083  0.94960744  1
  Se  Se159  1  0.42157614  0.58279182  0.45233467  1
  Se  Se160  1  0.42384862  0.58156757  0.94183354  1
  Se  Se161  1  0.41250740  0.92008867  0.43529923  1
  Se  Se162  1  0.41248899  0.91729466  0.94425748  1
  Se  Se163  1  0.75341217  0.25183557  0.44576777  1
  Se  Se164  1  0.74863158  0.24701120  0.94666037  1
  Se  Se165  1  0.73986996  0.59052674  0.44306833  1
  Se  Se166  1  0.75453909  0.57982500  0.95146630  1
  Se  Se167  1  0.75034631  0.91433174  0.45201980  1
  Se  Se168  1  0.74900000  0.91622351  0.94137838  1
  Se  Se169  1  0.25586261  0.07748638  0.44658817  1
  Se  Se170  1  0.24490306  0.08785974  0.94693187  1
  Se  Se171  1  0.25549956  0.41145977  0.43805678  1
  Se  Se172  1  0.25965898  0.40807360  0.93641544  1
  Se  Se173  1  0.24572094  0.74624793  0.45012901  1
  Se  Se174  1  0.25258864  0.74507008  0.93350647  1
  Se  Se175  1  0.58496769  0.08462858  0.45103257  1
  Se  Se176  1  0.57687286  0.08477536  0.94316377  1
  Se  Se177  1  0.58515278  0.41542092  0.44508150  1
  Se  Se178  1  0.58505060  0.41900569  0.95052583  1
  Se  Se179  1  0.58891092  0.74662590  0.43848105  1
  Se  Se180  1  0.58580667  0.75153553  0.94181183  1
  Se  Se181  1  0.93047038  0.07563031  0.46202803  1
  Se  Se182  1  0.90928607  0.08716200  0.94430497  1
  Se  Se183  1  0.92029391  0.41128567  0.44019497  1
  Se  Se184  1  0.92010021  0.41646080  0.94992819  1
  Se  Se185  1  0.90912264  0.74609444  0.44792504  1
  Se  Se186  1  0.91254769  0.75266269  0.95126729  1
  Se  Se187  1  0.25455539  0.25244182  0.30133560  1
  Se  Se188  1  0.23977218  0.23864641  0.80902240  1
  Se  Se189  1  0.24123568  0.57948617  0.31810231  1
  Se  Se190  1  0.25428481  0.57399936  0.79302288  1
  Se  Se191  1  0.23141973  0.91075828  0.30949349  1
  Se  Se192  1  0.25359491  0.91893197  0.79932850  1
  Se  Se193  1  0.59240013  0.25491456  0.30420419  1
  Se  Se194  1  0.57217830  0.24084216  0.80977553  1
  Se  Se195  1  0.57747277  0.57774678  0.31069879  1
  Se  Se196  1  0.58969407  0.58407529  0.80306923  1
  Se  Se197  1  0.57533835  0.91439764  0.29862756  1
  Se  Se198  1  0.58353348  0.91747978  0.80501389  1
  Se  Se199  1  0.92215774  0.24294304  0.31207101  1
  Se  Se200  1  0.92051971  0.25632900  0.80500756  1
  Se  Se201  1  0.91324560  0.58830386  0.29327117  1
  Se  Se202  1  0.91610989  0.58658628  0.81874148  1
  Se  Se203  1  0.90894288  0.90917572  0.31220787  1
  Se  Se204  1  0.90735228  0.90923047  0.80386174  1
  Se  Se205  1  0.08540765  0.09459802  0.31726355  1
  Se  Se206  1  0.08320977  0.08801026  0.80868579  1
  Se  Se207  1  0.08058790  0.41403607  0.30166003  1
  Se  Se208  1  0.09190969  0.42195072  0.80000826  1
  Se  Se209  1  0.07198272  0.74511554  0.30172138  1
  Se  Se210  1  0.09054719  0.75598148  0.80816410  1
  Se  Se211  1  0.42656521  0.09726046  0.30957489  1
  Se  Se212  1  0.40873545  0.07717929  0.80404631  1
  Se  Se213  1  0.41722590  0.41445951  0.30388469  1
  Se  Se214  1  0.42633424  0.41442078  0.80807807  1
  Se  Se215  1  0.41771334  0.75894242  0.30265837  1
  Se  Se216  1  0.41814532  0.74443998  0.80095323  1
  Se  Se217  1  0.76514729  0.08553184  0.31960914  1
  Se  Se218  1  0.75066387  0.08638141  0.80155521  1
  Se  Se219  1  0.76322001  0.42575744  0.29902087  1
  Se  Se220  1  0.75783990  0.42409212  0.81821829  1
  Se  Se221  1  0.75071355  0.75497798  0.31029961  1
  Se  Se222  1  0.75191141  0.74638020  0.80155453  1
  Se  Se223  1  0.24523159  0.08835447  0.19101928  1
  Se  Se224  1  0.24839194  0.07831900  0.69405081  1
  Se  Se225  1  0.25344780  0.42149726  0.20063733  1
  Se  Se226  1  0.24143562  0.41739301  0.68375873  1
  Se  Se227  1  0.23844503  0.75979634  0.19248079  1
  Se  Se228  1  0.25366531  0.74538336  0.69757720  1
  Se  Se229  1  0.57530236  0.09527333  0.18914513  1
  Se  Se230  1  0.58706766  0.07893614  0.70020577  1
  Se  Se231  1  0.58904566  0.41284483  0.19372018  1
  Se  Se232  1  0.57894558  0.41630893  0.69125071  1
  Se  Se233  1  0.57753910  0.75346677  0.18642806  1
  Se  Se234  1  0.59044218  0.74733691  0.69946117  1
  Se  Se235  1  0.90976259  0.08585334  0.19048815  1
  Se  Se236  1  0.91327111  0.09643336  0.68710732  1
  Se  Se237  1  0.93350079  0.39381088  0.19792590  1
  Se  Se238  1  0.89914456  0.42959551  0.70314436  1
  Se  Se239  1  0.91627415  0.74770782  0.19134061  1
  Se  Se240  1  0.91529237  0.76380813  0.68903347  1
  Se  Se241  1  0.08260587  0.24670187  0.19795369  1
  Se  Se242  1  0.07761311  0.24897651  0.69325366  1
  Se  Se243  1  0.08407099  0.58526340  0.19936131  1
  Se  Se244  1  0.09172364  0.57411845  0.68941699  1
  Se  Se245  1  0.08761098  0.90946390  0.19498871  1
  Se  Se246  1  0.09024492  0.90950315  0.68606165  1
  Se  Se247  1  0.41363212  0.25909828  0.19432359  1
  Se  Se248  1  0.41974262  0.24103661  0.69061618  1
  Se  Se249  1  0.42731971  0.57762569  0.19080244  1
  Se  Se250  1  0.41912607  0.58238002  0.69809935  1
  Se  Se251  1  0.41311452  0.92177551  0.18567332  1
  Se  Se252  1  0.42030761  0.91459382  0.69935921  1
  Se  Se253  1  0.75133185  0.24705115  0.19893120  1
  Se  Se254  1  0.75181677  0.24670171  0.69230497  1
  Se  Se255  1  0.75923621  0.57236487  0.18705903  1
  Se  Se256  1  0.75675327  0.57946391  0.70431607  1
  Se  Se257  1  0.75463134  0.91084255  0.19159697  1
  Se  Se258  1  0.74814843  0.93370832  0.69972481  1
