# generated using pymatgen
data_In86Cu29Se144
_symmetry_space_group_name_H-M   'P 1'
_cell_length_a   17.60656967
_cell_length_b   17.60095734
_cell_length_c   23.46638277
_cell_angle_alpha   90.02737503
_cell_angle_beta   89.97515603
_cell_angle_gamma   90.01151488
_symmetry_Int_Tables_number   1
_chemical_formula_structural   In86Cu29Se144
_chemical_formula_sum   'In86 Cu29 Se144'
_cell_volume   7272.05393472
_cell_formula_units_Z   1
loop_
 _symmetry_equiv_pos_site_id
 _symmetry_equiv_pos_as_xyz
  1  'x, y, z'
loop_
 _atom_site_type_symbol
 _atom_site_label
 _atom_site_symmetry_multiplicity
 _atom_site_fract_x
 _atom_site_fract_y
 _atom_site_fract_z
 _atom_site_occupancy
  In  In0  1  0.00491531  0.15466616  0.13027417  1
  In  In1  1  -0.01154231  0.16265518  0.61994704  1
  In  In2  1  -0.01710367  0.52023853  0.14401958  1
  In  In3  1  0.00749662  0.50681401  0.61897402  1
  In  In4  1  -0.00620612  0.83360179  0.12306803  1
  In  In5  1  -0.00363536  0.83403492  0.62753182  1
  In  In6  1  0.32418482  0.17770968  0.12506040  1
  In  In7  1  0.33662850  0.15153166  0.62549465  1
  In  In8  1  0.34137511  0.49841640  0.12224936  1
  In  In9  1  0.34484998  0.51575159  0.61297020  1
  In  In10  1  0.33077405  0.83252967  0.11313325  1
  In  In11  1  0.34338315  0.84313441  0.62016103  1
  In  In12  1  0.65812812  0.15457094  0.12836854  1
  In  In13  1  0.66043987  0.15903914  0.61993171  1
  In  In14  1  0.66806685  0.50378121  0.11965378  1
  In  In15  1  0.66860826  0.52654669  0.61896276  1
  In  In16  1  0.67352267  0.83550905  0.11751677  1
  In  In17  1  0.67279791  0.83820059  0.62871008  1
  In  In18  1  0.14893254  -0.00042084  0.37630793  1
  In  In19  1  0.16895605  -0.00741140  0.87158586  1
  In  In20  1  0.16475768  0.34495783  0.37585816  1
  In  In21  1  0.15438988  0.33246052  0.87833406  1
  In  In22  1  0.15392848  0.67570107  0.38125412  1
  In  In23  1  0.15555699  0.74660235  0.90083157  1
  In  In24  1  0.51340052  -0.00898029  0.38486210  1
  In  In25  1  0.49595713  -0.01196186  0.86454748  1
  In  In26  1  0.49109767  0.33510867  0.38890956  1
  In  In27  1  0.50473334  0.35029509  0.87345064  1
  In  In28  1  0.50653686  0.66427543  0.38539775  1
  In  In29  1  0.50050138  0.66416973  0.88236085  1
  In  In30  1  0.83066165  -0.00469807  0.37649957  1
  In  In31  1  0.82981459  -0.01803982  0.86067146  1
  In  In32  1  0.83048377  0.32695812  0.37142137  1
  In  In33  1  0.84950074  0.33603174  0.87967987  1
  In  In34  1  0.84498482  0.66165510  0.37530478  1
  In  In35  1  0.83328286  0.67262762  0.87126579  1
  In  In36  1  -0.01308665  0.14975122  0.36640613  1
  In  In37  1  0.01465934  0.15799790  0.88094378  1
  In  In38  1  0.00303446  0.51631029  0.36368597  1
  In  In39  1  -0.00852645  0.50740236  0.88218275  1
  In  In40  1  -0.00566815  0.83307765  0.37631174  1
  In  In41  1  -0.00730548  0.82950616  0.86102512  1
  In  In42  1  0.33870163  0.17927426  0.38273244  1
  In  In43  1  0.33447605  0.15095829  0.87388720  1
  In  In44  1  0.33125096  0.49083212  0.38150483  1
  In  In45  1  0.33910462  0.51983713  0.87393933  1
  In  In46  1  0.33664564  0.82750100  0.38491439  1
  In  In47  1  0.32993196  0.83818703  0.88284285  1
  In  In48  1  0.67952544  0.15710101  0.38451362  1
  In  In49  1  0.67744282  0.15611989  0.87333631  1
  In  In50  1  0.66861300  0.49653858  0.37430503  1
  In  In51  1  0.66162029  0.51794941  0.87948051  1
  In  In52  1  0.65651244  0.83600756  0.38611691  1
  In  In53  1  0.67123924  0.82756994  0.86894490  1
  In  In54  1  0.14067515  -0.01687307  0.10732963  1
  In  In55  1  0.18094280  -0.00527294  0.63026872  1
  In  In56  1  0.16244567  0.32161225  0.12123816  1
  In  In57  1  0.15916673  0.34156956  0.61978853  1
  In  In58  1  0.15508397  0.66763846  0.12500401  1
  In  In59  1  0.15818816  0.66746392  0.62235905  1
  In  In60  1  0.51189355  -0.00637292  0.12826675  1
  In  In61  1  0.50565462  -0.00414274  0.62651362  1
  In  In62  1  0.49396605  0.33474860  0.12696528  1
  In  In63  1  0.50170231  0.34345948  0.61157058  1
  In  In64  1  0.49653314  0.66964505  0.11558319  1
  In  In65  1  0.52373985  0.68747578  0.59874591  1
  In  In66  1  0.84692066  -0.01900474  0.13266810  1
  In  In67  1  0.83118586  -0.00685938  0.62895503  1
  In  In68  1  0.83550917  0.34878385  0.12748305  1
  In  In69  1  0.84395937  0.32881362  0.61856982  1
  In  In70  1  0.83506258  0.67533083  0.11909222  1
  In  In71  1  0.80603155  0.70510894  0.66704361  1
  In  In72  1  0.66872550  0.33089539  0.25579730  1
  In  In73  1  0.33057059  0.33281587  0.25700054  1
  In  In74  1  0.33180583  0.66407760  0.24467660  1
  In  In75  1  -0.00056691  0.32933163  0.74592405  1
  In  In76  1  0.49382729  0.16684647  0.00309337  1
  In  In77  1  0.16911804  0.16496092  0.49934649  1
  In  In78  1  0.16637506  0.50454573  0.00262529  1
  In  In79  1  0.67029308  0.67019509  0.25431860  1
  In  In80  1  0.83705640  0.15807282  -0.00380858  1
  In  In81  1  0.32454725  0.00219274  0.25128084  1
  In  In82  1  0.83542770  0.50794893  0.49870110  1
  In  In83  1  0.32928354  0.32981710  0.73624892  1
  In  In84  1  0.33147670  0.66873778  0.75375822  1
  In  In85  1  0.66791108  0.33225109  0.74925438  1
  Cu  Cu86  1  0.16509808  0.51125919  0.74771910  1
  Cu  Cu87  1  0.33987021  -0.00378196  0.50306662  1
  Cu  Cu88  1  0.83584688  0.15406856  0.74756492  1
  Cu  Cu89  1  0.15371848  0.83601242  0.25168306  1
  Cu  Cu90  1  -0.00384524  0.67076817  0.50225632  1
  Cu  Cu91  1  0.67091473  0.33313017  0.49545723  1
  Cu  Cu92  1  0.50671520  0.15780425  0.74758201  1
  Cu  Cu93  1  0.83065712  0.16238677  0.25310885  1
  Cu  Cu94  1  -0.00019729  0.33705644  0.00614244  1
  Cu  Cu95  1  0.50006296  0.50761979  0.74566295  1
  Cu  Cu96  1  0.32021180  0.66370928  0.49966620  1
  Cu  Cu97  1  0.16523455  0.83649870  0.74965878  1
  Cu  Cu98  1  0.67255285  0.67158636  -0.00354234  1
  Cu  Cu99  1  0.67149284  -0.00049543  0.50545742  1
  Cu  Cu100  1  0.66562617  -0.00733933  -0.00353759  1
  Cu  Cu101  1  0.50675798  0.15756872  0.25919172  1
  Cu  Cu102  1  0.16612985  0.50106996  0.25182934  1
  Cu  Cu103  1  0.16773287  0.15825367  0.75345130  1
  Cu  Cu104  1  0.83300752  0.83899001  0.24811655  1
  Cu  Cu105  1  0.32530165  0.00391883  -0.00266832  1
  Cu  Cu106  1  -0.00247061  0.66966964  -0.00071914  1
  Cu  Cu107  1  0.33468939  0.33774009  0.00116558  1
  Cu  Cu108  1  0.50408391  0.83626806  0.25477557  1
  Cu  Cu109  1  -0.00560159  -0.00822785  0.49987783  1
  Cu  Cu110  1  0.15634160  0.16086589  0.24560936  1
  Cu  Cu111  1  0.00050860  0.33208214  0.49416817  1
  Cu  Cu112  1  0.50499158  0.83255202  0.74442542  1
  Cu  Cu113  1  0.66790885  0.34415332  -0.00059282  1
  Cu  Cu114  1  0.83235299  0.50438932  0.75579229  1
  Se  Se115  1  0.08215978  0.09251730  0.04941422  1
  Se  Se116  1  0.07958057  0.07293536  0.55780329  1
  Se  Se117  1  0.07567584  0.42150029  0.06655844  1
  Se  Se118  1  0.07931277  0.41850549  0.54740121  1
  Se  Se119  1  0.08161249  0.75167088  0.05402485  1
  Se  Se120  1  0.08017673  0.75503451  0.55473026  1
  Se  Se121  1  0.40618152  0.07524362  0.06464088  1
  Se  Se122  1  0.42346714  0.07944147  0.55520555  1
  Se  Se123  1  0.42221438  0.41616392  0.05248140  1
  Se  Se124  1  0.40264136  0.41081232  0.55025595  1
  Se  Se125  1  0.42768172  0.76396882  0.05066287  1
  Se  Se126  1  0.40686444  0.74783661  0.54980603  1
  Se  Se127  1  0.74322217  0.07406322  0.05784089  1
  Se  Se128  1  0.75629088  0.08268122  0.55810793  1
  Se  Se129  1  0.75441630  0.42167932  0.05323615  1
  Se  Se130  1  0.74528757  0.41449707  0.56087486  1
  Se  Se131  1  0.75659040  0.75660336  0.04763022  1
  Se  Se132  1  0.74889667  0.73662491  0.56949588  1
  Se  Se133  1  0.24929936  0.25142814  0.04798423  1
  Se  Se134  1  0.25507439  0.25158734  0.56377701  1
  Se  Se135  1  0.25893230  0.59405853  0.06203056  1
  Se  Se136  1  0.23812060  0.58088030  0.55385685  1
  Se  Se137  1  0.24440531  0.91429015  0.04757707  1
  Se  Se138  1  0.24946384  0.91591885  0.55208563  1
  Se  Se139  1  0.59257586  0.25768180  0.05825409  1
  Se  Se140  1  0.58904879  0.25303951  0.55328051  1
  Se  Se141  1  0.58895376  0.58968745  0.05260546  1
  Se  Se142  1  0.56145729  0.56124721  0.55030059  1
  Se  Se143  1  0.58037733  0.91365392  0.05193469  1
  Se  Se144  1  0.58734130  0.91422865  0.55654459  1
  Se  Se145  1  0.91681450  0.25214040  0.06126251  1
  Se  Se146  1  0.91803965  0.24708802  0.54574838  1
  Se  Se147  1  0.92044606  0.58471777  0.05634337  1
  Se  Se148  1  0.91348957  0.59698590  0.56514187  1
  Se  Se149  1  0.91832966  0.91847905  0.05136335  1
  Se  Se150  1  0.91174068  0.91196939  0.55637188  1
  Se  Se151  1  0.07619603  0.24618847  0.43472936  1
  Se  Se152  1  0.07982133  0.25246778  0.95153532  1
  Se  Se153  1  0.07525339  0.58379384  0.44631030  1
  Se  Se154  1  0.08599593  0.59721712  0.93855053  1
  Se  Se155  1  0.08113909  0.91147257  0.44770661  1
  Se  Se156  1  0.10128348  0.88382715  0.93213598  1
  Se  Se157  1  0.42196378  0.24345753  0.45701861  1
  Se  Se158  1  0.41189097  0.25862119  0.93580469  1
  Se  Se159  1  0.40696149  0.58663898  0.44356242  1
  Se  Se160  1  0.42756393  0.57186123  0.95006030  1
  Se  Se161  1  0.42222938  0.91179033  0.44912325  1
  Se  Se162  1  0.41607501  0.92681518  0.94561448  1
  Se  Se163  1  0.75855874  0.24971970  0.44838375  1
  Se  Se164  1  0.74436724  0.25820742  0.94124669  1
  Se  Se165  1  0.73938221  0.59482206  0.44134182  1
  Se  Se166  1  0.75781517  0.58673301  0.94502084  1
  Se  Se167  1  0.75014734  0.91515516  0.44854078  1
  Se  Se168  1  0.74968546  0.91547746  0.93922864  1
  Se  Se169  1  0.25803333  0.07144549  0.43886443  1
  Se  Se170  1  0.24200187  0.08440172  0.94286465  1
  Se  Se171  1  0.25629445  0.40130065  0.44841789  1
  Se  Se172  1  0.25534741  0.41487126  0.93746368  1
  Se  Se173  1  0.24171785  0.75348256  0.44849220  1
  Se  Se174  1  0.28627302  0.72250656  0.94386197  1
  Se  Se175  1  0.58729473  0.08335351  0.45162923  1
  Se  Se176  1  0.58440146  0.07864118  0.94153284  1
  Se  Se177  1  0.58783307  0.41834738  0.44549040  1
  Se  Se178  1  0.58407995  0.42532631  0.94587341  1
  Se  Se179  1  0.58044242  0.74908649  0.45440487  1
  Se  Se180  1  0.58723788  0.75297565  0.94290280  1
  Se  Se181  1  0.91464492  0.07911735  0.44642052  1
  Se  Se182  1  0.91984833  0.06628561  0.93453020  1
  Se  Se183  1  0.92114227  0.41643585  0.43584197  1
  Se  Se184  1  0.91746562  0.42110485  0.95354527  1
  Se  Se185  1  0.91209064  0.75104538  0.44718264  1
  Se  Se186  1  0.91915479  0.75285079  0.94016012  1
  Se  Se187  1  0.23744759  0.23626054  0.30876730  1
  Se  Se188  1  0.24403105  0.24836875  0.80869576  1
  Se  Se189  1  0.24577697  0.58040559  0.31271445  1
  Se  Se190  1  0.23517417  0.58881981  0.81435670  1
  Se  Se191  1  0.24221887  0.90638551  0.31284225  1
  Se  Se192  1  0.25627686  0.91290629  0.80371971  1
  Se  Se193  1  0.57903989  0.24446566  0.31869374  1
  Se  Se194  1  0.57671198  0.24232753  0.81162060  1
  Se  Se195  1  0.57560619  0.57726991  0.30737389  1
  Se  Se196  1  0.57798957  0.58774437  0.80514426  1
  Se  Se197  1  0.58862344  0.91680533  0.30725382  1
  Se  Se198  1  0.58895804  0.91409890  0.80002481  1
  Se  Se199  1  0.91510377  0.24772215  0.30254111  1
  Se  Se200  1  0.91389046  0.23623884  0.80894002  1
  Se  Se201  1  0.91136177  0.58694278  0.29631996  1
  Se  Se202  1  0.92048493  0.58474111  0.80570950  1
  Se  Se203  1  0.91680908  0.91871997  0.30542324  1
  Se  Se204  1  0.91212894  0.90618902  0.78838649  1
  Se  Se205  1  0.07719042  0.07380675  0.29821961  1
  Se  Se206  1  0.08217862  0.07640151  0.80445765  1
  Se  Se207  1  0.08205005  0.41747196  0.30350573  1
  Se  Se208  1  0.08601935  0.42496155  0.80568624  1
  Se  Se209  1  0.07570279  0.74868111  0.30515898  1
  Se  Se210  1  0.09056820  0.74470691  0.80209155  1
  Se  Se211  1  0.41791604  0.08321336  0.31592575  1
  Se  Se212  1  0.41739127  0.08102954  0.80034258  1
  Se  Se213  1  0.42734465  0.42250487  0.30799978  1
  Se  Se214  1  0.41574551  0.42454027  0.79949996  1
  Se  Se215  1  0.42250682  0.75176107  0.30868818  1
  Se  Se216  1  0.42519463  0.75921849  0.81008949  1
  Se  Se217  1  0.74753762  0.07925041  0.30604735  1
  Se  Se218  1  0.74701586  0.07602311  0.79897262  1
  Se  Se219  1  0.76332964  0.42886013  0.30304716  1
  Se  Se220  1  0.75648503  0.41828298  0.81451520  1
  Se  Se221  1  0.75693705  0.76169560  0.31415428  1
  Se  Se222  1  0.74368842  0.73858146  0.79815618  1
  Se  Se223  1  0.23764188  0.08416997  0.18434160  1
  Se  Se224  1  0.25715415  0.08069880  0.70142906  1
  Se  Se225  1  0.24460853  0.42165425  0.19035244  1
  Se  Se226  1  0.24325621  0.43307467  0.68655119  1
  Se  Se227  1  0.24178425  0.76292034  0.19205474  1
  Se  Se228  1  0.24787629  0.75842770  0.68788026  1
  Se  Se229  1  0.58526332  0.07458774  0.20340191  1
  Se  Se230  1  0.59212154  0.07678696  0.69604343  1
  Se  Se231  1  0.58129767  0.42003410  0.19219537  1
  Se  Se232  1  0.58115051  0.42419217  0.68891734  1
  Se  Se233  1  0.57862873  0.75515132  0.19079266  1
  Se  Se234  1  0.58166283  0.74661726  0.68933639  1
  Se  Se235  1  0.91350106  0.08083041  0.19728081  1
  Se  Se236  1  0.92319564  0.07722911  0.69407905  1
  Se  Se237  1  0.92675021  0.40741478  0.19980347  1
  Se  Se238  1  0.90853080  0.42541010  0.69161500  1
  Se  Se239  1  0.91274072  0.75230594  0.19441539  1
  Se  Se240  1  0.93397935  0.74859061  0.70569309  1
  Se  Se241  1  0.07908550  0.25168248  0.19519063  1
  Se  Se242  1  0.09319426  0.23837301  0.68871240  1
  Se  Se243  1  0.08580187  0.59167617  0.20314946  1
  Se  Se244  1  0.07711729  0.58828750  0.69508787  1
  Se  Se245  1  0.07668629  0.91838015  0.19335532  1
  Se  Se246  1  0.08603528  0.91930800  0.69307704  1
  Se  Se247  1  0.42541329  0.23697956  0.19902854  1
  Se  Se248  1  0.43287385  0.24355793  0.68698224  1
  Se  Se249  1  0.43032377  0.57589529  0.19259404  1
  Se  Se250  1  0.42540882  0.59283991  0.68684535  1
  Se  Se251  1  0.41724636  0.90960047  0.19437008  1
  Se  Se252  1  0.41825987  0.91809152  0.69681100  1
  Se  Se253  1  0.75301471  0.24132198  0.18907388  1
  Se  Se254  1  0.76132505  0.24404559  0.69051117  1
  Se  Se255  1  0.75572661  0.58239241  0.19011661  1
  Se  Se256  1  0.74141435  0.58085065  0.70507960  1
  Se  Se257  1  0.74313928  0.91593955  0.19525857  1
  Se  Se258  1  0.76066582  0.90686300  0.70178496  1
