# generated using pymatgen
data_In86Cu29Se144
_symmetry_space_group_name_H-M   'P 1'
_cell_length_a   17.57897822
_cell_length_b   17.58303865
_cell_length_c   23.44447622
_cell_angle_alpha   90.01292806
_cell_angle_beta   90.00261528
_cell_angle_gamma   89.99945920
_symmetry_Int_Tables_number   1
_chemical_formula_structural   In86Cu29Se144
_chemical_formula_sum   'In86 Cu29 Se144'
_cell_volume   7246.49641326
_cell_formula_units_Z   1
loop_
 _symmetry_equiv_pos_site_id
 _symmetry_equiv_pos_as_xyz
  1  'x, y, z'
loop_
 _atom_site_type_symbol
 _atom_site_label
 _atom_site_symmetry_multiplicity
 _atom_site_fract_x
 _atom_site_fract_y
 _atom_site_fract_z
 _atom_site_occupancy
  In  In0  1  -0.00955618  0.17271218  0.12221971  1
  In  In1  1  -0.00089557  0.16460879  0.61880776  1
  In  In2  1  -0.01707718  0.50208653  0.12482402  1
  In  In3  1  0.00616653  0.50669472  0.61983771  1
  In  In4  1  -0.01652005  0.83339906  0.11985189  1
  In  In5  1  -0.01266391  0.82508429  0.62034922  1
  In  In6  1  0.34579803  0.15462141  0.13699781  1
  In  In7  1  0.32468863  0.16597375  0.62303218  1
  In  In8  1  0.32552177  0.49271480  0.13271549  1
  In  In9  1  0.33592518  0.51511918  0.62069756  1
  In  In10  1  0.34789885  0.83364841  0.12419481  1
  In  In11  1  0.33725189  0.83702340  0.62330451  1
  In  In12  1  0.65635931  0.16517612  0.12421049  1
  In  In13  1  0.66479678  0.15853584  0.62306220  1
  In  In14  1  0.67760631  0.49302966  0.13415540  1
  In  In15  1  0.68380991  0.50554455  0.62038380  1
  In  In16  1  0.66855171  0.83321560  0.12683815  1
  In  In17  1  0.66754088  0.83105479  0.62513402  1
  In  In18  1  0.17517580  -0.00466632  0.38221800  1
  In  In19  1  0.16887708  -0.01084282  0.86702749  1
  In  In20  1  0.17413067  0.33146420  0.38499307  1
  In  In21  1  0.16793881  0.33681679  0.87502919  1
  In  In22  1  0.16928661  0.66643648  0.38563413  1
  In  In23  1  0.16713341  0.67036378  0.86075342  1
  In  In24  1  0.49600582  -0.00856486  0.37062889  1
  In  In25  1  0.50071867  -0.00498232  0.87523240  1
  In  In26  1  0.49866735  0.33312920  0.36604310  1
  In  In27  1  0.50653483  0.32501756  0.88695553  1
  In  In28  1  0.51743018  0.66480530  0.37593942  1
  In  In29  1  0.51299940  0.67911603  0.86501122  1
  In  In30  1  0.82451638  0.00748408  0.38041409  1
  In  In31  1  0.81835236  0.00946552  0.88547182  1
  In  In32  1  0.82173070  0.33623652  0.38471157  1
  In  In33  1  0.82776085  0.33007774  0.88328631  1
  In  In34  1  0.82658348  0.67278343  0.38139680  1
  In  In35  1  0.83432147  0.67584421  0.87521542  1
  In  In36  1  -0.00380740  0.17066742  0.38144730  1
  In  In37  1  -0.02655447  0.15507387  0.87201600  1
  In  In38  1  -0.00026340  0.49724591  0.38386176  1
  In  In39  1  -0.01561341  0.51134818  0.87887103  1
  In  In40  1  -0.00005883  0.83336496  0.38562719  1
  In  In41  1  -0.00395113  0.82372912  0.87438338  1
  In  In42  1  0.33529659  0.16422310  0.37434555  1
  In  In43  1  0.34978207  0.16339625  0.87838069  1
  In  In44  1  0.32527320  0.49210748  0.37518132  1
  In  In45  1  0.32405336  0.50102427  0.86984812  1
  In  In46  1  0.32973997  0.84067140  0.38333219  1
  In  In47  1  0.34165425  0.84288965  0.86480509  1
  In  In48  1  0.67411736  0.17124157  0.36716634  1
  In  In49  1  0.68213767  0.14913033  0.88802313  1
  In  In50  1  0.67094320  0.50493364  0.36918982  1
  In  In51  1  0.66516376  0.51360428  0.87530605  1
  In  In52  1  0.66612123  0.83400796  0.37674175  1
  In  In53  1  0.66599203  0.83360689  0.87584687  1
  In  In54  1  0.16746476  0.00838790  0.13110636  1
  In  In55  1  0.17666230  0.01109756  0.61893812  1
  In  In56  1  0.17377277  0.34067541  0.13695468  1
  In  In57  1  0.16622253  0.32802564  0.60888276  1
  In  In58  1  0.16537751  0.66012021  0.12765990  1
  In  In59  1  0.16382945  0.67147445  0.62195130  1
  In  In60  1  0.50036215  -0.00140342  0.12687813  1
  In  In61  1  0.51743699  -0.00922659  0.63250048  1
  In  In62  1  0.51629916  0.31765260  0.13819320  1
  In  In63  1  0.50077918  0.33092618  0.61879552  1
  In  In64  1  0.50438084  0.68723288  0.12046538  1
  In  In65  1  0.48864872  0.67679421  0.63175095  1
  In  In66  1  0.81951317  -0.01898076  0.11036613  1
  In  In67  1  0.82969378  -0.00437836  0.62299604  1
  In  In68  1  0.80457916  0.31480513  0.10370421  1
  In  In69  1  0.82710578  0.33764972  0.61223027  1
  In  In70  1  0.82486692  0.64910526  0.10920695  1
  In  In71  1  0.83411291  0.66948774  0.62795537  1
  In  In72  1  0.33589955  0.33817184  0.74259634  1
  In  In73  1  0.49811246  0.50126681  0.49391098  1
  In  In74  1  0.15993055  0.83260131  -0.00362957  1
  In  In75  1  0.00005226  0.66149947  0.24569510  1
  In  In76  1  0.16343559  0.49832091  0.00137365  1
  In  In77  1  0.34047470  0.66509383  0.25876607  1
  In  In78  1  -0.00042570  0.34081880  0.75597579  1
  In  In79  1  0.66631130  0.33297962  0.74679489  1
  In  In80  1  0.50378507  0.49901153  0.00099866  1
  In  In81  1  -0.00419063  -0.00290878  0.24656232  1
  In  In82  1  -0.00175571  -0.00472733  0.74694979  1
  In  In83  1  0.50357274  0.16737777  0.49423616  1
  In  In84  1  0.15985031  0.16644430  0.00467887  1
  In  In85  1  -0.00265564  0.33200898  0.25526608  1
  Cu  Cu86  1  0.17102930  0.83244550  0.74276907  1
  Cu  Cu87  1  0.50239350  0.83338710  0.74933827  1
  Cu  Cu88  1  0.66929708  -0.00697321  0.50211870  1
  Cu  Cu89  1  0.50099606  0.16257832  0.25192475  1
  Cu  Cu90  1  -0.00473597  0.33099054  -0.00266153  1
  Cu  Cu91  1  0.33616331  0.00070444  0.00059580  1
  Cu  Cu92  1  0.34039398  0.00190030  0.50040944  1
  Cu  Cu93  1  0.82607585  0.83423429  0.74962864  1
  Cu  Cu94  1  0.17263293  0.83399151  0.25674463  1
  Cu  Cu95  1  -0.00560099  0.66606873  0.50412813  1
  Cu  Cu96  1  0.50000197  0.50319271  0.75034937  1
  Cu  Cu97  1  0.65523089  -0.00521756  0.00228016  1
  Cu  Cu98  1  0.83125620  0.49532620  0.24935568  1
  Cu  Cu99  1  0.17378276  0.16336208  0.25781543  1
  Cu  Cu100  1  0.82143047  0.16177948  0.24521564  1
  Cu  Cu101  1  0.66779905  0.67203587  -0.00353033  1
  Cu  Cu102  1  0.66718834  0.66929108  0.50152601  1
  Cu  Cu103  1  0.83588718  0.50847158  0.74903190  1
  Cu  Cu104  1  0.16928777  0.16716267  0.74528124  1
  Cu  Cu105  1  0.34329076  0.32379287  0.00962988  1
  Cu  Cu106  1  0.50287956  0.50499047  0.25132411  1
  Cu  Cu107  1  0.16589032  0.51277019  0.74185527  1
  Cu  Cu108  1  0.32978711  0.67409546  0.50416073  1
  Cu  Cu109  1  0.34098339  0.66937511  -0.00678582  1
  Cu  Cu110  1  0.50729767  0.84035219  0.24788706  1
  Cu  Cu111  1  -0.00314081  0.33344555  0.49833504  1
  Cu  Cu112  1  0.00498994  -0.00020104  0.50284106  1
  Cu  Cu113  1  0.50494602  0.15431864  0.75420778  1
  Cu  Cu114  1  0.82407397  0.83132482  0.25184218  1
  Se  Se115  1  0.07045832  0.07131753  0.05975127  1
  Se  Se116  1  0.08800948  0.08850275  0.55146812  1
  Se  Se117  1  0.07653763  0.40323575  0.06172033  1
  Se  Se118  1  0.08061718  0.41841228  0.55014178  1
  Se  Se119  1  0.07746850  0.74001745  0.06044594  1
  Se  Se120  1  0.08016277  0.75296022  0.55242353  1
  Se  Se121  1  0.41683316  0.08273790  0.05678270  1
  Se  Se122  1  0.42222805  0.07885708  0.56263533  1
  Se  Se123  1  0.41725566  0.41185834  0.06665955  1
  Se  Se124  1  0.40725178  0.41158410  0.55569502  1
  Se  Se125  1  0.41869649  0.75645954  0.04639408  1
  Se  Se126  1  0.42022465  0.75397418  0.55263394  1
  Se  Se127  1  0.73941390  0.08007666  0.05462200  1
  Se  Se128  1  0.74964706  0.08104358  0.55312546  1
  Se  Se129  1  0.76347769  0.43886311  0.05496255  1
  Se  Se130  1  0.74358918  0.41898762  0.54545723  1
  Se  Se131  1  0.75050217  0.75317697  0.05382194  1
  Se  Se132  1  0.75259873  0.75043489  0.55603220  1
  Se  Se133  1  0.25395712  0.25043919  0.06669534  1
  Se  Se134  1  0.25779172  0.24786733  0.54881004  1
  Se  Se135  1  0.26324159  0.59017284  0.05562869  1
  Se  Se136  1  0.24592062  0.58632648  0.55189259  1
  Se  Se137  1  0.25198807  0.92183605  0.05935950  1
  Se  Se138  1  0.25422613  0.91988229  0.55350085  1
  Se  Se139  1  0.58417490  0.25597800  0.05439034  1
  Se  Se140  1  0.59654750  0.25862992  0.55263882  1
  Se  Se141  1  0.59113239  0.59089551  0.06092536  1
  Se  Se142  1  0.58185847  0.58993282  0.56078149  1
  Se  Se143  1  0.57758504  0.90970348  0.05868072  1
  Se  Se144  1  0.58309999  0.91146165  0.55355940  1
  Se  Se145  1  0.91138569  0.24444898  0.04690594  1
  Se  Se146  1  0.91576880  0.24931114  0.55283458  1
  Se  Se147  1  0.93269890  0.59130154  0.04847527  1
  Se  Se148  1  0.91030584  0.58227814  0.55676274  1
  Se  Se149  1  0.92039379  0.91829247  0.04570326  1
  Se  Se150  1  0.91597198  0.91859999  0.55309702  1
  Se  Se151  1  0.08323035  0.24932984  0.44813228  1
  Se  Se152  1  0.07388733  0.25213857  0.93521165  1
  Se  Se153  1  0.07994428  0.58543757  0.44953594  1
  Se  Se154  1  0.08509495  0.59366243  0.93913890  1
  Se  Se155  1  0.08779708  0.91590547  0.44935588  1
  Se  Se156  1  0.07342363  0.92769579  0.93879411  1
  Se  Se157  1  0.41141174  0.26206890  0.44229205  1
  Se  Se158  1  0.42299431  0.24170220  0.95400249  1
  Se  Se159  1  0.40672613  0.59657795  0.43734380  1
  Se  Se160  1  0.41631526  0.58484452  0.93431393  1
  Se  Se161  1  0.42297027  0.91617860  0.44919100  1
  Se  Se162  1  0.41370650  0.91424527  0.94501797  1
  Se  Se163  1  0.76032614  0.22953033  0.44461116  1
  Se  Se164  1  0.74300914  0.25280002  0.95052414  1
  Se  Se165  1  0.74549796  0.58287060  0.44610647  1
  Se  Se166  1  0.75167176  0.58855274  0.94421830  1
  Se  Se167  1  0.75372298  0.91156386  0.44665531  1
  Se  Se168  1  0.74375041  0.91460978  0.94924911  1
  Se  Se169  1  0.25592782  0.08461996  0.44737310  1
  Se  Se170  1  0.25071694  0.07739948  0.94142781  1
  Se  Se171  1  0.24278283  0.42850627  0.45126550  1
  Se  Se172  1  0.26407155  0.40461913  0.94833557  1
  Se  Se173  1  0.24584878  0.75769391  0.45058941  1
  Se  Se174  1  0.25508078  0.74700990  0.93594926  1
  Se  Se175  1  0.59222276  0.07354035  0.43791679  1
  Se  Se176  1  0.57674282  0.08072220  0.94671931  1
  Se  Se177  1  0.58887696  0.41070063  0.43715440  1
  Se  Se178  1  0.60063377  0.41137480  0.94550865  1
  Se  Se179  1  0.58318312  0.75272234  0.44914099  1
  Se  Se180  1  0.57923315  0.75271787  0.94611193  1
  Se  Se181  1  0.91966342  0.07917215  0.44649042  1
  Se  Se182  1  0.91304738  0.08092111  0.95259133  1
  Se  Se183  1  0.91090636  0.41819315  0.44887440  1
  Se  Se184  1  0.91501269  0.41751288  0.94534856  1
  Se  Se185  1  0.91302664  0.75081584  0.44992697  1
  Se  Se186  1  0.91850240  0.74995848  0.94819469  1
  Se  Se187  1  0.25052639  0.25230792  0.30987075  1
  Se  Se188  1  0.24918476  0.24662822  0.80792301  1
  Se  Se189  1  0.23729459  0.58025012  0.30721961  1
  Se  Se190  1  0.25575462  0.58710300  0.79696853  1
  Se  Se191  1  0.25453767  0.91900541  0.30700507  1
  Se  Se192  1  0.25295010  0.91860243  0.79479865  1
  Se  Se193  1  0.58463185  0.24989257  0.30121047  1
  Se  Se194  1  0.58012387  0.24398859  0.81032168  1
  Se  Se195  1  0.59008319  0.58874792  0.29902558  1
  Se  Se196  1  0.58788002  0.58595246  0.79892988  1
  Se  Se197  1  0.59106281  0.92008081  0.30406199  1
  Se  Se198  1  0.58472867  0.91626861  0.80487789  1
  Se  Se199  1  0.90318207  0.23850375  0.30719526  1
  Se  Se200  1  0.90091158  0.24759702  0.80258867  1
  Se  Se201  1  0.91093386  0.57563169  0.30994839  1
  Se  Se202  1  0.91775154  0.59262418  0.80279150  1
  Se  Se203  1  0.91096549  0.90758996  0.31040461  1
  Se  Se204  1  0.90635536  0.91424049  0.81106090  1
  Se  Se205  1  0.08424763  0.08461974  0.31109372  1
  Se  Se206  1  0.08594264  0.09327164  0.80802333  1
  Se  Se207  1  0.08834607  0.42022168  0.31266152  1
  Se  Se208  1  0.09355594  0.43541772  0.81054210  1
  Se  Se209  1  0.08686189  0.75342885  0.31009915  1
  Se  Se210  1  0.08241852  0.75788833  0.79842688  1
  Se  Se211  1  0.41592229  0.08090674  0.30537839  1
  Se  Se212  1  0.41417225  0.07661607  0.80451331  1
  Se  Se213  1  0.41667872  0.42506166  0.30404478  1
  Se  Se214  1  0.42838265  0.41707810  0.81206738  1
  Se  Se215  1  0.42875826  0.76163203  0.31271848  1
  Se  Se216  1  0.41519530  0.74821499  0.79953303  1
  Se  Se217  1  0.74563586  0.07434340  0.30081262  1
  Se  Se218  1  0.75054609  0.08300017  0.80530633  1
  Se  Se219  1  0.75093463  0.41176656  0.30519383  1
  Se  Se220  1  0.75651098  0.42490398  0.80781374  1
  Se  Se221  1  0.74528887  0.74594065  0.30676047  1
  Se  Se222  1  0.74547121  0.74943228  0.80488011  1
  Se  Se223  1  0.25303367  0.07771179  0.20317637  1
  Se  Se224  1  0.25494213  0.08214822  0.69789889  1
  Se  Se225  1  0.25631261  0.41330602  0.20785598  1
  Se  Se226  1  0.23915044  0.42290931  0.68507002  1
  Se  Se227  1  0.24866263  0.75321621  0.19283587  1
  Se  Se228  1  0.25414465  0.74917756  0.68963256  1
  Se  Se229  1  0.58326991  0.07952587  0.19710884  1
  Se  Se230  1  0.59451522  0.07951946  0.70052174  1
  Se  Se231  1  0.58639258  0.41818895  0.20058170  1
  Se  Se232  1  0.57636680  0.42562423  0.68666209  1
  Se  Se233  1  0.58688036  0.75016229  0.19840912  1
  Se  Se234  1  0.58522788  0.74878311  0.69609328  1
  Se  Se235  1  0.90413080  0.08376840  0.18595412  1
  Se  Se236  1  0.91081648  0.09098409  0.69172463  1
  Se  Se237  1  0.90396620  0.40882505  0.18893365  1
  Se  Se238  1  0.90983538  0.42236638  0.68917793  1
  Se  Se239  1  0.90409747  0.75085989  0.19214542  1
  Se  Se240  1  0.91513238  0.75257567  0.69963073  1
  Se  Se241  1  0.08940789  0.23715881  0.19510099  1
  Se  Se242  1  0.08769760  0.25067292  0.69096831  1
  Se  Se243  1  0.09069528  0.56281623  0.19284676  1
  Se  Se244  1  0.07691324  0.59261281  0.69291666  1
  Se  Se245  1  0.08832032  0.90201663  0.19010676  1
  Se  Se246  1  0.08957164  0.91352173  0.68262585  1
  Se  Se247  1  0.41546603  0.25109234  0.20265393  1
  Se  Se248  1  0.42992560  0.23887232  0.69252148  1
  Se  Se249  1  0.42601326  0.58392599  0.18689542  1
  Se  Se250  1  0.41307888  0.58393688  0.69884724  1
  Se  Se251  1  0.41490484  0.91820604  0.19848086  1
  Se  Se252  1  0.41959167  0.91750210  0.69523470  1
  Se  Se253  1  0.74389434  0.25049453  0.19162551  1
  Se  Se254  1  0.75782324  0.24658303  0.68733149  1
  Se  Se255  1  0.75650077  0.58868949  0.19649704  1
  Se  Se256  1  0.74764654  0.58851993  0.69770263  1
  Se  Se257  1  0.74940794  0.91970778  0.19612797  1
  Se  Se258  1  0.74681511  0.91859101  0.69472199  1
