# generated using pymatgen
data_In86Cu29Se144
_symmetry_space_group_name_H-M   'P 1'
_cell_length_a   17.58172674
_cell_length_b   17.58056965
_cell_length_c   23.44364669
_cell_angle_alpha   89.98436987
_cell_angle_beta   89.99766460
_cell_angle_gamma   90.01133542
_symmetry_Int_Tables_number   1
_chemical_formula_structural   In86Cu29Se144
_chemical_formula_sum   'In86 Cu29 Se144'
_cell_volume   7246.35508665
_cell_formula_units_Z   1
loop_
 _symmetry_equiv_pos_site_id
 _symmetry_equiv_pos_as_xyz
  1  'x, y, z'
loop_
 _atom_site_type_symbol
 _atom_site_label
 _atom_site_symmetry_multiplicity
 _atom_site_fract_x
 _atom_site_fract_y
 _atom_site_fract_z
 _atom_site_occupancy
  In  In0  1  -0.00946404  0.18103204  0.12566479  1
  In  In1  1  0.00117589  0.17270630  0.62216830  1
  In  In2  1  0.01603911  0.49400026  0.12237665  1
  In  In3  1  0.00114930  0.49947155  0.62336363  1
  In  In4  1  -0.00725614  0.82612700  0.13271338  1
  In  In5  1  -0.00691369  0.82801906  0.61813064  1
  In  In6  1  0.35125562  0.16410823  0.12797525  1
  In  In7  1  0.34619140  0.17632385  0.61627893  1
  In  In8  1  0.33350075  0.49634452  0.12843422  1
  In  In9  1  0.32579662  0.50939542  0.62863586  1
  In  In10  1  0.32538037  0.82259503  0.12878724  1
  In  In11  1  0.32654084  0.83052575  0.62357756  1
  In  In12  1  0.67227418  0.17440910  0.12961215  1
  In  In13  1  0.69186302  0.21128625  0.59261596  1
  In  In14  1  0.64975042  0.50301682  0.12456196  1
  In  In15  1  0.68150397  0.48658637  0.63135128  1
  In  In16  1  0.67954970  0.83392552  0.13161392  1
  In  In17  1  0.66946479  0.81934383  0.62585483  1
  In  In18  1  0.16522724  -0.00086035  0.38381425  1
  In  In19  1  0.16446337  -0.00758856  0.87358531  1
  In  In20  1  0.16979121  0.33070086  0.38337380  1
  In  In21  1  0.17733890  0.34445986  0.86524013  1
  In  In22  1  0.16388820  0.66363869  0.37800777  1
  In  In23  1  0.15624477  0.65043408  0.86627265  1
  In  In24  1  0.51746280  0.00245387  0.36774303  1
  In  In25  1  0.51302558  0.01644341  0.87807395  1
  In  In26  1  0.50002572  0.32970295  0.37388556  1
  In  In27  1  0.50109922  0.33451890  0.87706423  1
  In  In28  1  0.49609327  0.67507694  0.37089635  1
  In  In29  1  0.48365519  0.65126681  0.86082979  1
  In  In30  1  0.82158469  0.00828571  0.38416326  1
  In  In31  1  0.82695573  0.00850887  0.88127410  1
  In  In32  1  0.82211488  0.33334057  0.37885633  1
  In  In33  1  0.81989263  0.31739454  0.85669287  1
  In  In34  1  0.84806347  0.65090978  0.38644565  1
  In  In35  1  0.83366890  0.66556379  0.86214062  1
  In  In36  1  -0.00637889  0.17425201  0.38682024  1
  In  In37  1  -0.01817218  0.16617261  0.87166333  1
  In  In38  1  -0.01040844  0.51193192  0.38066450  1
  In  In39  1  0.00357187  0.50082897  0.86773176  1
  In  In40  1  0.01146625  0.81646696  0.38514672  1
  In  In41  1  0.00637945  0.82930081  0.86942279  1
  In  In42  1  0.32421038  0.17636147  0.38190942  1
  In  In43  1  0.33734184  0.18507695  0.87309928  1
  In  In44  1  0.32710081  0.48861929  0.37225710  1
  In  In45  1  0.33310469  0.49591193  0.87463645  1
  In  In46  1  0.32827748  0.81899312  0.37129851  1
  In  In47  1  0.34241147  0.80895467  0.87387565  1
  In  In48  1  0.67329813  0.16684208  0.37660860  1
  In  In49  1  0.65735648  0.16986543  0.88424623  1
  In  In50  1  0.68624367  0.48248403  0.37890069  1
  In  In51  1  0.65793248  0.48768381  0.86883735  1
  In  In52  1  0.66410833  0.84589095  0.37436010  1
  In  In53  1  0.67265431  0.83533494  0.86732389  1
  In  In54  1  0.15823785  -0.00501539  0.12995769  1
  In  In55  1  0.16707782  -0.00322834  0.61347818  1
  In  In56  1  0.16136301  0.34810312  0.12708014  1
  In  In57  1  0.16652031  0.33609186  0.62360447  1
  In  In58  1  0.18261707  0.65700609  0.13776371  1
  In  In59  1  0.16530915  0.66282070  0.62164861  1
  In  In60  1  0.51007133  0.02153277  0.11854416  1
  In  In61  1  0.49404766  0.01278217  0.62462379  1
  In  In62  1  0.50184242  0.33439826  0.12858953  1
  In  In63  1  0.50767815  0.32647631  0.63159644  1
  In  In64  1  0.49469803  0.64810604  0.12215488  1
  In  In65  1  0.50644998  0.66595324  0.64021572  1
  In  In66  1  0.81476480  0.01266095  0.13858490  1
  In  In67  1  0.83774880  0.01078910  0.61707539  1
  In  In68  1  0.83059979  0.32043075  0.12772165  1
  In  In69  1  0.83422917  0.34052635  0.62171233  1
  In  In70  1  0.83451208  0.67303349  0.13084166  1
  In  In71  1  0.83743524  0.66371316  0.62413750  1
  In  In72  1  -0.00159848  -0.00520758  0.25472532  1
  In  In73  1  0.50306823  0.83770515  -0.00438181  1
  In  In74  1  -0.00265798  0.00294499  0.73853810  1
  In  In75  1  0.66560039  0.66184682  0.25168859  1
  In  In76  1  0.83550267  0.83845112  -0.00260963  1
  In  In77  1  0.66204097  0.00506843  0.75028991  1
  In  In78  1  0.49888270  0.83869645  0.49755190  1
  In  In79  1  0.50625278  0.49614477  0.49987165  1
  In  In80  1  0.33056366  -0.00464666  0.74214587  1
  In  In81  1  0.33777870  0.00032677  0.25232663  1
  In  In82  1  -0.01103390  0.34148837  0.25890617  1
  In  In83  1  0.83231833  0.49584789  -0.00453396  1
  In  In84  1  0.17079335  0.18070985  -0.00130811  1
  In  In85  1  0.16385227  0.83401556  0.00261256  1
  Cu  Cu86  1  0.66498963  0.00438785  0.49715379  1
  Cu  Cu87  1  0.33015876  0.66625558  0.50073438  1
  Cu  Cu88  1  -0.00322356  0.33440118  -0.00354572  1
  Cu  Cu89  1  0.66274321  0.33158053  -0.00202813  1
  Cu  Cu90  1  0.65786193  0.66562777  -0.00624284  1
  Cu  Cu91  1  0.83692431  0.83315012  0.74501114  1
  Cu  Cu92  1  0.50234812  0.17416541  0.74897327  1
  Cu  Cu93  1  0.34237144  0.33868997  0.00021776  1
  Cu  Cu94  1  0.17026451  0.17292795  0.25752041  1
  Cu  Cu95  1  0.00763178  0.65803205  -0.00199919  1
  Cu  Cu96  1  0.50859413  0.17602674  0.25012817  1
  Cu  Cu97  1  0.33037219  0.33710972  0.50143487  1
  Cu  Cu98  1  0.16467220  0.17170236  0.74557811  1
  Cu  Cu99  1  0.33873369  0.00599903  -0.00187978  1
  Cu  Cu100  1  0.00266403  0.33635464  0.50214426  1
  Cu  Cu101  1  0.16824582  0.49954777  0.74493092  1
  Cu  Cu102  1  0.49985487  0.49423875  0.75131428  1
  Cu  Cu103  1  0.00304407  0.66475624  0.50388527  1
  Cu  Cu104  1  0.49612544  0.49831924  0.25168675  1
  Cu  Cu105  1  -0.00264394  -0.00404231  0.49861455  1
  Cu  Cu106  1  0.83861067  0.82743648  0.25996553  1
  Cu  Cu107  1  0.83754066  0.50259530  0.74494655  1
  Cu  Cu108  1  0.67441167  0.66181507  0.50399606  1
  Cu  Cu109  1  0.33355297  0.00119367  0.49670373  1
  Cu  Cu110  1  0.16886114  0.50555589  0.25211349  1
  Cu  Cu111  1  -0.01214783  0.01111603  0.00653854  1
  Cu  Cu112  1  0.16945322  0.81760332  0.74644299  1
  Cu  Cu113  1  0.49395220  0.83356337  0.24732913  1
  Cu  Cu114  1  0.33001906  0.65362861  0.00006248  1
  Se  Se115  1  0.08015433  0.08594286  0.05993287  1
  Se  Se116  1  0.07780295  0.08181980  0.55366953  1
  Se  Se117  1  0.08632490  0.41448204  0.04566032  1
  Se  Se118  1  0.08671769  0.42020320  0.55332395  1
  Se  Se119  1  0.07804090  0.74159058  0.06251880  1
  Se  Se120  1  0.08671670  0.75190018  0.55371058  1
  Se  Se121  1  0.42104327  0.09190912  0.04738326  1
  Se  Se122  1  0.41865148  0.08458582  0.54708055  1
  Se  Se123  1  0.42137059  0.42046431  0.05881073  1
  Se  Se124  1  0.41229452  0.41474915  0.56309580  1
  Se  Se125  1  0.40955031  0.74405066  0.05405020  1
  Se  Se126  1  0.41919273  0.74011280  0.55853997  1
  Se  Se127  1  0.75100774  0.08782067  0.05965357  1
  Se  Se128  1  0.74976188  0.08763708  0.54900123  1
  Se  Se129  1  0.74206945  0.41246661  0.05996789  1
  Se  Se130  1  0.75057902  0.41926622  0.55017981  1
  Se  Se131  1  0.74249917  0.74048044  0.05345066  1
  Se  Se132  1  0.75581162  0.75004716  0.55395282  1
  Se  Se133  1  0.26183627  0.26058149  0.06473246  1
  Se  Se134  1  0.24833007  0.25005921  0.55412730  1
  Se  Se135  1  0.24662570  0.57721752  0.05835451  1
  Se  Se136  1  0.24752017  0.57988079  0.55096414  1
  Se  Se137  1  0.25928371  0.92798743  0.05877680  1
  Se  Se138  1  0.25511364  0.91320931  0.54950611  1
  Se  Se139  1  0.58406717  0.25187507  0.05920515  1
  Se  Se140  1  0.55936365  0.23907311  0.55207768  1
  Se  Se141  1  0.57792357  0.58010775  0.04659325  1
  Se  Se142  1  0.58941700  0.58783491  0.56433461  1
  Se  Se143  1  0.59341709  0.91756052  0.06201718  1
  Se  Se144  1  0.58923868  0.92352749  0.56146365  1
  Se  Se145  1  0.91271911  0.25287750  0.04963038  1
  Se  Se146  1  0.91715036  0.25326018  0.55344398  1
  Se  Se147  1  0.91898063  0.58768563  0.05869882  1
  Se  Se148  1  0.91633740  0.58006596  0.55329445  1
  Se  Se149  1  0.91699197  0.92524880  0.06789002  1
  Se  Se150  1  0.91178949  0.91591068  0.55292877  1
  Se  Se151  1  0.08653251  0.24858109  0.45169853  1
  Se  Se152  1  0.07764663  0.25688774  0.93321898  1
  Se  Se153  1  0.08421471  0.58034848  0.44910797  1
  Se  Se154  1  0.08628724  0.57298567  0.94462913  1
  Se  Se155  1  0.08494509  0.91263980  0.45021497  1
  Se  Se156  1  0.06586024  0.92747525  0.94691124  1
  Se  Se157  1  0.41436698  0.25576999  0.44688903  1
  Se  Se158  1  0.42112877  0.24943563  0.94896818  1
  Se  Se159  1  0.41419434  0.58847353  0.44123004  1
  Se  Se160  1  0.41768730  0.57969455  0.94378290  1
  Se  Se161  1  0.41136316  0.92399879  0.43134960  1
  Se  Se162  1  0.40739133  0.92262625  0.93383563  1
  Se  Se163  1  0.75397052  0.24351118  0.45040529  1
  Se  Se164  1  0.75128480  0.25546444  0.94347212  1
  Se  Se165  1  0.75173248  0.57535120  0.44960159  1
  Se  Se166  1  0.74494657  0.58973550  0.93586177  1
  Se  Se167  1  0.74675865  0.91280992  0.45051517  1
  Se  Se168  1  0.73451986  0.92508892  0.94636446  1
  Se  Se169  1  0.24674069  0.08673462  0.44864704  1
  Se  Se170  1  0.25327252  0.08047850  0.93767345  1
  Se  Se171  1  0.24688692  0.42219655  0.45063407  1
  Se  Se172  1  0.25171142  0.41283318  0.94611357  1
  Se  Se173  1  0.24765336  0.75002043  0.44737104  1
  Se  Se174  1  0.24823763  0.73734526  0.94325569  1
  Se  Se175  1  0.58077185  0.08587896  0.44409954  1
  Se  Se176  1  0.58787950  0.08151244  0.95632672  1
  Se  Se177  1  0.59550076  0.40097712  0.44698651  1
  Se  Se178  1  0.58126007  0.41923725  0.94791986  1
  Se  Se179  1  0.59224135  0.74119679  0.44385105  1
  Se  Se180  1  0.58300720  0.74483148  0.93094673  1
  Se  Se181  1  0.91351502  0.08362667  0.45041880  1
  Se  Se182  1  0.90823967  0.09154234  0.95009370  1
  Se  Se183  1  0.91848825  0.41053387  0.44183522  1
  Se  Se184  1  0.91605381  0.40768616  0.93159145  1
  Se  Se185  1  0.91530869  0.74841782  0.45285286  1
  Se  Se186  1  0.92529212  0.74074794  0.94128108  1
  Se  Se187  1  0.25237666  0.25887388  0.30687066  1
  Se  Se188  1  0.25194440  0.25083133  0.79874616  1
  Se  Se189  1  0.25307441  0.58469852  0.30863266  1
  Se  Se190  1  0.25292518  0.57940451  0.80260804  1
  Se  Se191  1  0.24225399  0.91403662  0.30846153  1
  Se  Se192  1  0.24503423  0.90158656  0.80770068  1
  Se  Se193  1  0.59161818  0.25393601  0.30754729  1
  Se  Se194  1  0.58533945  0.25086518  0.80857189  1
  Se  Se195  1  0.57911617  0.57164253  0.31604501  1
  Se  Se196  1  0.58642150  0.58084854  0.80093363  1
  Se  Se197  1  0.58441179  0.91316985  0.29543928  1
  Se  Se198  1  0.56919994  0.91369047  0.80801785  1
  Se  Se199  1  0.90634030  0.23823482  0.30964176  1
  Se  Se200  1  0.92710285  0.25570085  0.79673049  1
  Se  Se201  1  0.90970241  0.57933698  0.30327094  1
  Se  Se202  1  0.92219343  0.58510726  0.79886873  1
  Se  Se203  1  0.91400018  0.90994301  0.32162640  1
  Se  Se204  1  0.90911783  0.91649081  0.80968353  1
  Se  Se205  1  0.08688807  0.09189703  0.31284674  1
  Se  Se206  1  0.09002980  0.08615321  0.80604494  1
  Se  Se207  1  0.08914730  0.42511761  0.31397096  1
  Se  Se208  1  0.08390127  0.41627933  0.79847634  1
  Se  Se209  1  0.07793914  0.73985918  0.30724510  1
  Se  Se210  1  0.07940950  0.74279511  0.80014982  1
  Se  Se211  1  0.42367347  0.09645037  0.30982700  1
  Se  Se212  1  0.41935699  0.08837937  0.80475024  1
  Se  Se213  1  0.41584416  0.41191692  0.30536702  1
  Se  Se214  1  0.41613839  0.41215766  0.80626609  1
  Se  Se215  1  0.41303724  0.74731407  0.29740568  1
  Se  Se216  1  0.41819169  0.74884696  0.79398659  1
  Se  Se217  1  0.73761648  0.06935476  0.30748264  1
  Se  Se218  1  0.75274697  0.09453676  0.80937887  1
  Se  Se219  1  0.75424618  0.41074390  0.29884098  1
  Se  Se220  1  0.75120537  0.42151794  0.79861727  1
  Se  Se221  1  0.75218682  0.74783797  0.31713058  1
  Se  Se222  1  0.75025362  0.75214603  0.79765967  1
  Se  Se223  1  0.24204168  0.09121494  0.19218494  1
  Se  Se224  1  0.24323557  0.08975274  0.68490386  1
  Se  Se225  1  0.24827177  0.41662151  0.19951238  1
  Se  Se226  1  0.25258954  0.41445564  0.69441019  1
  Se  Se227  1  0.24775198  0.75421200  0.20403789  1
  Se  Se228  1  0.25525307  0.73987234  0.69211925  1
  Se  Se229  1  0.58692919  0.08667092  0.19777284  1
  Se  Se230  1  0.58283568  0.09844169  0.68697671  1
  Se  Se231  1  0.58309464  0.41826438  0.19942922  1
  Se  Se232  1  0.58644512  0.41443102  0.69791094  1
  Se  Se233  1  0.57489421  0.75041994  0.18672769  1
  Se  Se234  1  0.58672257  0.75684155  0.70188156  1
  Se  Se235  1  0.91397788  0.09434758  0.19906050  1
  Se  Se236  1  0.90253572  0.10014580  0.69384357  1
  Se  Se237  1  0.91187445  0.42497491  0.18552878  1
  Se  Se238  1  0.92007670  0.41682858  0.69365957  1
  Se  Se239  1  0.91819848  0.74330667  0.20532604  1
  Se  Se240  1  0.92080518  0.74873817  0.69423590  1
  Se  Se241  1  0.08608822  0.24984213  0.19722109  1
  Se  Se242  1  0.08129151  0.25394507  0.69308856  1
  Se  Se243  1  0.08122618  0.58163157  0.19642547  1
  Se  Se244  1  0.08338077  0.58350543  0.69328902  1
  Se  Se245  1  0.09211839  0.90039010  0.19987857  1
  Se  Se246  1  0.09359515  0.90731316  0.68956260  1
  Se  Se247  1  0.41680462  0.25326545  0.19974756  1
  Se  Se248  1  0.41161436  0.25218886  0.69771549  1
  Se  Se249  1  0.41305568  0.58300811  0.19934019  1
  Se  Se250  1  0.41698693  0.57954122  0.69924971  1
  Se  Se251  1  0.42415170  0.91736321  0.18207373  1
  Se  Se252  1  0.42719980  0.90719073  0.68805927  1
  Se  Se253  1  0.74649624  0.25788628  0.20322820  1
  Se  Se254  1  0.74324112  0.26041493  0.68748289  1
  Se  Se255  1  0.75391739  0.57379929  0.18967290  1
  Se  Se256  1  0.75072157  0.58699465  0.69485773  1
  Se  Se257  1  0.75513772  0.91087755  0.20621658  1
  Se  Se258  1  0.75741821  0.91834882  0.68878524  1
