# generated using pymatgen
data_In86Cu29Se144
_symmetry_space_group_name_H-M   'P 1'
_cell_length_a   17.58450074
_cell_length_b   17.57954497
_cell_length_c   23.44562775
_cell_angle_alpha   89.98490575
_cell_angle_beta   89.99000753
_cell_angle_gamma   90.00228827
_symmetry_Int_Tables_number   1
_chemical_formula_structural   In86Cu29Se144
_chemical_formula_sum   'In86 Cu29 Se144'
_cell_volume   7247.68842921
_cell_formula_units_Z   1
loop_
 _symmetry_equiv_pos_site_id
 _symmetry_equiv_pos_as_xyz
  1  'x, y, z'
loop_
 _atom_site_type_symbol
 _atom_site_label
 _atom_site_symmetry_multiplicity
 _atom_site_fract_x
 _atom_site_fract_y
 _atom_site_fract_z
 _atom_site_occupancy
  In  In0  1  -0.00095889  0.16337362  0.12367099  1
  In  In1  1  0.00055159  0.15660550  0.62631610  1
  In  In2  1  0.01138294  0.49548730  0.14332917  1
  In  In3  1  -0.00226685  0.49022762  0.60795519  1
  In  In4  1  0.01407441  0.83097336  0.13654200  1
  In  In5  1  0.00784499  0.84780313  0.62538666  1
  In  In6  1  0.34361117  0.17587047  0.11881818  1
  In  In7  1  0.34450787  0.17903957  0.61986000  1
  In  In8  1  0.33205334  0.47652395  0.13410321  1
  In  In9  1  0.32837742  0.48973533  0.61486854  1
  In  In10  1  0.33985815  0.83902863  0.11944431  1
  In  In11  1  0.33636719  0.82663105  0.62295860  1
  In  In12  1  0.66663125  0.16917398  0.12315364  1
  In  In13  1  0.66281504  0.18613073  0.63075157  1
  In  In14  1  0.66055816  0.50856989  0.13268100  1
  In  In15  1  0.65663827  0.49067669  0.61448616  1
  In  In16  1  0.65903590  0.84131437  0.13291163  1
  In  In17  1  0.65805180  0.84483528  0.62301903  1
  In  In18  1  0.16877780  0.01115669  0.37142465  1
  In  In19  1  0.15626024  0.01159837  0.88787335  1
  In  In20  1  0.16707359  0.33432339  0.37197468  1
  In  In21  1  0.16648527  0.31061478  0.86886701  1
  In  In22  1  0.14986352  0.65676543  0.36470335  1
  In  In23  1  0.17865521  0.66309591  0.88151323  1
  In  In24  1  0.50209637  -0.00323840  0.37797407  1
  In  In25  1  0.49505395  0.01279286  0.89084861  1
  In  In26  1  0.50124083  0.32941176  0.37162429  1
  In  In27  1  0.50256359  0.32969147  0.87697404  1
  In  In28  1  0.50678474  0.65947831  0.37750943  1
  In  In29  1  0.49495872  0.66152996  0.88384962  1
  In  In30  1  0.83317569  0.00312364  0.36486274  1
  In  In31  1  0.84292770  0.00102488  0.87932235  1
  In  In32  1  0.84150237  0.34202876  0.36993077  1
  In  In33  1  0.80089536  0.32509889  0.86309267  1
  In  In34  1  0.82429884  0.65839316  0.36773576  1
  In  In35  1  0.83905601  0.66508796  0.87733954  1
  In  In36  1  0.00711243  0.17692024  0.36626063  1
  In  In37  1  0.00981340  0.15454553  0.88455238  1
  In  In38  1  0.00094366  0.49319727  0.37484794  1
  In  In39  1  -0.00478534  0.50060486  0.87405982  1
  In  In40  1  0.00562550  0.83540872  0.35803307  1
  In  In41  1  -0.00622188  0.85109346  0.88309045  1
  In  In42  1  0.32275348  0.17657474  0.37905211  1
  In  In43  1  0.33080422  0.17715180  0.87652913  1
  In  In44  1  0.34776679  0.48842232  0.37975508  1
  In  In45  1  0.34622223  0.49429031  0.87403433  1
  In  In46  1  0.33440715  0.84345152  0.37550168  1
  In  In47  1  0.33227081  0.83359720  0.88847740  1
  In  In48  1  0.65899267  0.16063705  0.36799352  1
  In  In49  1  0.66027968  0.17411710  0.88967114  1
  In  In50  1  0.66699898  0.49661017  0.37396438  1
  In  In51  1  0.66465068  0.46956777  0.86946879  1
  In  In52  1  0.66133181  0.82784594  0.36504803  1
  In  In53  1  0.65959423  0.83082226  0.88171535  1
  In  In54  1  0.15949175  -0.00603221  0.12187554  1
  In  In55  1  0.15441615  0.00495286  0.62732843  1
  In  In56  1  0.17386578  0.32781996  0.13388423  1
  In  In57  1  0.17286118  0.33254654  0.61712352  1
  In  In58  1  0.15623938  0.66966051  0.13600099  1
  In  In59  1  0.17465055  0.66298398  0.61837582  1
  In  In60  1  0.52144103  0.01263605  0.10838532  1
  In  In61  1  0.50330406  0.00419016  0.61992730  1
  In  In62  1  0.49968711  0.33627362  0.12656848  1
  In  In63  1  0.49780440  0.33037388  0.62322579  1
  In  In64  1  0.50999065  0.67439724  0.12283923  1
  In  In65  1  0.50250140  0.66540552  0.61517347  1
  In  In66  1  0.81775831  0.01620460  0.12773521  1
  In  In67  1  0.83922252  0.02002491  0.63005211  1
  In  In68  1  0.84179885  0.32458057  0.12849711  1
  In  In69  1  0.82451019  0.33516472  0.62558696  1
  In  In70  1  0.83961759  0.66043219  0.13464308  1
  In  In71  1  0.84307432  0.66116518  0.62024983  1
  In  In72  1  0.16954162  0.82994703  0.49552952  1
  In  In73  1  0.32957858  0.01327613  0.76153798  1
  In  In74  1  0.82879209  0.84076768  0.01151312  1
  In  In75  1  0.66582236  0.66187712  0.74663792  1
  In  In76  1  0.33572077  0.66396788  0.24718625  1
  In  In77  1  0.00153292  0.66540100  0.75442383  1
  In  In78  1  0.82571756  0.82680388  0.49443302  1
  In  In79  1  -0.00367496  0.32593943  0.74479050  1
  In  In80  1  0.66810665  0.00886525  0.75458154  1
  In  In81  1  0.83008346  0.49498236  -0.00405105  1
  In  In82  1  0.82930956  0.17148376  0.50610515  1
  In  In83  1  0.17189552  0.49641526  0.01176040  1
  In  In84  1  0.33313295  0.66163191  0.74155699  1
  In  In85  1  0.33168590  0.00197339  0.25050129  1
  Cu  Cu86  1  0.50576237  0.48552939  0.74745848  1
  Cu  Cu87  1  0.65962645  0.33366234  0.00317288  1
  Cu  Cu88  1  0.33847868  0.32990978  0.49715142  1
  Cu  Cu89  1  0.00441590  0.00070209  0.00706003  1
  Cu  Cu90  1  0.33496452  0.33438222  0.00059465  1
  Cu  Cu91  1  -0.00374204  0.32314365  0.00001182  1
  Cu  Cu92  1  0.65448579  0.00097248  0.49688612  1
  Cu  Cu93  1  0.49822073  0.17141718  0.24384169  1
  Cu  Cu94  1  0.83742193  0.83606462  0.24508981  1
  Cu  Cu95  1  0.33364723  0.66634542  0.00627941  1
  Cu  Cu96  1  0.16453027  0.49174504  0.74022851  1
  Cu  Cu97  1  0.83835391  0.84022910  0.75495669  1
  Cu  Cu98  1  -0.00299743  0.00550724  0.49860323  1
  Cu  Cu99  1  0.50473835  0.49533475  0.25528881  1
  Cu  Cu100  1  0.50327720  0.83957190  0.24759539  1
  Cu  Cu101  1  0.33671321  0.66271330  0.49717234  1
  Cu  Cu102  1  0.33614288  0.00471495  0.49826374  1
  Cu  Cu103  1  -0.00420317  0.66122225  0.49143004  1
  Cu  Cu104  1  0.66324905  0.66253559  0.00307286  1
  Cu  Cu105  1  0.16336911  0.16742050  0.24840983  1
  Cu  Cu106  1  0.66197807  0.33333867  0.49682784  1
  Cu  Cu107  1  0.82743410  0.16877058  0.24707400  1
  Cu  Cu108  1  0.15705505  0.84355047  0.75556387  1
  Cu  Cu109  1  0.49148854  0.83991195  0.75450097  1
  Cu  Cu110  1  0.00916368  0.33231704  0.49068546  1
  Cu  Cu111  1  0.66399242  0.66377388  0.49028233  1
  Cu  Cu112  1  0.33476016  0.00147024  0.00223572  1
  Cu  Cu113  1  0.83110638  0.49585753  0.25287368  1
  Cu  Cu114  1  0.00177578  0.66654142  0.01231858  1
  Se  Se115  1  0.08994414  0.08902223  0.05402750  1
  Se  Se116  1  0.08329279  0.08554305  0.55074270  1
  Se  Se117  1  0.07178262  0.40703888  0.06133831  1
  Se  Se118  1  0.09273164  0.41590171  0.54612262  1
  Se  Se119  1  0.08718349  0.75172017  0.05911441  1
  Se  Se120  1  0.07113596  0.74317601  0.55605302  1
  Se  Se121  1  0.41989556  0.08791030  0.05056575  1
  Se  Se122  1  0.41976378  0.08600327  0.55261363  1
  Se  Se123  1  0.41573917  0.41850165  0.05486841  1
  Se  Se124  1  0.42166615  0.41489053  0.55044826  1
  Se  Se125  1  0.42083619  0.75054540  0.05473308  1
  Se  Se126  1  0.41596052  0.75044316  0.55070385  1
  Se  Se127  1  0.73993994  0.08280839  0.05035018  1
  Se  Se128  1  0.73527533  0.07622555  0.56047628  1
  Se  Se129  1  0.74330561  0.41318230  0.06319096  1
  Se  Se130  1  0.75031132  0.41294384  0.54951252  1
  Se  Se131  1  0.74552032  0.73760799  0.06423758  1
  Se  Se132  1  0.73642244  0.74065871  0.56049740  1
  Se  Se133  1  0.24882578  0.25478413  0.05541762  1
  Se  Se134  1  0.25217735  0.24648012  0.54849064  1
  Se  Se135  1  0.25832258  0.58937552  0.07137074  1
  Se  Se136  1  0.24986098  0.58052230  0.54810477  1
  Se  Se137  1  0.25045464  0.91838377  0.05407816  1
  Se  Se138  1  0.25403383  0.92370912  0.55919157  1
  Se  Se139  1  0.57661346  0.25033161  0.05626757  1
  Se  Se140  1  0.58200195  0.24838346  0.55176469  1
  Se  Se141  1  0.58009121  0.57816959  0.05514757  1
  Se  Se142  1  0.58141454  0.58124772  0.54700581  1
  Se  Se143  1  0.58183770  0.90171735  0.05215900  1
  Se  Se144  1  0.57443043  0.91285733  0.54912994  1
  Se  Se145  1  0.91130216  0.24204278  0.05294208  1
  Se  Se146  1  0.92915953  0.25993537  0.55883269  1
  Se  Se147  1  0.92397563  0.57566658  0.06260863  1
  Se  Se148  1  0.91244194  0.57937005  0.54565499  1
  Se  Se149  1  0.92373410  0.92404189  0.07041558  1
  Se  Se150  1  0.91345826  0.92389876  0.55531053  1
  Se  Se151  1  0.09031597  0.24350853  0.44262328  1
  Se  Se152  1  0.08896065  0.24717712  0.94969288  1
  Se  Se153  1  0.08466139  0.57863586  0.44438794  1
  Se  Se154  1  0.07713580  0.58528470  0.94758966  1
  Se  Se155  1  0.07509221  0.92128810  0.43991838  1
  Se  Se156  1  0.08583288  0.91382870  0.95444155  1
  Se  Se157  1  0.42108352  0.24599038  0.44331478  1
  Se  Se158  1  0.41861200  0.25031397  0.94766840  1
  Se  Se159  1  0.42314654  0.57976612  0.44669051  1
  Se  Se160  1  0.41025404  0.57934924  0.95053981  1
  Se  Se161  1  0.41678082  0.91642625  0.44785591  1
  Se  Se162  1  0.42018764  0.91477902  0.95225292  1
  Se  Se163  1  0.74490519  0.25375538  0.43714863  1
  Se  Se164  1  0.75305643  0.25663494  0.95342520  1
  Se  Se165  1  0.75176324  0.57980794  0.44386289  1
  Se  Se166  1  0.73782246  0.58601518  0.93593127  1
  Se  Se167  1  0.74187485  0.92589805  0.43837729  1
  Se  Se168  1  0.74304661  0.92357560  0.94408285  1
  Se  Se169  1  0.24775309  0.08319858  0.44641776  1
  Se  Se170  1  0.25666599  0.08663844  0.94608868  1
  Se  Se171  1  0.25312735  0.41179430  0.44341129  1
  Se  Se172  1  0.25032295  0.41150911  0.93935531  1
  Se  Se173  1  0.25518002  0.73826710  0.43399635  1
  Se  Se174  1  0.24755110  0.74801346  0.95405901  1
  Se  Se175  1  0.57751065  0.09018079  0.44452048  1
  Se  Se176  1  0.59018942  0.08057851  0.95605954  1
  Se  Se177  1  0.57981227  0.41644800  0.44176536  1
  Se  Se178  1  0.57860895  0.41913359  0.94922481  1
  Se  Se179  1  0.58355971  0.75464234  0.44205490  1
  Se  Se180  1  0.58005797  0.74605602  0.94876511  1
  Se  Se181  1  0.91628550  0.08509624  0.43931531  1
  Se  Se182  1  0.91849775  0.08088427  0.95340278  1
  Se  Se183  1  0.91616654  0.41537382  0.44779293  1
  Se  Se184  1  0.91937300  0.40304779  0.93699477  1
  Se  Se185  1  0.92390365  0.74914492  0.43310874  1
  Se  Se186  1  0.92127395  0.74536665  0.95044573  1
  Se  Se187  1  0.24916314  0.24985388  0.30081934  1
  Se  Se188  1  0.25767765  0.24962677  0.79764507  1
  Se  Se189  1  0.25522034  0.57456293  0.31254949  1
  Se  Se190  1  0.24264725  0.57230055  0.80393433  1
  Se  Se191  1  0.23824235  0.90804512  0.30495594  1
  Se  Se192  1  0.24482072  0.91200288  0.81626040  1
  Se  Se193  1  0.58434671  0.25077169  0.29959600  1
  Se  Se194  1  0.60656139  0.26632487  0.81347186  1
  Se  Se195  1  0.58700200  0.58402345  0.30392282  1
  Se  Se196  1  0.57431833  0.57595762  0.80889266  1
  Se  Se197  1  0.58403709  0.92425197  0.30295246  1
  Se  Se198  1  0.57429983  0.91678836  0.81288120  1
  Se  Se199  1  0.91259473  0.24946222  0.30142851  1
  Se  Se200  1  0.91815514  0.24762549  0.81942944  1
  Se  Se201  1  0.91687003  0.57845369  0.30600746  1
  Se  Se202  1  0.90160326  0.57235512  0.80186932  1
  Se  Se203  1  0.91842220  0.92259847  0.29761947  1
  Se  Se204  1  0.92226447  0.92416231  0.80444512  1
  Se  Se205  1  0.08103577  0.08196841  0.30029875  1
  Se  Se206  1  0.09353954  0.08908934  0.80800822  1
  Se  Se207  1  0.06954453  0.40097984  0.30568999  1
  Se  Se208  1  0.08763634  0.42012396  0.80806667  1
  Se  Se209  1  0.08951240  0.75075519  0.29524566  1
  Se  Se210  1  0.08802043  0.75528139  0.81747554  1
  Se  Se211  1  0.42067070  0.09311766  0.30962328  1
  Se  Se212  1  0.43305558  0.09758968  0.81079405  1
  Se  Se213  1  0.41631691  0.41063108  0.30091722  1
  Se  Se214  1  0.41864362  0.40927874  0.80331356  1
  Se  Se215  1  0.42369203  0.75866534  0.30811683  1
  Se  Se216  1  0.41509533  0.75201944  0.80996777  1
  Se  Se217  1  0.74520549  0.08229880  0.29910718  1
  Se  Se218  1  0.75498918  0.09250252  0.81823690  1
  Se  Se219  1  0.74551259  0.41171535  0.30331864  1
  Se  Se220  1  0.75687638  0.42689626  0.79177430  1
  Se  Se221  1  0.75430131  0.75287559  0.30049058  1
  Se  Se222  1  0.75597253  0.75731098  0.80898769  1
  Se  Se223  1  0.24777971  0.09214970  0.18663371  1
  Se  Se224  1  0.25083735  0.08908043  0.68600461  1
  Se  Se225  1  0.22518713  0.43389917  0.20031644  1
  Se  Se226  1  0.25297290  0.41256802  0.69050363  1
  Se  Se227  1  0.25136861  0.76303599  0.19235833  1
  Se  Se228  1  0.23448346  0.76187697  0.69431138  1
  Se  Se229  1  0.58191121  0.08534301  0.19334187  1
  Se  Se230  1  0.57439680  0.09345344  0.69427834  1
  Se  Se231  1  0.58577096  0.41388867  0.19721797  1
  Se  Se232  1  0.59056162  0.40813275  0.69162661  1
  Se  Se233  1  0.58553276  0.74769734  0.20078842  1
  Se  Se234  1  0.57122733  0.75960174  0.69370343  1
  Se  Se235  1  0.91312335  0.08553730  0.19485764  1
  Se  Se236  1  0.92100324  0.08811854  0.70339025  1
  Se  Se237  1  0.91462337  0.41324588  0.19910415  1
  Se  Se238  1  0.91397863  0.42728056  0.68863314  1
  Se  Se239  1  0.92215252  0.74793136  0.19837234  1
  Se  Se240  1  0.91376844  0.75971503  0.69136397  1
  Se  Se241  1  0.07799906  0.24871506  0.19441700  1
  Se  Se242  1  0.09429656  0.24270141  0.68905477  1
  Se  Se243  1  0.08569095  0.58650415  0.20820354  1
  Se  Se244  1  0.08556929  0.57794219  0.68575014  1
  Se  Se245  1  0.08319254  0.92842305  0.20119946  1
  Se  Se246  1  0.07638650  0.92688732  0.70215294  1
  Se  Se247  1  0.41158860  0.25653512  0.19626884  1
  Se  Se248  1  0.41463174  0.25569301  0.69622707  1
  Se  Se249  1  0.42813489  0.57392308  0.18910208  1
  Se  Se250  1  0.42816237  0.57127480  0.68748291  1
  Se  Se251  1  0.42789102  0.92293993  0.18762253  1
  Se  Se252  1  0.41419673  0.91847743  0.69306356  1
  Se  Se253  1  0.74534513  0.25354560  0.19419688  1
  Se  Se254  1  0.77997189  0.22454631  0.68946632  1
  Se  Se255  1  0.75007066  0.58386673  0.20099567  1
  Se  Se256  1  0.75237962  0.57681258  0.68310130  1
  Se  Se257  1  0.75006823  0.91974496  0.19653477  1
  Se  Se258  1  0.75660906  0.91392371  0.69152772  1
