# generated using pymatgen
data_In86Cu29Se144
_symmetry_space_group_name_H-M   'P 1'
_cell_length_a   17.57894915
_cell_length_b   17.57890734
_cell_length_c   23.43155672
_cell_angle_alpha   89.98918204
_cell_angle_beta   89.97708165
_cell_angle_gamma   89.98555637
_symmetry_Int_Tables_number   1
_chemical_formula_structural   In86Cu29Se144
_chemical_formula_sum   'In86 Cu29 Se144'
_cell_volume   7240.78868406
_cell_formula_units_Z   1
loop_
 _symmetry_equiv_pos_site_id
 _symmetry_equiv_pos_as_xyz
  1  'x, y, z'
loop_
 _atom_site_type_symbol
 _atom_site_label
 _atom_site_symmetry_multiplicity
 _atom_site_fract_x
 _atom_site_fract_y
 _atom_site_fract_z
 _atom_site_occupancy
  In  In0  1  0.00249753  0.16790499  0.12542744  1
  In  In1  1  -0.00730674  0.17999056  0.63088045  1
  In  In2  1  -0.01303374  0.51230227  0.12649923  1
  In  In3  1  0.00170285  0.49863852  0.62940912  1
  In  In4  1  -0.00368224  0.82683224  0.11958522  1
  In  In5  1  -0.01543334  0.83564678  0.62656868  1
  In  In6  1  0.32436166  0.17456981  0.12337090  1
  In  In7  1  0.31497783  0.16078229  0.63430916  1
  In  In8  1  0.34896071  0.50235442  0.11856262  1
  In  In9  1  0.33431704  0.51816313  0.62887281  1
  In  In10  1  0.32613494  0.83108419  0.12287573  1
  In  In11  1  0.33880116  0.82026942  0.63566725  1
  In  In12  1  0.68285753  0.16057990  0.12521046  1
  In  In13  1  0.68282024  0.16883152  0.62757450  1
  In  In14  1  0.66511718  0.49480867  0.11987710  1
  In  In15  1  0.66289022  0.49613531  0.64613778  1
  In  In16  1  0.66542409  0.83391813  0.11833506  1
  In  In17  1  0.66200332  0.83191594  0.62169920  1
  In  In18  1  0.15924700  0.01046055  0.37213363  1
  In  In19  1  0.16519077  -0.01002092  0.88884225  1
  In  In20  1  0.16725646  0.34579233  0.37436010  1
  In  In21  1  0.14874318  0.33234036  0.87161545  1
  In  In22  1  0.16208022  0.66274262  0.36559148  1
  In  In23  1  0.16855194  0.67099897  0.87197190  1
  In  In24  1  0.49152040  -0.00633296  0.37477041  1
  In  In25  1  0.48864821  -0.00530743  0.87650762  1
  In  In26  1  0.51340328  0.32683842  0.36877313  1
  In  In27  1  0.51827845  0.33624821  0.87150960  1
  In  In28  1  0.49949758  0.68310345  0.37150736  1
  In  In29  1  0.50117556  0.66240723  0.87748339  1
  In  In30  1  0.84033033  -0.00600881  0.37626784  1
  In  In31  1  0.84584585  -0.00147937  0.88771901  1
  In  In32  1  0.82796857  0.32559327  0.36731121  1
  In  In33  1  0.84053236  0.33141399  0.87745096  1
  In  In34  1  0.84215534  0.66784438  0.37172555  1
  In  In35  1  0.83773611  0.67026275  0.87849478  1
  In  In36  1  -0.00753822  0.15679859  0.36407268  1
  In  In37  1  -0.00987146  0.16760879  0.88882784  1
  In  In38  1  0.00852995  0.50891940  0.36447219  1
  In  In39  1  -0.00346543  0.49438053  0.87287172  1
  In  In40  1  -0.01044719  0.82491226  0.36433357  1
  In  In41  1  0.01473159  0.82328768  0.90114121  1
  In  In42  1  0.33324412  0.15834687  0.37384079  1
  In  In43  1  0.33135141  0.15017312  0.86951160  1
  In  In44  1  0.31650030  0.50053453  0.37591181  1
  In  In45  1  0.33339911  0.51802692  0.87237333  1
  In  In46  1  0.34619068  0.83109535  0.37334107  1
  In  In47  1  0.33369433  0.82912556  0.87941828  1
  In  In48  1  0.67060273  0.18543376  0.37144173  1
  In  In49  1  0.68255567  0.17948711  0.87115110  1
  In  In50  1  0.67995498  0.49220921  0.37190902  1
  In  In51  1  0.66911094  0.50333609  0.87459931  1
  In  In52  1  0.66541209  0.83478943  0.38096718  1
  In  In53  1  0.67708337  0.81257594  0.88316544  1
  In  In54  1  0.13172392  -0.02497918  0.09589278  1
  In  In55  1  0.16793596  0.01589927  0.63604716  1
  In  In56  1  0.16404454  0.31816753  0.11925493  1
  In  In57  1  0.14312442  0.33531588  0.62688029  1
  In  In58  1  0.15296057  0.68039107  0.12919467  1
  In  In59  1  0.17202402  0.66129049  0.63181424  1
  In  In60  1  0.50826161  -0.00697496  0.12460621  1
  In  In61  1  0.50111130  -0.01861344  0.62853301  1
  In  In62  1  0.49918428  0.34614608  0.12479318  1
  In  In63  1  0.51524780  0.34242365  0.63191331  1
  In  In64  1  0.49816819  0.66576499  0.12240269  1
  In  In65  1  0.49139935  0.67212281  0.63542715  1
  In  In66  1  0.86233222  0.01129762  0.09354017  1
  In  In67  1  0.83452910  -0.00197008  0.61830832  1
  In  In68  1  0.83642010  0.33574582  0.12305540  1
  In  In69  1  0.83533394  0.32773443  0.63573182  1
  In  In70  1  0.85231284  0.67901185  0.10647563  1
  In  In71  1  0.82510177  0.67135832  0.63367698  1
  In  In72  1  0.15513379  0.17038715  0.50472376  1
  In  In73  1  0.33523465  0.33483875  0.74955371  1
  In  In74  1  0.16611612  0.50242762  -0.00706099  1
  In  In75  1  0.33334299  0.33634293  0.25022646  1
  In  In76  1  0.00021624  0.00053508  0.75661072  1
  In  In77  1  0.66902528  -0.00070003  0.76131956  1
  In  In78  1  0.67077714  0.66282227  0.23990497  1
  In  In79  1  0.67221456  -0.00239607  0.24568700  1
  In  In80  1  0.16641500  0.83555714  0.50317227  1
  In  In81  1  0.32995502  0.00179528  0.25054708  1
  In  In82  1  0.49893623  0.16142888  0.49290834  1
  In  In83  1  0.49926711  0.50990637  0.50807665  1
  In  In84  1  0.83485368  0.50152205  0.50122516  1
  In  In85  1  0.50228436  0.16813781  -0.00269311  1
  Cu  Cu86  1  0.33681292  0.33485546  -0.00337955  1
  Cu  Cu87  1  0.50270334  0.16207308  0.75322354  1
  Cu  Cu88  1  0.00190555  0.66892718  0.49173943  1
  Cu  Cu89  1  0.49691446  0.82482730  0.75432617  1
  Cu  Cu90  1  0.33342836  0.67129786  0.50653062  1
  Cu  Cu91  1  -0.00999808  -0.00225836  0.49603956  1
  Cu  Cu92  1  0.83753663  0.49865011  0.75732446  1
  Cu  Cu93  1  0.83456179  0.83572353  0.23993592  1
  Cu  Cu94  1  0.67203404  -0.00056511  0.50166826  1
  Cu  Cu95  1  0.32967511  0.34137375  0.49930799  1
  Cu  Cu96  1  0.66339373  -0.00141235  -0.00041641  1
  Cu  Cu97  1  0.15987003  0.16111538  0.24319950  1
  Cu  Cu98  1  -0.00261493  0.33401760  0.00046070  1
  Cu  Cu99  1  -0.00729286  0.33744368  0.50138460  1
  Cu  Cu100  1  0.33753131  -0.00680283  0.50602258  1
  Cu  Cu101  1  0.50278842  0.50490926  0.24518552  1
  Cu  Cu102  1  0.16112461  0.50274868  0.75236508  1
  Cu  Cu103  1  0.83937389  0.16676882  0.24139875  1
  Cu  Cu104  1  0.67378480  0.33617829  -0.00270565  1
  Cu  Cu105  1  0.83589362  0.49625937  0.24568769  1
  Cu  Cu106  1  0.66025676  0.65608547  -0.00324947  1
  Cu  Cu107  1  0.67342871  0.33483324  0.50119747  1
  Cu  Cu108  1  0.83521796  0.82996109  0.75582029  1
  Cu  Cu109  1  0.16597718  0.83475598  0.76070982  1
  Cu  Cu110  1  0.16124785  0.83501906  0.24202728  1
  Cu  Cu111  1  0.33271019  0.67041303  0.00020343  1
  Cu  Cu112  1  0.16647153  0.50015788  0.24575473  1
  Cu  Cu113  1  0.66632259  0.67595422  0.50619661  1
  Cu  Cu114  1  0.33327012  -0.00333380  -0.00217870  1
  Se  Se115  1  0.10639338  0.10936473  0.05891725  1
  Se  Se116  1  0.06796558  0.07355859  0.56133816  1
  Se  Se117  1  0.08032031  0.41532279  0.05894712  1
  Se  Se118  1  0.07755760  0.42140967  0.55166559  1
  Se  Se119  1  0.08475418  0.75196987  0.04945175  1
  Se  Se120  1  0.07572383  0.74476164  0.56079567  1
  Se  Se121  1  0.41213005  0.07837264  0.05969773  1
  Se  Se122  1  0.41198965  0.08134187  0.56403282  1
  Se  Se123  1  0.42241686  0.41690062  0.04645562  1
  Se  Se124  1  0.41181078  0.41085707  0.56365633  1
  Se  Se125  1  0.41574671  0.75199379  0.05584127  1
  Se  Se126  1  0.41999674  0.75199357  0.55779474  1
  Se  Se127  1  0.74991103  0.08479104  0.04623957  1
  Se  Se128  1  0.75290730  0.08627482  0.55261884  1
  Se  Se129  1  0.75558302  0.41955953  0.05232021  1
  Se  Se130  1  0.74327373  0.41832634  0.56473150  1
  Se  Se131  1  0.73892350  0.74113519  0.05260209  1
  Se  Se132  1  0.75620964  0.75432969  0.55709942  1
  Se  Se133  1  0.25221292  0.25038639  0.04562621  1
  Se  Se134  1  0.25307029  0.25887337  0.56036212  1
  Se  Se135  1  0.25160513  0.58867714  0.06006317  1
  Se  Se136  1  0.24798312  0.58555918  0.55434307  1
  Se  Se137  1  0.24942953  0.91152474  0.04904740  1
  Se  Se138  1  0.25242994  0.92270235  0.56823826  1
  Se  Se139  1  0.59150224  0.25625727  0.05947879  1
  Se  Se140  1  0.58664148  0.25292739  0.55564655  1
  Se  Se141  1  0.57755397  0.57788125  0.05528249  1
  Se  Se142  1  0.59578928  0.59068243  0.56807878  1
  Se  Se143  1  0.57905281  0.91399708  0.04884599  1
  Se  Se144  1  0.58374938  0.91748145  0.55099308  1
  Se  Se145  1  0.91723470  0.24888969  0.05567280  1
  Se  Se146  1  0.91213134  0.25492936  0.55669643  1
  Se  Se147  1  0.91643341  0.57662219  0.04377951  1
  Se  Se148  1  0.92247114  0.59427443  0.55901561  1
  Se  Se149  1  0.89259709  0.88119253  0.04773644  1
  Se  Se150  1  0.91088460  0.91035826  0.54893475  1
  Se  Se151  1  0.07271946  0.25740233  0.43769384  1
  Se  Se152  1  0.08452698  0.25166935  0.95007239  1
  Se  Se153  1  0.08536401  0.58440119  0.44121994  1
  Se  Se154  1  0.07283779  0.59314216  0.93980410  1
  Se  Se155  1  0.07617934  0.92080768  0.43856567  1
  Se  Se156  1  0.07416699  0.92921593  0.96320329  1
  Se  Se157  1  0.40728669  0.26190556  0.43871410  1
  Se  Se158  1  0.41370334  0.25394984  0.93269392  1
  Se  Se159  1  0.40948728  0.59052515  0.44112899  1
  Se  Se160  1  0.41516041  0.58312301  0.94982993  1
  Se  Se161  1  0.41821403  0.91276057  0.44928781  1
  Se  Se162  1  0.41884202  0.91090539  0.95016893  1
  Se  Se163  1  0.75517163  0.25157934  0.44751743  1
  Se  Se164  1  0.75790969  0.24851020  0.94995479  1
  Se  Se165  1  0.74143577  0.59438132  0.44258637  1
  Se  Se166  1  0.75355572  0.58277103  0.94487389  1
  Se  Se167  1  0.75327778  0.91589102  0.44515628  1
  Se  Se168  1  0.74458018  0.91817923  0.94235966  1
  Se  Se169  1  0.25404224  0.07541525  0.44914891  1
  Se  Se170  1  0.25230421  0.08456000  0.94800241  1
  Se  Se171  1  0.24140323  0.42279966  0.45116862  1
  Se  Se172  1  0.25589826  0.41064168  0.93291775  1
  Se  Se173  1  0.25370198  0.74609678  0.44088219  1
  Se  Se174  1  0.24508619  0.74926351  0.94726585  1
  Se  Se175  1  0.59538750  0.07544111  0.43445845  1
  Se  Se176  1  0.59133592  0.08107489  0.93392774  1
  Se  Se177  1  0.58791883  0.41553436  0.44537745  1
  Se  Se178  1  0.58713760  0.41826429  0.94671928  1
  Se  Se179  1  0.58100825  0.75129360  0.44823537  1
  Se  Se180  1  0.57799614  0.74769020  0.94965598  1
  Se  Se181  1  0.91437952  0.08862444  0.44327751  1
  Se  Se182  1  0.92079107  0.07858182  0.96118486  1
  Se  Se183  1  0.91950718  0.41610517  0.43430643  1
  Se  Se184  1  0.91684485  0.41974564  0.94795267  1
  Se  Se185  1  0.91477470  0.75302435  0.44425768  1
  Se  Se186  1  0.89489618  0.76935600  0.95180711  1
  Se  Se187  1  0.24001775  0.23911171  0.30739644  1
  Se  Se188  1  0.24505919  0.24674500  0.80928899  1
  Se  Se189  1  0.25139406  0.58250363  0.29874103  1
  Se  Se190  1  0.24689609  0.58796682  0.80007230  1
  Se  Se191  1  0.23873856  0.90858132  0.31088667  1
  Se  Se192  1  0.24823877  0.91699198  0.81416439  1
  Se  Se193  1  0.58731825  0.24956334  0.29569693  1
  Se  Se194  1  0.58845765  0.24563432  0.80152274  1
  Se  Se195  1  0.58332528  0.57880788  0.31101522  1
  Se  Se196  1  0.58844661  0.58892493  0.80723527  1
  Se  Se197  1  0.57827095  0.90954784  0.30573291  1
  Se  Se198  1  0.57980320  0.90279887  0.81499185  1
  Se  Se199  1  0.91848345  0.25106716  0.29891528  1
  Se  Se200  1  0.92625922  0.24932080  0.81060881  1
  Se  Se201  1  0.91476817  0.58462978  0.29936859  1
  Se  Se202  1  0.91916909  0.58688428  0.80769922  1
  Se  Se203  1  0.91489210  0.91844515  0.29854099  1
  Se  Se204  1  0.91832577  0.90405226  0.81678951  1
  Se  Se205  1  0.07726985  0.07543621  0.29536370  1
  Se  Se206  1  0.08640774  0.08521980  0.82061086  1
  Se  Se207  1  0.08487801  0.41502747  0.29907723  1
  Se  Se208  1  0.07651682  0.41521037  0.79851977  1
  Se  Se209  1  0.08137132  0.74938957  0.29900775  1
  Se  Se210  1  0.07571512  0.75762238  0.81248418  1
  Se  Se211  1  0.42987653  0.09461060  0.30346084  1
  Se  Se212  1  0.41888359  0.07537335  0.79980103  1
  Se  Se213  1  0.42451830  0.42726182  0.31205812  1
  Se  Se214  1  0.42122352  0.42290043  0.81168785  1
  Se  Se215  1  0.41006505  0.74519312  0.29913830  1
  Se  Se216  1  0.41281231  0.74427745  0.80929672  1
  Se  Se217  1  0.75850209  0.09082170  0.30707862  1
  Se  Se218  1  0.77064507  0.08561809  0.81062928  1
  Se  Se219  1  0.75040792  0.41295003  0.29676866  1
  Se  Se220  1  0.75443579  0.41464746  0.81027532  1
  Se  Se221  1  0.75413922  0.75859826  0.30405310  1
  Se  Se222  1  0.75005885  0.74256317  0.80332964  1
  Se  Se223  1  0.24053302  0.08117218  0.18451221  1
  Se  Se224  1  0.25593232  0.07518884  0.71046295  1
  Se  Se225  1  0.24686745  0.42114592  0.18335314  1
  Se  Se226  1  0.24031920  0.42260162  0.68887096  1
  Se  Se227  1  0.24947955  0.75006381  0.19623369  1
  Se  Se228  1  0.24517324  0.74969940  0.70253282  1
  Se  Se229  1  0.57847182  0.09161831  0.19058441  1
  Se  Se230  1  0.58267563  0.08284729  0.68993911  1
  Se  Se231  1  0.58604148  0.41841212  0.19656173  1
  Se  Se232  1  0.57908011  0.41498254  0.71240907  1
  Se  Se233  1  0.57723580  0.75948830  0.19280552  1
  Se  Se234  1  0.58605181  0.75317444  0.69618524  1
  Se  Se235  1  0.91397847  0.07738272  0.18549204  1
  Se  Se236  1  0.90799188  0.08525829  0.69313777  1
  Se  Se237  1  0.92236792  0.41395256  0.19432881  1
  Se  Se238  1  0.91843880  0.41716262  0.69798385  1
  Se  Se239  1  0.91688417  0.74447340  0.19317079  1
  Se  Se240  1  0.91828731  0.74817417  0.69991341  1
  Se  Se241  1  0.08117751  0.25487422  0.19720230  1
  Se  Se242  1  0.10421601  0.22583973  0.69254071  1
  Se  Se243  1  0.08115362  0.58367643  0.19406620  1
  Se  Se244  1  0.07836962  0.58755098  0.69786974  1
  Se  Se245  1  0.07611950  0.91573731  0.18822670  1
  Se  Se246  1  0.08870288  0.90828254  0.69246018  1
  Se  Se247  1  0.42271624  0.24570374  0.19075102  1
  Se  Se248  1  0.42529933  0.24112506  0.68793079  1
  Se  Se249  1  0.41602704  0.58531697  0.19516282  1
  Se  Se250  1  0.42408620  0.57634448  0.70165734  1
  Se  Se251  1  0.42059466  0.91102264  0.19304618  1
  Se  Se252  1  0.41588538  0.91239959  0.70183032  1
  Se  Se253  1  0.75294363  0.25195730  0.19353505  1
  Se  Se254  1  0.74099914  0.25695765  0.70199633  1
  Se  Se255  1  0.76464970  0.57944239  0.18129450  1
  Se  Se256  1  0.75369299  0.58236025  0.70391497  1
  Se  Se257  1  0.76181403  0.91917507  0.17863716  1
  Se  Se258  1  0.75633691  0.91230988  0.69488949  1
