# generated using pymatgen
data_In86Cu29Se144
_symmetry_space_group_name_H-M   'P 1'
_cell_length_a   17.57948045
_cell_length_b   17.58354854
_cell_length_c   23.44229126
_cell_angle_alpha   90.00050271
_cell_angle_beta   89.98329514
_cell_angle_gamma   89.96960203
_symmetry_Int_Tables_number   1
_chemical_formula_structural   In86Cu29Se144
_chemical_formula_sum   'In86 Cu29 Se144'
_cell_volume   7246.23706195
_cell_formula_units_Z   1
loop_
 _symmetry_equiv_pos_site_id
 _symmetry_equiv_pos_as_xyz
  1  'x, y, z'
loop_
 _atom_site_type_symbol
 _atom_site_label
 _atom_site_symmetry_multiplicity
 _atom_site_fract_x
 _atom_site_fract_y
 _atom_site_fract_z
 _atom_site_occupancy
  In  In0  1  -0.01273801  0.18215956  0.13100483  1
  In  In1  1  -0.00423503  0.16751172  0.62461194  1
  In  In2  1  -0.00124783  0.49955353  0.12495565  1
  In  In3  1  -0.01646508  0.48584218  0.62725482  1
  In  In4  1  -0.01823434  0.83503898  0.12286316  1
  In  In5  1  0.00299591  0.84542502  0.62168814  1
  In  In6  1  0.34943620  0.15862906  0.13206802  1
  In  In7  1  0.32472240  0.16690382  0.62436463  1
  In  In8  1  0.33200802  0.49907450  0.12903956  1
  In  In9  1  0.33850657  0.49016479  0.62089962  1
  In  In10  1  0.33188294  0.83638422  0.13171786  1
  In  In11  1  0.34544557  0.84394135  0.62342692  1
  In  In12  1  0.66089268  0.17440503  0.12281737  1
  In  In13  1  0.66462621  0.15611140  0.62482246  1
  In  In14  1  0.67404244  0.49292635  0.11935274  1
  In  In15  1  0.66637444  0.50692781  0.62186533  1
  In  In16  1  0.67318928  0.82499779  0.13031251  1
  In  In17  1  0.67455144  0.83492075  0.62465768  1
  In  In18  1  0.17980536  0.00335920  0.37611264  1
  In  In19  1  0.16526307  0.00530098  0.86826655  1
  In  In20  1  0.15594293  0.32121257  0.36551591  1
  In  In21  1  0.16675936  0.34304143  0.88060264  1
  In  In22  1  0.15805830  0.66022532  0.36580239  1
  In  In23  1  0.16059761  0.66029791  0.88171861  1
  In  In24  1  0.50443629  -0.00091593  0.36749911  1
  In  In25  1  0.51290290  0.00388612  0.86873940  1
  In  In26  1  0.51619412  0.34343700  0.36576784  1
  In  In27  1  0.51617318  0.32049116  0.90363883  1
  In  In28  1  0.49544459  0.65813363  0.36419481  1
  In  In29  1  0.49645649  0.65877306  0.88118862  1
  In  In30  1  0.82709311  0.00923224  0.38202855  1
  In  In31  1  0.83054375  0.00272759  0.87668393  1
  In  In32  1  0.83121095  0.32032767  0.35681425  1
  In  In33  1  0.83410031  0.32764230  0.88339256  1
  In  In34  1  0.84039209  0.67247469  0.36779230  1
  In  In35  1  0.83644858  0.66799163  0.88444234  1
  In  In36  1  -0.00887049  0.17660187  0.38038456  1
  In  In37  1  -0.01111537  0.15672035  0.86941401  1
  In  In38  1  -0.00377502  0.49853568  0.36573095  1
  In  In39  1  0.00225166  0.49442819  0.88040340  1
  In  In40  1  -0.00926460  0.81962595  0.37748377  1
  In  In41  1  -0.01250657  0.83636520  0.87477250  1
  In  In42  1  0.32928103  0.15937089  0.36853407  1
  In  In43  1  0.34225972  0.16131347  0.88091932  1
  In  In44  1  0.34421591  0.50544429  0.36339582  1
  In  In45  1  0.34169890  0.48683856  0.89096147  1
  In  In46  1  0.33850224  0.83594689  0.36610591  1
  In  In47  1  0.33849665  0.83914793  0.87176242  1
  In  In48  1  0.69247572  0.18155853  0.35151882  1
  In  In49  1  0.68531777  0.16664638  0.89302708  1
  In  In50  1  0.65692960  0.48376341  0.36532499  1
  In  In51  1  0.67603990  0.48837432  0.89632564  1
  In  In52  1  0.68155824  0.84512646  0.36530856  1
  In  In53  1  0.66742156  0.85233613  0.87398550  1
  In  In54  1  0.17692714  0.00640300  0.12379999  1
  In  In55  1  0.15243578  0.01209529  0.63242847  1
  In  In56  1  0.15532244  0.34608585  0.13432583  1
  In  In57  1  0.16483277  0.31835506  0.62069489  1
  In  In58  1  0.17729998  0.65735509  0.13528084  1
  In  In59  1  0.16147246  0.67205933  0.62118690  1
  In  In60  1  0.49322846  0.01515453  0.12616745  1
  In  In61  1  0.50385151  -0.00478764  0.64110718  1
  In  In62  1  0.50459339  0.32928096  0.12457035  1
  In  In63  1  0.49647702  0.33568048  0.61850838  1
  In  In64  1  0.50994504  0.65434935  0.13349226  1
  In  In65  1  0.50948932  0.65958229  0.62017362  1
  In  In66  1  0.82260419  0.00247533  0.12099579  1
  In  In67  1  0.83334969  0.00318485  0.62400313  1
  In  In68  1  0.82394845  0.33494720  0.12139293  1
  In  In69  1  0.84930140  0.34039288  0.62797747  1
  In  In70  1  0.83506367  0.66612525  0.12641178  1
  In  In71  1  0.82163761  0.66534023  0.61855668  1
  In  In72  1  0.50861269  0.16914378  0.49622854  1
  In  In73  1  0.16593836  0.49710515  0.48232176  1
  In  In74  1  0.00179994  0.67222658  0.75053261  1
  In  In75  1  0.50509652  0.82997395  0.49894772  1
  In  In76  1  0.16377738  0.83036406  0.00414051  1
  In  In77  1  0.16120077  0.83645697  0.49784204  1
  In  In78  1  0.66656588  0.66844877  0.74493073  1
  In  In79  1  0.00022123  0.00265166  0.24339893  1
  In  In80  1  0.16338380  0.17091881  0.00421163  1
  In  In81  1  0.66981130  0.33128903  0.76098923  1
  In  In82  1  0.33046739  0.32937301  0.75705509  1
  In  In83  1  0.33393591  0.66699632  0.76108298  1
  In  In84  1  0.50607731  0.83210246  -0.00125131  1
  In  In85  1  0.82986532  0.49765339  0.49625711  1
  Cu  Cu86  1  0.17210556  0.16500107  0.24665289  1
  Cu  Cu87  1  0.83171931  0.16348520  0.75203204  1
  Cu  Cu88  1  0.16655124  0.83421152  0.25426271  1
  Cu  Cu89  1  -0.00302018  0.00673700  0.50351317  1
  Cu  Cu90  1  0.32881756  0.33427710  0.01197829  1
  Cu  Cu91  1  0.16017531  0.49513536  0.75494191  1
  Cu  Cu92  1  0.50190726  0.49875803  0.75697941  1
  Cu  Cu93  1  0.17280116  0.84116325  0.74680559  1
  Cu  Cu94  1  0.67410395  0.00524972  0.49646087  1
  Cu  Cu95  1  -0.00191727  0.65997457  0.00302925  1
  Cu  Cu96  1  0.50171763  0.83213496  0.24547301  1
  Cu  Cu97  1  0.33354185  0.66281614  0.00913126  1
  Cu  Cu98  1  0.34232913  0.33579131  0.49498125  1
  Cu  Cu99  1  0.50284492  0.16564180  0.24892484  1
  Cu  Cu100  1  0.83478829  0.83156442  0.24784220  1
  Cu  Cu101  1  0.00054781  0.32678920  0.49784804  1
  Cu  Cu102  1  0.66300587  0.66272857  0.49369932  1
  Cu  Cu103  1  -0.00931274  0.00617885  -0.00028120  1
  Cu  Cu104  1  -0.00539455  0.33525064  0.00547080  1
  Cu  Cu105  1  0.67560936  0.66798226  0.00877519  1
  Cu  Cu106  1  0.50115232  0.49784320  0.24233537  1
  Cu  Cu107  1  0.66704305  0.00375861  0.00062475  1
  Cu  Cu108  1  0.50103564  0.16156532  0.75523776  1
  Cu  Cu109  1  0.16860254  0.49901321  0.25059709  1
  Cu  Cu110  1  0.33016584  0.65892671  0.48937944  1
  Cu  Cu111  1  0.33290678  0.00895804  0.50201392  1
  Cu  Cu112  1  0.83209104  0.84240219  0.74914597  1
  Cu  Cu113  1  0.83226552  0.50030455  0.24356001  1
  Cu  Cu114  1  0.16051290  0.16446963  0.74580760  1
  Se  Se115  1  0.07063347  0.07944846  0.06372799  1
  Se  Se116  1  0.08416147  0.08914927  0.55402189  1
  Se  Se117  1  0.08295341  0.41741163  0.05420001  1
  Se  Se118  1  0.08046012  0.41353726  0.55441619  1
  Se  Se119  1  0.07720133  0.74039182  0.06511906  1
  Se  Se120  1  0.06829458  0.74197483  0.55188224  1
  Se  Se121  1  0.41190037  0.08365475  0.04990944  1
  Se  Se122  1  0.42142442  0.07936824  0.56225099  1
  Se  Se123  1  0.41631663  0.41751154  0.06064552  1
  Se  Se124  1  0.42271462  0.42165244  0.54675124  1
  Se  Se125  1  0.41638595  0.74569272  0.06350341  1
  Se  Se126  1  0.40649361  0.73835670  0.55469704  1
  Se  Se127  1  0.74755343  0.09166306  0.05252293  1
  Se  Se128  1  0.75360427  0.08815363  0.55281580  1
  Se  Se129  1  0.73467226  0.39918676  0.04485216  1
  Se  Se130  1  0.74538952  0.40836204  0.56092073  1
  Se  Se131  1  0.75852576  0.75601720  0.05586384  1
  Se  Se132  1  0.74094025  0.74765651  0.54991657  1
  Se  Se133  1  0.24915415  0.25330375  0.07137842  1
  Se  Se134  1  0.25884584  0.25441761  0.54994277  1
  Se  Se135  1  0.24673728  0.57923120  0.05725237  1
  Se  Se136  1  0.25145056  0.58431591  0.55516838  1
  Se  Se137  1  0.26120023  0.92254634  0.05310104  1
  Se  Se138  1  0.25107938  0.92621100  0.55982068  1
  Se  Se139  1  0.56196500  0.23292122  0.05229478  1
  Se  Se140  1  0.59655718  0.25927273  0.55783968  1
  Se  Se141  1  0.58808468  0.58468599  0.05624679  1
  Se  Se142  1  0.58197086  0.57759544  0.54709672  1
  Se  Se143  1  0.59025765  0.92195944  0.06260890  1
  Se  Se144  1  0.58839130  0.92917124  0.55699521  1
  Se  Se145  1  0.90965597  0.24891660  0.05251743  1
  Se  Se146  1  0.91406755  0.25121695  0.55449137  1
  Se  Se147  1  0.91231014  0.57903169  0.05584774  1
  Se  Se148  1  0.92298141  0.58618959  0.55755875  1
  Se  Se149  1  0.90900033  0.92039290  0.05212111  1
  Se  Se150  1  0.91479784  0.91893420  0.55306055  1
  Se  Se151  1  0.08938745  0.24624239  0.44700787  1
  Se  Se152  1  0.07129735  0.25396930  0.94106882  1
  Se  Se153  1  0.06625481  0.59242715  0.44074251  1
  Se  Se154  1  0.08390260  0.57775227  0.95110762  1
  Se  Se155  1  0.07267885  0.92797318  0.43720820  1
  Se  Se156  1  0.07631827  0.92548762  0.94343689  1
  Se  Se157  1  0.41783454  0.25307526  0.43295805  1
  Se  Se158  1  0.40611084  0.25003329  0.95448612  1
  Se  Se159  1  0.42027079  0.57985960  0.44107396  1
  Se  Se160  1  0.41751783  0.58229786  0.95383508  1
  Se  Se161  1  0.41082464  0.92447425  0.44399406  1
  Se  Se162  1  0.41755877  0.92475802  0.94129911  1
  Se  Se163  1  0.75281967  0.25337029  0.43527806  1
  Se  Se164  1  0.72428568  0.28488990  0.95245935  1
  Se  Se165  1  0.74271446  0.58424351  0.43176588  1
  Se  Se166  1  0.75803315  0.58382919  0.95397667  1
  Se  Se167  1  0.75311754  0.91287208  0.44782015  1
  Se  Se168  1  0.75158374  0.91833088  0.94884076  1
  Se  Se169  1  0.24980423  0.09080850  0.44874236  1
  Se  Se170  1  0.24961970  0.07569922  0.94592636  1
  Se  Se171  1  0.26024751  0.40659603  0.42924051  1
  Se  Se172  1  0.24553968  0.41586784  0.95610020  1
  Se  Se173  1  0.25240708  0.74671482  0.43607826  1
  Se  Se174  1  0.26097607  0.74331394  0.94264812  1
  Se  Se175  1  0.59470418  0.08096359  0.43368268  1
  Se  Se176  1  0.58301976  0.08463301  0.94544430  1
  Se  Se177  1  0.58727012  0.41285405  0.44605633  1
  Se  Se178  1  0.55789715  0.44368294  0.95105377  1
  Se  Se179  1  0.58831692  0.74611097  0.43118921  1
  Se  Se180  1  0.59917156  0.74188414  0.93948247  1
  Se  Se181  1  0.91397935  0.08933539  0.44848155  1
  Se  Se182  1  0.90797138  0.09056107  0.94749479  1
  Se  Se183  1  0.92088541  0.40725432  0.43727796  1
  Se  Se184  1  0.91397373  0.41835778  0.94879847  1
  Se  Se185  1  0.90385969  0.75085800  0.44815758  1
  Se  Se186  1  0.92223988  0.75133193  0.95030376  1
  Se  Se187  1  0.25341864  0.25004225  0.30073514  1
  Se  Se188  1  0.23836763  0.23787809  0.81415567  1
  Se  Se189  1  0.25123111  0.58641442  0.30107537  1
  Se  Se190  1  0.24567039  0.56794041  0.81509541  1
  Se  Se191  1  0.25147653  0.92039901  0.30215849  1
  Se  Se192  1  0.25305029  0.91989542  0.80518223  1
  Se  Se193  1  0.58798539  0.25369841  0.29529042  1
  Se  Se194  1  0.57720044  0.24159831  0.81822885  1
  Se  Se195  1  0.58521641  0.57914355  0.29852870  1
  Se  Se196  1  0.58716316  0.57664754  0.81326231  1
  Se  Se197  1  0.58479461  0.91483423  0.29970824  1
  Se  Se198  1  0.58404262  0.91449693  0.79870234  1
  Se  Se199  1  0.93377649  0.25143653  0.29702596  1
  Se  Se200  1  0.91004367  0.25081437  0.80685523  1
  Se  Se201  1  0.91553301  0.58368320  0.29840729  1
  Se  Se202  1  0.91506596  0.58303272  0.81104174  1
  Se  Se203  1  0.91397454  0.91438032  0.30857772  1
  Se  Se204  1  0.91549398  0.92332152  0.80438748  1
  Se  Se205  1  0.08948854  0.08715298  0.30872478  1
  Se  Se206  1  0.07719767  0.08105965  0.80040755  1
  Se  Se207  1  0.08180660  0.41536422  0.30058006  1
  Se  Se208  1  0.07924612  0.41078868  0.80718437  1
  Se  Se209  1  0.07853721  0.75284479  0.30342312  1
  Se  Se210  1  0.09615671  0.76142556  0.81124632  1
  Se  Se211  1  0.41831732  0.08107839  0.30169385  1
  Se  Se212  1  0.41360356  0.08063041  0.80605500  1
  Se  Se213  1  0.42042330  0.41329886  0.29820175  1
  Se  Se214  1  0.42789717  0.41201111  0.81579967  1
  Se  Se215  1  0.41654736  0.74934213  0.29909624  1
  Se  Se216  1  0.43495692  0.75703262  0.80808625  1
  Se  Se217  1  0.74124261  0.06084891  0.30196218  1
  Se  Se218  1  0.74544772  0.08845803  0.81009622  1
  Se  Se219  1  0.75056786  0.41462281  0.29627920  1
  Se  Se220  1  0.75793060  0.42794854  0.81348558  1
  Se  Se221  1  0.74964455  0.74714478  0.29932184  1
  Se  Se222  1  0.75818159  0.75512014  0.80875975  1
  Se  Se223  1  0.25654645  0.07921183  0.19784718  1
  Se  Se224  1  0.25112949  0.08370250  0.69664648  1
  Se  Se225  1  0.25320091  0.41437192  0.20009183  1
  Se  Se226  1  0.24342108  0.41973352  0.69213647  1
  Se  Se227  1  0.25162446  0.75192054  0.19982733  1
  Se  Se228  1  0.24796941  0.75336576  0.69055894  1
  Se  Se229  1  0.58671713  0.08303952  0.19456220  1
  Se  Se230  1  0.58952186  0.08365993  0.70246485  1
  Se  Se231  1  0.58749756  0.41594173  0.19102220  1
  Se  Se232  1  0.57932146  0.41936270  0.69356275  1
  Se  Se233  1  0.58764704  0.74570003  0.19854944  1
  Se  Se234  1  0.57170985  0.75921387  0.68903002  1
  Se  Se235  1  0.90099410  0.09192710  0.19454252  1
  Se  Se236  1  0.91582991  0.08376338  0.69503797  1
  Se  Se237  1  0.91340418  0.41427328  0.19006339  1
  Se  Se238  1  0.91786076  0.41380371  0.70775054  1
  Se  Se239  1  0.92016242  0.74685955  0.19774382  1
  Se  Se240  1  0.90683976  0.75688182  0.68789887  1
  Se  Se241  1  0.08354445  0.24771132  0.19835433  1
  Se  Se242  1  0.07986066  0.25177515  0.69475656  1
  Se  Se243  1  0.08178390  0.58036617  0.19711376  1
  Se  Se244  1  0.08881007  0.57597440  0.68992768  1
  Se  Se245  1  0.09149225  0.90840973  0.18539106  1
  Se  Se246  1  0.07927638  0.91760910  0.69851279  1
  Se  Se247  1  0.41915677  0.25303295  0.19871318  1
  Se  Se248  1  0.42476919  0.24428106  0.69347633  1
  Se  Se249  1  0.41194951  0.58545259  0.19854255  1
  Se  Se250  1  0.42158230  0.57595915  0.69454497  1
  Se  Se251  1  0.42032012  0.91987784  0.19415533  1
  Se  Se252  1  0.41040891  0.91842192  0.70228554  1
  Se  Se253  1  0.74467344  0.25365309  0.19276474  1
  Se  Se254  1  0.75331569  0.24642496  0.69175432  1
  Se  Se255  1  0.74711847  0.58230650  0.19070887  1
  Se  Se256  1  0.76223801  0.57156706  0.69507866  1
  Se  Se257  1  0.75263785  0.91640972  0.19512990  1
  Se  Se258  1  0.74738060  0.92239190  0.69448521  1
