# generated using pymatgen
data_In86Cu29Se144
_symmetry_space_group_name_H-M   'P 1'
_cell_length_a   17.52697297
_cell_length_b   17.52883588
_cell_length_c   23.38127951
_cell_angle_alpha   90.00818104
_cell_angle_beta   89.99420854
_cell_angle_gamma   89.99539248
_symmetry_Int_Tables_number   1
_chemical_formula_structural   In86Cu29Se144
_chemical_formula_sum   'In86 Cu29 Se144'
_cell_volume   7183.37034261
_cell_formula_units_Z   1
loop_
 _symmetry_equiv_pos_site_id
 _symmetry_equiv_pos_as_xyz
  1  'x, y, z'
loop_
 _atom_site_type_symbol
 _atom_site_label
 _atom_site_symmetry_multiplicity
 _atom_site_fract_x
 _atom_site_fract_y
 _atom_site_fract_z
 _atom_site_occupancy
  In  In0  1  -0.01090082  0.16504728  0.11532976  1
  In  In1  1  0.01342956  0.16115757  0.64474524  1
  In  In2  1  0.00412604  0.52297466  0.11584265  1
  In  In3  1  0.00644446  0.49583483  0.63533477  1
  In  In4  1  -0.00516171  0.82573625  0.10675056  1
  In  In5  1  0.02627537  0.81953657  0.64507884  1
  In  In6  1  0.34237280  0.15371436  0.13567503  1
  In  In7  1  0.34289665  0.17357331  0.61776167  1
  In  In8  1  0.33303241  0.50201665  0.13732996  1
  In  In9  1  0.33336823  0.50094882  0.62825921  1
  In  In10  1  0.33288457  0.83355868  0.12193834  1
  In  In11  1  0.31644477  0.84094496  0.62747038  1
  In  In12  1  0.64362576  0.13712695  0.09168457  1
  In  In13  1  0.66602582  0.17655955  0.62761569  1
  In  In14  1  0.67544746  0.49495822  0.12189886  1
  In  In15  1  0.65223800  0.49300412  0.62567252  1
  In  In16  1  0.67288810  0.84249992  0.11080710  1
  In  In17  1  0.67360187  0.82800397  0.63129768  1
  In  In18  1  0.17433394  -0.01101206  0.37981026  1
  In  In19  1  0.12913936  -0.00504554  0.87327580  1
  In  In20  1  0.18005357  0.31851844  0.39221715  1
  In  In21  1  0.16978168  0.32179607  0.85278438  1
  In  In22  1  0.16661480  0.66635386  0.38014819  1
  In  In23  1  0.16607734  0.66939663  0.87151531  1
  In  In24  1  0.50244216  0.00671792  0.36639797  1
  In  In25  1  0.51401425  -0.00749132  0.89253695  1
  In  In26  1  0.48668955  0.34370347  0.38528652  1
  In  In27  1  0.49565092  0.31993493  0.86942264  1
  In  In28  1  0.48635155  0.67175024  0.37639641  1
  In  In29  1  0.50260861  0.67384141  0.87561771  1
  In  In30  1  0.82541049  0.00613134  0.36372757  1
  In  In31  1  0.85333894  -0.01678930  0.90536739  1
  In  In32  1  0.83648295  0.33281714  0.37328907  1
  In  In33  1  0.82996482  0.33912949  0.86654594  1
  In  In34  1  0.84730863  0.66573831  0.36819211  1
  In  In35  1  0.84502699  0.65625590  0.90002934  1
  In  In36  1  -0.00355155  0.17755304  0.37759905  1
  In  In37  1  -0.00315142  0.15608530  0.85949698  1
  In  In38  1  0.00974182  0.51726533  0.37417445  1
  In  In39  1  -0.01091935  0.50574209  0.86309894  1
  In  In40  1  0.01513678  0.82786158  0.37710193  1
  In  In41  1  0.00335970  0.82895570  0.88203788  1
  In  In42  1  0.33311675  0.17083100  0.37518575  1
  In  In43  1  0.33260299  0.17366994  0.87305935  1
  In  In44  1  0.33194215  0.50154457  0.38045189  1
  In  In45  1  0.32587520  0.49232352  0.86642020  1
  In  In46  1  0.32154169  0.82222561  0.36358890  1
  In  In47  1  0.33896136  0.82515764  0.88095043  1
  In  In48  1  0.66246700  0.15007733  0.36745570  1
  In  In49  1  0.66322782  0.16939918  0.88272699  1
  In  In50  1  0.66722337  0.48538066  0.37685787  1
  In  In51  1  0.70189264  0.49538903  0.87169934  1
  In  In52  1  0.65095113  0.83644995  0.36452847  1
  In  In53  1  0.68285393  0.81839178  0.90789062  1
  In  In54  1  0.17887863  -0.00053887  0.12453701  1
  In  In55  1  0.15836723  -0.00906796  0.62005447  1
  In  In56  1  0.16961483  0.34283462  0.12705179  1
  In  In57  1  0.16884103  0.33453638  0.62931111  1
  In  In58  1  0.15827444  0.67418133  0.13269269  1
  In  In59  1  0.16502870  0.67298305  0.62551249  1
  In  In60  1  0.49655782  0.00102564  0.12014013  1
  In  In61  1  0.48231410  0.00153327  0.62334263  1
  In  In62  1  0.49929549  0.32544798  0.12487753  1
  In  In63  1  0.49288766  0.33052214  0.62784288  1
  In  In64  1  0.48259685  0.66401682  0.12589225  1
  In  In65  1  0.49882267  0.64713330  0.62419152  1
  In  In66  1  0.81652459  -0.01845502  0.09780263  1
  In  In67  1  0.84050192  0.01560074  0.62927804  1
  In  In68  1  0.82700844  0.33075863  0.10914284  1
  In  In69  1  0.84126019  0.33607527  0.64658200  1
  In  In70  1  0.85125749  0.68672940  0.09964668  1
  In  In71  1  0.84723593  0.66495086  0.63690535  1
  In  In72  1  0.66469835  0.67256125  0.23713278  1
  In  In73  1  0.32700238  0.00590624  0.75359191  1
  In  In74  1  0.50639941  0.50553877  -0.00119159  1
  In  In75  1  0.66405663  0.33052579  0.24732200  1
  In  In76  1  0.16381123  0.50158283  -0.01230686  1
  In  In77  1  0.00429052  0.33452492  0.25035253  1
  In  In78  1  0.83650129  0.17197344  0.49882464  1
  In  In79  1  0.16605369  0.15969076  -0.00565205  1
  In  In80  1  0.66939086  -0.00108634  0.77015361  1
  In  In81  1  -0.00023129  -0.00767337  0.24724503  1
  In  In82  1  0.84190718  0.83781540  0.49764468  1
  In  In83  1  0.67214719  0.66189680  0.76278134  1
  In  In84  1  0.49073231  0.83360750  0.49361906  1
  In  In85  1  0.84190593  0.49446034  0.51538135  1
  Cu  Cu86  1  0.66881121  0.33792160  -0.00729616  1
  Cu  Cu87  1  0.32692408  0.66769495  0.00142854  1
  Cu  Cu88  1  0.65308040  0.32901523  0.50351826  1
  Cu  Cu89  1  0.33873225  0.32219656  0.00093267  1
  Cu  Cu90  1  0.49615371  0.50828707  0.25818405  1
  Cu  Cu91  1  0.49661318  0.82271907  0.76130874  1
  Cu  Cu92  1  0.49501770  0.16800021  0.24319646  1
  Cu  Cu93  1  0.84090627  0.84302468  0.76531384  1
  Cu  Cu94  1  0.83906899  0.16450392  0.75729254  1
  Cu  Cu95  1  0.17626023  0.49776566  0.25432075  1
  Cu  Cu96  1  0.49690989  0.84990045  0.24422213  1
  Cu  Cu97  1  0.65307882  0.00012981  0.49531397  1
  Cu  Cu98  1  0.33159115  -0.00238971  0.00090231  1
  Cu  Cu99  1  0.33092066  0.66502621  0.50133553  1
  Cu  Cu100  1  0.83704995  0.83056832  0.23151066  1
  Cu  Cu101  1  0.84833110  0.50869174  0.23951785  1
  Cu  Cu102  1  0.16304601  0.83487910  0.75385405  1
  Cu  Cu103  1  0.00660906  0.33539662  0.51090219  1
  Cu  Cu104  1  -0.00444913  0.33792856  -0.01515376  1
  Cu  Cu105  1  0.50550608  0.16029048  0.75196559  1
  Cu  Cu106  1  0.16937015  0.16648412  0.25718282  1
  Cu  Cu107  1  0.16899890  0.82647226  0.24925836  1
  Cu  Cu108  1  0.33186162  0.33919056  0.50630496  1
  Cu  Cu109  1  0.49715199  0.49140051  0.74947841  1
  Cu  Cu110  1  0.32963427  0.00950700  0.49647224  1
  Cu  Cu111  1  0.81821200  0.15721760  0.23318514  1
  Cu  Cu112  1  0.00199930  -0.00182145  0.50872674  1
  Cu  Cu113  1  0.16928756  0.50939290  0.74655989  1
  Cu  Cu114  1  0.67604584  0.65534888  0.50024147  1
  Se  Se115  1  0.07743149  0.07078816  0.05722560  1
  Se  Se116  1  0.07833224  0.08994969  0.55983414  1
  Se  Se117  1  0.07543275  0.41010383  0.05309694  1
  Se  Se118  1  0.08813385  0.42325794  0.56015446  1
  Se  Se119  1  0.08163162  0.73270409  0.05025277  1
  Se  Se120  1  0.08861649  0.76290529  0.55680674  1
  Se  Se121  1  0.41171364  0.08771922  0.05168815  1
  Se  Se122  1  0.42101333  0.08648948  0.54661064  1
  Se  Se123  1  0.40940528  0.41602095  0.05734588  1
  Se  Se124  1  0.41965159  0.42095871  0.55797795  1
  Se  Se125  1  0.41510613  0.74973648  0.05147703  1
  Se  Se126  1  0.41019812  0.74649012  0.56357815  1
  Se  Se127  1  0.78029758  0.11344268  0.05694083  1
  Se  Se128  1  0.74101254  0.07659816  0.55478317  1
  Se  Se129  1  0.75148766  0.42451726  0.04322241  1
  Se  Se130  1  0.74490960  0.39830312  0.56374926  1
  Se  Se131  1  0.74259878  0.74988268  0.04267126  1
  Se  Se132  1  0.75226489  0.74000825  0.55906526  1
  Se  Se133  1  0.25225913  0.24857896  0.06174325  1
  Se  Se134  1  0.24752848  0.25178731  0.55599449  1
  Se  Se135  1  0.25166980  0.58060934  0.06004544  1
  Se  Se136  1  0.24994433  0.58551527  0.56031497  1
  Se  Se137  1  0.24713182  0.91239593  0.05097138  1
  Se  Se138  1  0.24991885  0.91993946  0.54913231  1
  Se  Se139  1  0.58164505  0.25960777  0.04784754  1
  Se  Se140  1  0.57423806  0.24266648  0.55708630  1
  Se  Se141  1  0.59009731  0.59415836  0.06372427  1
  Se  Se142  1  0.58437468  0.57793946  0.55007143  1
  Se  Se143  1  0.58436607  0.92797879  0.04967902  1
  Se  Se144  1  0.58524741  0.91476331  0.56086652  1
  Se  Se145  1  0.91981491  0.25415467  0.04395460  1
  Se  Se146  1  0.92063320  0.25598015  0.56741500  1
  Se  Se147  1  0.90113085  0.56781784  0.04621459  1
  Se  Se148  1  0.93258657  0.59501134  0.56096350  1
  Se  Se149  1  0.92208601  0.91714016  0.03855645  1
  Se  Se150  1  0.92472462  0.91850784  0.56999603  1
  Se  Se151  1  0.07928273  0.24502731  0.45362990  1
  Se  Se152  1  0.08412035  0.25716115  0.93372236  1
  Se  Se153  1  0.08860130  0.58181247  0.45124547  1
  Se  Se154  1  0.06718017  0.59410111  0.93966492  1
  Se  Se155  1  0.08206214  0.91724229  0.44917326  1
  Se  Se156  1  0.09811538  0.89936256  0.95122623  1
  Se  Se157  1  0.41140260  0.25156256  0.45038758  1
  Se  Se158  1  0.42167159  0.24072127  0.94670406  1
  Se  Se159  1  0.41911728  0.58487667  0.44953578  1
  Se  Se160  1  0.40365018  0.58354483  0.94009263  1
  Se  Se161  1  0.40382496  0.92413730  0.43271452  1
  Se  Se162  1  0.41653119  0.91161527  0.95041448  1
  Se  Se163  1  0.73624554  0.25575620  0.43825985  1
  Se  Se164  1  0.75611983  0.25548679  0.94164910  1
  Se  Se165  1  0.75805766  0.57946387  0.43867910  1
  Se  Se166  1  0.71764303  0.60523176  0.94215301  1
  Se  Se167  1  0.73852993  0.92090960  0.43779403  1
  Se  Se168  1  0.72381343  0.94787657  0.95066002  1
  Se  Se169  1  0.24274565  0.09002290  0.44318809  1
  Se  Se170  1  0.25483022  0.07007538  0.93300054  1
  Se  Se171  1  0.24774497  0.42275214  0.45231186  1
  Se  Se172  1  0.25349968  0.39766075  0.93964406  1
  Se  Se173  1  0.25291418  0.75293769  0.44671360  1
  Se  Se174  1  0.24437457  0.74857845  0.94588345  1
  Se  Se175  1  0.57462622  0.08739687  0.44380882  1
  Se  Se176  1  0.58644321  0.08918618  0.95665353  1
  Se  Se177  1  0.57935683  0.42175566  0.45112333  1
  Se  Se178  1  0.58720666  0.41565198  0.93134837  1
  Se  Se179  1  0.59427813  0.74156152  0.44385806  1
  Se  Se180  1  0.56494845  0.75457864  0.95321577  1
  Se  Se181  1  0.92115548  0.06978629  0.44078402  1
  Se  Se182  1  0.93896702  0.09001137  0.94666617  1
  Se  Se183  1  0.92568355  0.40951069  0.44350351  1
  Se  Se184  1  0.91153476  0.42410087  0.93664135  1
  Se  Se185  1  0.92980656  0.73788821  0.44604529  1
  Se  Se186  1  0.89725890  0.77502571  0.95107305  1
  Se  Se187  1  0.24930221  0.25620413  0.30634816  1
  Se  Se188  1  0.26440212  0.24397624  0.79163051  1
  Se  Se189  1  0.25276539  0.58643467  0.30986456  1
  Se  Se190  1  0.25291482  0.58937616  0.80293347  1
  Se  Se191  1  0.24790980  0.91922883  0.29883602  1
  Se  Se192  1  0.24326160  0.91357296  0.81616897  1
  Se  Se193  1  0.57057539  0.24771820  0.31070261  1
  Se  Se194  1  0.58990279  0.24452456  0.80313603  1
  Se  Se195  1  0.58750044  0.58415914  0.31173299  1
  Se  Se196  1  0.57614738  0.56785934  0.81474053  1
  Se  Se197  1  0.58714321  0.92889720  0.29364304  1
  Se  Se198  1  0.58272446  0.89609528  0.81960778  1
  Se  Se199  1  0.90000130  0.23598825  0.29737280  1
  Se  Se200  1  0.92327158  0.25813906  0.80083095  1
  Se  Se201  1  0.92943656  0.58810223  0.29640047  1
  Se  Se202  1  0.90071180  0.59969300  0.80849426  1
  Se  Se203  1  0.90830774  0.90111978  0.30760354  1
  Se  Se204  1  0.92401893  0.92598024  0.81744996  1
  Se  Se205  1  0.08188875  0.08756060  0.31161155  1
  Se  Se206  1  0.11506696  0.10658595  0.80409679  1
  Se  Se207  1  0.09496786  0.41602171  0.31585760  1
  Se  Se208  1  0.08865028  0.42710937  0.80437056  1
  Se  Se209  1  0.08479071  0.74408151  0.30334649  1
  Se  Se210  1  0.07748902  0.74986916  0.80443330  1
  Se  Se211  1  0.41292892  0.08806756  0.30225151  1
  Se  Se212  1  0.43195635  0.07771934  0.81474362  1
  Se  Se213  1  0.41434930  0.41960834  0.30793732  1
  Se  Se214  1  0.41337263  0.40723852  0.80312643  1
  Se  Se215  1  0.42386047  0.75638848  0.29905710  1
  Se  Se216  1  0.40669704  0.73841358  0.80501374  1
  Se  Se217  1  0.73865377  0.07508066  0.29057857  1
  Se  Se218  1  0.76665030  0.08505511  0.82379858  1
  Se  Se219  1  0.76496434  0.42680508  0.29861507  1
  Se  Se220  1  0.74034722  0.40545037  0.79165167  1
  Se  Se221  1  0.75693761  0.75737330  0.30303307  1
  Se  Se222  1  0.75618229  0.76095378  0.81903467  1
  Se  Se223  1  0.24783592  0.08031817  0.20170527  1
  Se  Se224  1  0.24830496  0.08621672  0.68120158  1
  Se  Se225  1  0.25475376  0.40945296  0.20221336  1
  Se  Se226  1  0.25219261  0.41893906  0.69873452  1
  Se  Se227  1  0.25654290  0.74694583  0.19491602  1
  Se  Se228  1  0.24841331  0.75319449  0.69952762  1
  Se  Se229  1  0.58098134  0.09058975  0.18647858  1
  Se  Se230  1  0.58237765  0.07510829  0.69249281  1
  Se  Se231  1  0.57337037  0.43012752  0.19301993  1
  Se  Se232  1  0.58213722  0.40712061  0.69849603  1
  Se  Se233  1  0.57306577  0.76603057  0.18243980  1
  Se  Se234  1  0.57882982  0.74768126  0.69590336  1
  Se  Se235  1  0.90814462  0.07506819  0.18299253  1
  Se  Se236  1  0.92329090  0.07692250  0.70797365  1
  Se  Se237  1  0.91796910  0.41659908  0.18152239  1
  Se  Se238  1  0.91003623  0.43596415  0.70675195  1
  Se  Se239  1  0.92394340  0.74636887  0.18575944  1
  Se  Se240  1  0.91523210  0.75998508  0.70391065  1
  Se  Se241  1  0.08863794  0.23712239  0.18853223  1
  Se  Se242  1  0.06479942  0.27822470  0.69707761  1
  Se  Se243  1  0.08790968  0.57538015  0.19821976  1
  Se  Se244  1  0.08221814  0.59373233  0.69809716  1
  Se  Se245  1  0.08834149  0.90372955  0.18571708  1
  Se  Se246  1  0.08411975  0.92935075  0.70555044  1
  Se  Se247  1  0.41094960  0.25777296  0.19747352  1
  Se  Se248  1  0.41836074  0.24138288  0.69897762  1
  Se  Se249  1  0.41144325  0.59027171  0.20538510  1
  Se  Se250  1  0.41622849  0.58294981  0.70137262  1
  Se  Se251  1  0.40761849  0.92604327  0.19064490  1
  Se  Se252  1  0.42149725  0.90688996  0.69915076  1
  Se  Se253  1  0.74138185  0.24419677  0.17733202  1
  Se  Se254  1  0.75205735  0.24237143  0.70221442  1
  Se  Se255  1  0.76423552  0.58740766  0.18247884  1
  Se  Se256  1  0.74884015  0.57529412  0.69010914  1
  Se  Se257  1  0.75255574  0.91851103  0.18624830  1
  Se  Se258  1  0.75909396  0.91523590  0.69803691  1
