# generated using pymatgen
data_In86Cu29Se144
_symmetry_space_group_name_H-M   'P 1'
_cell_length_a   17.58043412
_cell_length_b   17.58299887
_cell_length_c   23.44645364
_cell_angle_alpha   90.00917509
_cell_angle_beta   89.99683925
_cell_angle_gamma   89.99439058
_symmetry_Int_Tables_number   1
_chemical_formula_structural   In86Cu29Se144
_chemical_formula_sum   'In86 Cu29 Se144'
_cell_volume   7247.69148484
_cell_formula_units_Z   1
loop_
 _symmetry_equiv_pos_site_id
 _symmetry_equiv_pos_as_xyz
  1  'x, y, z'
loop_
 _atom_site_type_symbol
 _atom_site_label
 _atom_site_symmetry_multiplicity
 _atom_site_fract_x
 _atom_site_fract_y
 _atom_site_fract_z
 _atom_site_occupancy
  In  In0  1  0.00925703  0.15026931  0.13252959  1
  In  In1  1  0.00166711  0.18553789  0.62274205  1
  In  In2  1  -0.01032058  0.50811996  0.13911380  1
  In  In3  1  -0.00045742  0.49300933  0.62111399  1
  In  In4  1  -0.00224028  0.83269482  0.13078897  1
  In  In5  1  0.00167925  0.82392816  0.61684990  1
  In  In6  1  0.32952384  0.16463188  0.12141032  1
  In  In7  1  0.34248501  0.15105614  0.62757005  1
  In  In8  1  0.34085091  0.49922059  0.13442143  1
  In  In9  1  0.33811363  0.50823093  0.61100778  1
  In  In10  1  0.33451747  0.83090301  0.13691514  1
  In  In11  1  0.35961010  0.86499672  0.58824859  1
  In  In12  1  0.65115839  0.16202662  0.12154366  1
  In  In13  1  0.67181816  0.17182649  0.61871818  1
  In  In14  1  0.67063197  0.49910076  0.12011068  1
  In  In15  1  0.65704090  0.51197229  0.63349790  1
  In  In16  1  0.67338544  0.82682569  0.13213684  1
  In  In17  1  0.63940896  0.83513142  0.63073837  1
  In  In18  1  0.16419074  -0.00326747  0.37380032  1
  In  In19  1  0.18620747  -0.00148273  0.87364775  1
  In  In20  1  0.16542158  0.35326274  0.37057960  1
  In  In21  1  0.14955552  0.33475851  0.87310853  1
  In  In22  1  0.17458321  0.66384507  0.36635160  1
  In  In23  1  0.16545929  0.66851896  0.87871654  1
  In  In24  1  0.49712789  -0.00218638  0.37633883  1
  In  In25  1  0.50694227  0.01578501  0.87123839  1
  In  In26  1  0.49718435  0.33878849  0.38429740  1
  In  In27  1  0.51208412  0.32182376  0.87652184  1
  In  In28  1  0.50058383  0.66769113  0.37344519  1
  In  In29  1  0.49663955  0.65080711  0.87897545  1
  In  In30  1  0.84014377  0.00603480  0.36837227  1
  In  In31  1  0.81512184  -0.00821106  0.88581871  1
  In  In32  1  0.83880103  0.32332858  0.37456099  1
  In  In33  1  0.83748736  0.33997054  0.87049418  1
  In  In34  1  0.83153879  0.66381241  0.36462906  1
  In  In35  1  0.82297145  0.68129156  0.89282442  1
  In  In36  1  -0.00424576  0.16048278  0.36716135  1
  In  In37  1  -0.00760686  0.18116537  0.87726147  1
  In  In38  1  0.02386421  0.51806377  0.34642910  1
  In  In39  1  -0.00131964  0.49093912  0.87750796  1
  In  In40  1  0.01076381  0.84044156  0.36682693  1
  In  In41  1  -0.00886991  0.82398282  0.88138829  1
  In  In42  1  0.34747299  0.16228817  0.38192792  1
  In  In43  1  0.34821373  0.15751994  0.88163042  1
  In  In44  1  0.32983904  0.50438062  0.37400889  1
  In  In45  1  0.33532742  0.51374254  0.87904923  1
  In  In46  1  0.33689068  0.83694435  0.37832671  1
  In  In47  1  0.32695418  0.83739637  0.87031091  1
  In  In48  1  0.67618303  0.16534605  0.37964724  1
  In  In49  1  0.63981015  0.16390468  0.87346708  1
  In  In50  1  0.65386295  0.50892357  0.37376705  1
  In  In51  1  0.66770941  0.49852699  0.87602835  1
  In  In52  1  0.65223448  0.82278392  0.36921708  1
  In  In53  1  0.67524923  0.84047514  0.88037759  1
  In  In54  1  0.16686179  0.00275764  0.13203924  1
  In  In55  1  0.19006971  0.00138534  0.61938827  1
  In  In56  1  0.17003129  0.31641538  0.12497123  1
  In  In57  1  0.15323737  0.33538891  0.62297078  1
  In  In58  1  0.16179755  0.66630486  0.14093580  1
  In  In59  1  0.17858768  0.67686188  0.60867534  1
  In  In60  1  0.49296924  0.00455638  0.13431653  1
  In  In61  1  0.49680101  -0.00065900  0.61385807  1
  In  In62  1  0.50228435  0.33624566  0.11765375  1
  In  In63  1  0.50580573  0.33921820  0.62128870  1
  In  In64  1  0.51251881  0.65095388  0.14497596  1
  In  In65  1  0.50379247  0.67225015  0.62113827  1
  In  In66  1  0.83842762  -0.01165938  0.12962466  1
  In  In67  1  0.81451633  0.00486682  0.62284703  1
  In  In68  1  0.83050289  0.34522222  0.11939375  1
  In  In69  1  0.84069776  0.33186106  0.62824830  1
  In  In70  1  0.83287643  0.66036759  0.12297604  1
  In  In71  1  0.83242877  0.65583145  0.62700423  1
  In  In72  1  0.16241503  0.49817095  0.00188980  1
  In  In73  1  0.50248934  0.83581944  0.00574744  1
  In  In74  1  -0.00006678  0.65899265  0.75845883  1
  In  In75  1  0.33884041  0.67654527  0.74407808  1
  In  In76  1  0.83093814  0.16554320  0.00007542  1
  In  In77  1  0.33275791  0.33177364  0.74686812  1
  In  In78  1  0.83689405  0.49194768  0.49613600  1
  In  In79  1  0.33177164  0.33338047  0.25798076  1
  In  In80  1  0.00100888  0.00665887  0.75059927  1
  In  In81  1  0.66354277  0.00057318  0.75234878  1
  In  In82  1  0.66972622  0.33322024  0.24583378  1
  In  In83  1  0.17018747  0.16795576  0.50051513  1
  In  In84  1  0.16146048  0.83575191  0.01313799  1
  In  In85  1  0.82949157  0.83631085  0.49862433  1
  Cu  Cu86  1  -0.00056826  0.33139190  0.00094551  1
  Cu  Cu87  1  0.66348495  0.33370350  -0.00407176  1
  Cu  Cu88  1  0.83162161  0.83297544  0.24965522  1
  Cu  Cu89  1  0.33719502  0.66713211  0.00805617  1
  Cu  Cu90  1  0.16943055  0.83332963  0.25460012  1
  Cu  Cu91  1  0.83044353  0.49900367  0.24426977  1
  Cu  Cu92  1  0.82986630  0.17408994  0.74910984  1
  Cu  Cu93  1  0.83243040  0.16172240  0.24885398  1
  Cu  Cu94  1  0.00589894  -0.00001704  0.00798667  1
  Cu  Cu95  1  0.33509372  0.33236885  0.00099442  1
  Cu  Cu96  1  0.66148610  0.67108659  0.50284940  1
  Cu  Cu97  1  0.32988348  0.66081470  0.48825378  1
  Cu  Cu98  1  0.34210494  0.00997304  0.00087504  1
  Cu  Cu99  1  0.16156550  0.50179550  0.74436711  1
  Cu  Cu100  1  0.66620750  0.33538664  0.50052408  1
  Cu  Cu101  1  0.49931660  0.16545096  0.25359052  1
  Cu  Cu102  1  0.16917928  0.16064375  0.25132088  1
  Cu  Cu103  1  0.16722358  0.17249975  0.74684851  1
  Cu  Cu104  1  0.49643656  0.83738887  0.25466382  1
  Cu  Cu105  1  0.83018778  0.82570837  0.75897838  1
  Cu  Cu106  1  0.66329252  0.00441214  0.49548915  1
  Cu  Cu107  1  0.17163132  0.84222009  0.74362631  1
  Cu  Cu108  1  0.33697307  0.33377937  0.50030409  1
  Cu  Cu109  1  0.82636053  0.49749468  0.75148927  1
  Cu  Cu110  1  0.00018325  0.33766191  0.49597518  1
  Cu  Cu111  1  0.00889124  0.66603905  0.48479525  1
  Cu  Cu112  1  0.50577584  0.49345780  0.75320052  1
  Cu  Cu113  1  0.66166530  0.66073551  0.00907196  1
  Cu  Cu114  1  -0.00222933  0.00806840  0.49295032  1
  Se  Se115  1  0.09265722  0.08282975  0.05558772  1
  Se  Se116  1  0.07704450  0.07943317  0.56222349  1
  Se  Se117  1  0.07738373  0.40922190  0.06480750  1
  Se  Se118  1  0.08486133  0.42078131  0.54815569  1
  Se  Se119  1  0.07562105  0.73488374  0.06253418  1
  Se  Se120  1  0.08337634  0.75163624  0.54368512  1
  Se  Se121  1  0.42534115  0.08888902  0.05714910  1
  Se  Se122  1  0.40886340  0.07916004  0.54745559  1
  Se  Se123  1  0.41036900  0.41937404  0.05659673  1
  Se  Se124  1  0.42254890  0.41885086  0.55058849  1
  Se  Se125  1  0.41835194  0.74386608  0.06836859  1
  Se  Se126  1  0.41113321  0.73693847  0.54953669  1
  Se  Se127  1  0.74749626  0.07549307  0.06209506  1
  Se  Se128  1  0.75003079  0.08685028  0.54644702  1
  Se  Se129  1  0.74790915  0.41761065  0.04657420  1
  Se  Se130  1  0.74422967  0.41653469  0.56320079  1
  Se  Se131  1  0.74681485  0.74638883  0.05724114  1
  Se  Se132  1  0.74450985  0.74746400  0.56415618  1
  Se  Se133  1  0.25040135  0.24616078  0.04911384  1
  Se  Se134  1  0.25798887  0.25665344  0.56474354  1
  Se  Se135  1  0.24975275  0.58870917  0.06354929  1
  Se  Se136  1  0.24497475  0.57810094  0.54328461  1
  Se  Se137  1  0.26462917  0.92454459  0.06057131  1
  Se  Se138  1  0.22873864  0.90092501  0.54678026  1
  Se  Se139  1  0.58147626  0.24998561  0.04972374  1
  Se  Se140  1  0.58252596  0.25058282  0.55209754  1
  Se  Se141  1  0.57414673  0.57986230  0.05929230  1
  Se  Se142  1  0.58176601  0.58146121  0.55397417  1
  Se  Se143  1  0.58839771  0.92278929  0.06830831  1
  Se  Se144  1  0.58556028  0.91538697  0.54822697  1
  Se  Se145  1  0.92400940  0.24814630  0.06323778  1
  Se  Se146  1  0.91591831  0.25568795  0.54970708  1
  Se  Se147  1  0.91112212  0.56766189  0.05869064  1
  Se  Se148  1  0.92732187  0.59336880  0.55111851  1
  Se  Se149  1  0.92200054  0.91414529  0.05611830  1
  Se  Se150  1  0.92000438  0.92934239  0.55903748  1
  Se  Se151  1  0.08060606  0.25345042  0.43718630  1
  Se  Se152  1  0.08369401  0.24834804  0.94884030  1
  Se  Se153  1  0.08814797  0.57792212  0.43466371  1
  Se  Se154  1  0.07220103  0.59237254  0.94404509  1
  Se  Se155  1  0.07930735  0.91954498  0.44536271  1
  Se  Se156  1  0.08255143  0.92247519  0.93972446  1
  Se  Se157  1  0.42197112  0.24856405  0.45183817  1
  Se  Se158  1  0.42109857  0.25140087  0.94728770  1
  Se  Se159  1  0.42069056  0.57893412  0.44153958  1
  Se  Se160  1  0.41717309  0.57982969  0.95611431  1
  Se  Se161  1  0.42344941  0.91226098  0.44851613  1
  Se  Se162  1  0.41212678  0.92099050  0.94062515  1
  Se  Se163  1  0.75287096  0.25478908  0.44819747  1
  Se  Se164  1  0.74349820  0.25189252  0.93552111  1
  Se  Se165  1  0.74687138  0.59299811  0.44489928  1
  Se  Se166  1  0.74455686  0.58163964  0.94956866  1
  Se  Se167  1  0.74259151  0.92178284  0.43452431  1
  Se  Se168  1  0.75195363  0.90555042  0.95926186  1
  Se  Se169  1  0.25740710  0.07327904  0.44501648  1
  Se  Se170  1  0.25127233  0.08583005  0.94769986  1
  Se  Se171  1  0.25429152  0.41492305  0.44515676  1
  Se  Se172  1  0.25404256  0.41031974  0.93820930  1
  Se  Se173  1  0.24732216  0.74863088  0.43960897  1
  Se  Se174  1  0.25747750  0.74714460  0.94833109  1
  Se  Se175  1  0.58077200  0.08796458  0.44181495  1
  Se  Se176  1  0.59629495  0.06818582  0.94885958  1
  Se  Se177  1  0.58679423  0.42185606  0.44754842  1
  Se  Se178  1  0.57875745  0.41856944  0.94397491  1
  Se  Se179  1  0.57767813  0.75168022  0.44822605  1
  Se  Se180  1  0.58604271  0.74131631  0.94388846  1
  Se  Se181  1  0.91243154  0.09007557  0.44335488  1
  Se  Se182  1  0.92459663  0.07256514  0.94108526  1
  Se  Se183  1  0.93109562  0.41982016  0.42947775  1
  Se  Se184  1  0.91514523  0.41321413  0.94821849  1
  Se  Se185  1  0.91845516  0.74731884  0.43569559  1
  Se  Se186  1  0.92135915  0.74871968  0.95716361  1
  Se  Se187  1  0.24354031  0.23914767  0.31730686  1
  Se  Se188  1  0.24552210  0.24734080  0.81317510  1
  Se  Se189  1  0.24191656  0.56608540  0.29957300  1
  Se  Se190  1  0.24144017  0.58235459  0.80355436  1
  Se  Se191  1  0.25239585  0.91790062  0.30694354  1
  Se  Se192  1  0.25819552  0.92239232  0.79577066  1
  Se  Se193  1  0.57883738  0.24997306  0.31098105  1
  Se  Se194  1  0.58164344  0.24933350  0.79684724  1
  Se  Se195  1  0.59053060  0.59648832  0.30166134  1
  Se  Se196  1  0.58353631  0.58190021  0.80634424  1
  Se  Se197  1  0.58325702  0.92149021  0.30463524  1
  Se  Se198  1  0.57597391  0.90673703  0.81021668  1
  Se  Se199  1  0.91561846  0.24753256  0.29893556  1
  Se  Se200  1  0.91833201  0.25478249  0.80028558  1
  Se  Se201  1  0.91434602  0.58715463  0.29328531  1
  Se  Se202  1  0.90224211  0.57819739  0.81656205  1
  Se  Se203  1  0.91740688  0.91625825  0.30198489  1
  Se  Se204  1  0.90951688  0.91500023  0.81099898  1
  Se  Se205  1  0.08266442  0.07726987  0.30261387  1
  Se  Se206  1  0.09076044  0.09296310  0.81311888  1
  Se  Se207  1  0.06709559  0.39459733  0.29635897  1
  Se  Se208  1  0.07914537  0.42142063  0.79997832  1
  Se  Se209  1  0.08265075  0.74615406  0.30136499  1
  Se  Se210  1  0.09307602  0.76395632  0.80661104  1
  Se  Se211  1  0.41449372  0.08162425  0.30469087  1
  Se  Se212  1  0.41847614  0.08627433  0.80208250  1
  Se  Se213  1  0.42967426  0.42456146  0.30714809  1
  Se  Se214  1  0.41650931  0.42266004  0.81242278  1
  Se  Se215  1  0.41430761  0.75140359  0.30701025  1
  Se  Se216  1  0.42685349  0.75536126  0.81283502  1
  Se  Se217  1  0.74638442  0.08360500  0.30335884  1
  Se  Se218  1  0.75670275  0.09102867  0.81200366  1
  Se  Se219  1  0.75476287  0.42296769  0.31187859  1
  Se  Se220  1  0.74401852  0.41236577  0.80388757  1
  Se  Se221  1  0.74654163  0.75053129  0.30229396  1
  Se  Se222  1  0.74557794  0.74626791  0.81160483  1
  Se  Se223  1  0.25719103  0.08350870  0.19709040  1
  Se  Se224  1  0.24940350  0.08501156  0.69846805  1
  Se  Se225  1  0.24119716  0.41515174  0.19272080  1
  Se  Se226  1  0.24728422  0.42730775  0.68552873  1
  Se  Se227  1  0.25236240  0.74712312  0.20374413  1
  Se  Se228  1  0.24984310  0.76268109  0.68313063  1
  Se  Se229  1  0.58477439  0.08398649  0.20079944  1
  Se  Se230  1  0.58147233  0.08571602  0.68496422  1
  Se  Se231  1  0.57527563  0.42334127  0.19231861  1
  Se  Se232  1  0.58689196  0.41249109  0.69697451  1
  Se  Se233  1  0.58248018  0.75523963  0.20208266  1
  Se  Se234  1  0.58378808  0.73736362  0.69950328  1
  Se  Se235  1  0.91731722  0.07566013  0.19818424  1
  Se  Se236  1  0.90727594  0.09144238  0.68825687  1
  Se  Se237  1  0.91194271  0.40756924  0.19819458  1
  Se  Se238  1  0.91643518  0.42366250  0.69592734  1
  Se  Se239  1  0.91124908  0.74743707  0.19425070  1
  Se  Se240  1  0.91351885  0.75415180  0.69532988  1
  Se  Se241  1  0.08587043  0.24315591  0.19781918  1
  Se  Se242  1  0.08049214  0.25668371  0.69970774  1
  Se  Se243  1  0.08768051  0.57300588  0.20458437  1
  Se  Se244  1  0.08934045  0.58845373  0.68357546  1
  Se  Se245  1  0.08641416  0.91360561  0.19647276  1
  Se  Se246  1  0.08386471  0.91610568  0.68534779  1
  Se  Se247  1  0.42270836  0.24852405  0.19258850  1
  Se  Se248  1  0.42609013  0.24468647  0.69036521  1
  Se  Se249  1  0.40138942  0.59474624  0.20324272  1
  Se  Se250  1  0.42240394  0.57183782  0.69265107  1
  Se  Se251  1  0.41168616  0.92104020  0.20270856  1
  Se  Se252  1  0.42137409  0.90903801  0.68166030  1
  Se  Se253  1  0.75596473  0.24031994  0.18432767  1
  Se  Se254  1  0.74799547  0.25351358  0.69235559  1
  Se  Se255  1  0.74476203  0.58188182  0.19343279  1
  Se  Se256  1  0.74869946  0.58785721  0.70087318  1
  Se  Se257  1  0.74709602  0.91914682  0.20040659  1
  Se  Se258  1  0.75410854  0.90409842  0.69337604  1
