# generated using pymatgen
data_In86Cu29Se144
_symmetry_space_group_name_H-M   'P 1'
_cell_length_a   17.59208353
_cell_length_b   17.58873900
_cell_length_c   23.44582315
_cell_angle_alpha   90.00520056
_cell_angle_beta   90.01628393
_cell_angle_gamma   89.99796959
_symmetry_Int_Tables_number   1
_chemical_formula_structural   In86Cu29Se144
_chemical_formula_sum   'In86 Cu29 Se144'
_cell_volume   7254.66642619
_cell_formula_units_Z   1
loop_
 _symmetry_equiv_pos_site_id
 _symmetry_equiv_pos_as_xyz
  1  'x, y, z'
loop_
 _atom_site_type_symbol
 _atom_site_label
 _atom_site_symmetry_multiplicity
 _atom_site_fract_x
 _atom_site_fract_y
 _atom_site_fract_z
 _atom_site_occupancy
  In  In0  1  -0.02004237  0.14305627  0.10242748  1
  In  In1  1  -0.01440627  0.17823674  0.63710292  1
  In  In2  1  -0.00720774  0.48542491  0.10567341  1
  In  In3  1  -0.04592673  0.53342083  0.67373793  1
  In  In4  1  -0.00235543  0.84351889  0.12293686  1
  In  In5  1  0.00363846  0.83364647  0.62510700  1
  In  In6  1  0.31962221  0.16475912  0.12532683  1
  In  In7  1  0.33079319  0.16408271  0.62672210  1
  In  In8  1  0.34204266  0.50921113  0.11265747  1
  In  In9  1  0.34521353  0.50711228  0.62447031  1
  In  In10  1  0.33927865  0.81772638  0.13558770  1
  In  In11  1  0.31673223  0.82726572  0.61817217  1
  In  In12  1  0.67744870  0.16222464  0.11665454  1
  In  In13  1  0.66823179  0.16296014  0.63660310  1
  In  In14  1  0.67274697  0.51626806  0.10935780  1
  In  In15  1  0.67400464  0.51310799  0.63577278  1
  In  In16  1  0.65438504  0.81634111  0.10309154  1
  In  In17  1  0.68480735  0.81126756  0.63871120  1
  In  In18  1  0.15299614  -0.01397813  0.36375144  1
  In  In19  1  0.16276033  0.01132951  0.88105796  1
  In  In20  1  0.15739151  0.33347248  0.37777862  1
  In  In21  1  0.13360071  0.35632084  0.90300768  1
  In  In22  1  0.18253785  0.66744799  0.37559886  1
  In  In23  1  0.15526126  0.65630289  0.86302493  1
  In  In24  1  0.50039532  0.00646444  0.36997531  1
  In  In25  1  0.50523762  -0.01750832  0.88085024  1
  In  In26  1  0.51711740  0.34576519  0.37527949  1
  In  In27  1  0.52262399  0.34824470  0.86440454  1
  In  In28  1  0.49034394  0.65927886  0.37290211  1
  In  In29  1  0.50686331  0.66834095  0.87094476  1
  In  In30  1  0.83088994  -0.01161712  0.37177382  1
  In  In31  1  0.83641412  -0.00051791  0.87282992  1
  In  In32  1  0.84041991  0.34231374  0.37737245  1
  In  In33  1  0.83517545  0.34220354  0.87821987  1
  In  In34  1  0.82619779  0.67373473  0.37875902  1
  In  In35  1  0.83103757  0.65853405  0.87327448  1
  In  In36  1  0.00902399  0.17119424  0.37431289  1
  In  In37  1  0.00089635  0.16900241  0.87839055  1
  In  In38  1  -0.00518904  0.49712706  0.38108492  1
  In  In39  1  -0.00870270  0.49945566  0.87096587  1
  In  In40  1  -0.01533947  0.83912423  0.38276770  1
  In  In41  1  -0.01661919  0.81651688  0.86069922  1
  In  In42  1  0.34582996  0.16113105  0.36932043  1
  In  In43  1  0.32542487  0.16251425  0.88224099  1
  In  In44  1  0.33821407  0.52611827  0.37567436  1
  In  In45  1  0.33577565  0.50830477  0.87149845  1
  In  In46  1  0.32575144  0.82231598  0.36741723  1
  In  In47  1  0.34813418  0.82892077  0.87934376  1
  In  In48  1  0.66510864  0.16041922  0.37718264  1
  In  In49  1  0.68720428  0.18208442  0.86898350  1
  In  In50  1  0.65519972  0.50985104  0.38241977  1
  In  In51  1  0.67468738  0.51012454  0.87332456  1
  In  In52  1  0.68535982  0.82694163  0.37819443  1
  In  In53  1  0.66617768  0.83021271  0.87433707  1
  In  In54  1  0.15468144  0.00306955  0.13271266  1
  In  In55  1  0.16718933  -0.01351524  0.62269790  1
  In  In56  1  0.15608319  0.32328212  0.10469900  1
  In  In57  1  0.15500164  0.33061018  0.62876300  1
  In  In58  1  0.17495385  0.66493199  0.12338754  1
  In  In59  1  0.16048905  0.67294104  0.63175729  1
  In  In60  1  0.50390474  -0.01924917  0.12423071  1
  In  In61  1  0.50117772  0.00482851  0.62578237  1
  In  In62  1  0.48907691  0.34613253  0.11954773  1
  In  In63  1  0.51149876  0.36372312  0.63592139  1
  In  In64  1  0.49698645  0.66554425  0.12112217  1
  In  In65  1  0.50940660  0.65121508  0.64043257  1
  In  In66  1  0.83950013  -0.00139085  0.11649717  1
  In  In67  1  0.84481019  -0.01204217  0.63580806  1
  In  In68  1  0.83378202  0.32381237  0.11377824  1
  In  In69  1  0.80392521  0.36636468  0.66026342  1
  In  In70  1  0.82061702  0.65868405  0.11186018  1
  In  In71  1  0.83459652  0.66938914  0.62623189  1
  In  In72  1  -0.00283012  0.32534166  0.24202274  1
  In  In73  1  0.50307458  0.82619598  0.50579118  1
  In  In74  1  0.16508558  0.16534389  0.49983815  1
  In  In75  1  0.32677280  0.34000106  0.24654687  1
  In  In76  1  0.33208194  -0.00752869  0.74909634  1
  In  In77  1  0.16673865  0.83313498  0.00312946  1
  In  In78  1  0.83385981  0.17173581  0.49831244  1
  In  In79  1  0.33301477  0.32838026  0.75499689  1
  In  In80  1  0.67029856  0.33521812  0.23677117  1
  In  In81  1  0.50431328  0.17348941  -0.00337978  1
  In  In82  1  0.15860678  0.50554669  0.50838480  1
  In  In83  1  0.00266075  0.66690613  0.24893164  1
  In  In84  1  0.67423153  -0.00936769  0.24804675  1
  In  In85  1  0.50178855  0.17648867  0.49967936  1
  Cu  Cu86  1  0.33681604  0.33911739  -0.00641532  1
  Cu  Cu87  1  0.67208059  0.34262741  -0.00766582  1
  Cu  Cu88  1  0.50005724  0.16058715  0.24623533  1
  Cu  Cu89  1  0.83165638  0.82964122  0.24713396  1
  Cu  Cu90  1  0.00206461  -0.00229234  0.50405475  1
  Cu  Cu91  1  0.16582078  0.83439734  0.25010604  1
  Cu  Cu92  1  0.67155793  0.66171597  0.50719467  1
  Cu  Cu93  1  -0.01869199  0.35009838  0.51316233  1
  Cu  Cu94  1  0.32895335  -0.00766684  0.49113281  1
  Cu  Cu95  1  0.16349197  0.15500236  0.24806768  1
  Cu  Cu96  1  0.16815479  0.49896128  0.24159921  1
  Cu  Cu97  1  -0.00265643  -0.00785200  -0.00747160  1
  Cu  Cu98  1  0.15601514  0.16763870  0.75827451  1
  Cu  Cu99  1  0.33433943  0.66871366  -0.00251895  1
  Cu  Cu100  1  0.49780598  0.15965563  0.75219300  1
  Cu  Cu101  1  0.67670625  -0.01024317  0.50909548  1
  Cu  Cu102  1  0.82264551  0.50498256  0.24460243  1
  Cu  Cu103  1  -0.00532972  0.66308989  -0.00917552  1
  Cu  Cu104  1  0.33509343  0.34960688  0.50069375  1
  Cu  Cu105  1  0.50343107  0.82588354  0.24611651  1
  Cu  Cu106  1  0.33449796  -0.00231974  0.00974417  1
  Cu  Cu107  1  0.67505532  0.00160810  -0.00602099  1
  Cu  Cu108  1  0.16398523  0.83754483  0.74973702  1
  Cu  Cu109  1  0.50405595  0.82876534  0.75353206  1
  Cu  Cu110  1  0.83633719  0.16278904  0.75857363  1
  Cu  Cu111  1  0.66998413  0.34747330  0.51135846  1
  Cu  Cu112  1  0.49695248  0.51287058  0.24706638  1
  Cu  Cu113  1  0.83099931  0.83635569  0.75198065  1
  Cu  Cu114  1  0.16831016  0.49643120  0.75591275  1
  Se  Se115  1  0.08647506  0.06970444  0.04803752  1
  Se  Se116  1  0.07390749  0.08464459  0.56461271  1
  Se  Se117  1  0.09518064  0.42500267  0.04158349  1
  Se  Se118  1  0.06865344  0.42291578  0.57068489  1
  Se  Se119  1  0.07178969  0.73936093  0.05833639  1
  Se  Se120  1  0.10035785  0.76493142  0.55878549  1
  Se  Se121  1  0.41971137  0.08256656  0.06242300  1
  Se  Se122  1  0.40589742  0.07531904  0.55145715  1
  Se  Se123  1  0.42157632  0.42451445  0.04231593  1
  Se  Se124  1  0.42454130  0.41985413  0.55665568  1
  Se  Se125  1  0.41325325  0.75303632  0.05375120  1
  Se  Se126  1  0.41904658  0.73895611  0.56926453  1
  Se  Se127  1  0.75830338  0.08426832  0.04695756  1
  Se  Se128  1  0.75165795  0.07968712  0.56362393  1
  Se  Se129  1  0.75473377  0.41829083  0.05296907  1
  Se  Se130  1  0.75545591  0.42469693  0.56575131  1
  Se  Se131  1  0.75244158  0.74815446  0.04034089  1
  Se  Se132  1  0.75456223  0.75116294  0.55315969  1
  Se  Se133  1  0.26074751  0.25005024  0.04757930  1
  Se  Se134  1  0.25863325  0.26131881  0.55695678  1
  Se  Se135  1  0.24733979  0.58567466  0.04804732  1
  Se  Se136  1  0.25611639  0.59283406  0.56101620  1
  Se  Se137  1  0.25431729  0.91701153  0.06953857  1
  Se  Se138  1  0.24459648  0.91409676  0.54609601  1
  Se  Se139  1  0.59376845  0.26501467  0.05862900  1
  Se  Se140  1  0.59026580  0.25813134  0.56603242  1
  Se  Se141  1  0.56577791  0.57480704  0.05036532  1
  Se  Se142  1  0.58685651  0.58230497  0.56098663  1
  Se  Se143  1  0.58486319  0.92187129  0.04420247  1
  Se  Se144  1  0.59339000  0.91334435  0.56808756  1
  Se  Se145  1  0.94576714  0.27023999  0.05577372  1
  Se  Se146  1  0.90352112  0.26364687  0.56824858  1
  Se  Se147  1  0.91228189  0.58015523  0.04701411  1
  Se  Se148  1  0.92782003  0.57988037  0.57150835  1
  Se  Se149  1  0.91436066  0.90929387  0.04659024  1
  Se  Se150  1  0.91656294  0.91631795  0.55566731  1
  Se  Se151  1  0.06468050  0.26673041  0.45455111  1
  Se  Se152  1  0.10873349  0.22382209  0.94311508  1
  Se  Se153  1  0.07862501  0.59376804  0.43904838  1
  Se  Se154  1  0.08082484  0.58205408  0.93981080  1
  Se  Se155  1  0.08192095  0.91735357  0.44516449  1
  Se  Se156  1  0.07585477  0.90800203  0.93413052  1
  Se  Se157  1  0.40998169  0.26659156  0.43773984  1
  Se  Se158  1  0.41974798  0.26248900  0.93206697  1
  Se  Se159  1  0.42744651  0.57881137  0.45186919  1
  Se  Se160  1  0.41821155  0.58929641  0.94127513  1
  Se  Se161  1  0.42004827  0.91724984  0.43777624  1
  Se  Se162  1  0.41418686  0.91702602  0.95312105  1
  Se  Se163  1  0.73587382  0.26428066  0.44237622  1
  Se  Se164  1  0.75772060  0.25193500  0.94977299  1
  Se  Se165  1  0.75143091  0.58182134  0.44683739  1
  Se  Se166  1  0.74456669  0.59315101  0.94900080  1
  Se  Se167  1  0.75862111  0.91319198  0.45002388  1
  Se  Se168  1  0.75334009  0.91520086  0.94050891  1
  Se  Se169  1  0.25202649  0.07852638  0.43297939  1
  Se  Se170  1  0.25208957  0.07774719  0.95447533  1
  Se  Se171  1  0.24952362  0.41933445  0.43850561  1
  Se  Se172  1  0.25530026  0.42343776  0.94120680  1
  Se  Se173  1  0.26361427  0.74400317  0.44700400  1
  Se  Se174  1  0.24772214  0.74291739  0.93711854  1
  Se  Se175  1  0.59232957  0.06962389  0.45090443  1
  Se  Se176  1  0.59202576  0.08436130  0.93586624  1
  Se  Se177  1  0.58191500  0.42244904  0.45464195  1
  Se  Se178  1  0.58695227  0.42558449  0.94365265  1
  Se  Se179  1  0.59348852  0.74127215  0.44260590  1
  Se  Se180  1  0.56164776  0.77202988  0.93908577  1
  Se  Se181  1  0.92513060  0.07830516  0.44004495  1
  Se  Se182  1  0.91609115  0.08252236  0.94499371  1
  Se  Se183  1  0.90388887  0.42928126  0.45225191  1
  Se  Se184  1  0.92738810  0.41254574  0.94699239  1
  Se  Se185  1  0.91770698  0.74263193  0.44651910  1
  Se  Se186  1  0.91203871  0.74920511  0.94167534  1
  Se  Se187  1  0.24000263  0.24195134  0.30848272  1
  Se  Se188  1  0.23992990  0.24672561  0.81558502  1
  Se  Se189  1  0.24775100  0.58156250  0.29859584  1
  Se  Se190  1  0.25419754  0.58547412  0.79927154  1
  Se  Se191  1  0.25385154  0.91742059  0.30110410  1
  Se  Se192  1  0.24366820  0.91042904  0.81640026  1
  Se  Se193  1  0.58021810  0.24282018  0.30385658  1
  Se  Se194  1  0.58294169  0.24261053  0.80358551  1
  Se  Se195  1  0.58438056  0.58722717  0.30412352  1
  Se  Se196  1  0.59160401  0.58950890  0.80246855  1
  Se  Se197  1  0.58151686  0.90414211  0.31095100  1
  Se  Se198  1  0.58468306  0.91735317  0.80274478  1
  Se  Se199  1  0.90617515  0.24262205  0.30959667  1
  Se  Se200  1  0.91536973  0.25037637  0.81125090  1
  Se  Se201  1  0.90995354  0.57534369  0.30652848  1
  Se  Se202  1  0.91504515  0.58262117  0.79919132  1
  Se  Se203  1  0.91477622  0.91228822  0.30064836  1
  Se  Se204  1  0.91919034  0.92170101  0.79955970  1
  Se  Se205  1  0.07382715  0.08083401  0.30207538  1
  Se  Se206  1  0.07696110  0.07768267  0.80696055  1
  Se  Se207  1  0.08562523  0.42367795  0.30351301  1
  Se  Se208  1  0.08474781  0.41362475  0.80840334  1
  Se  Se209  1  0.08696454  0.75543854  0.31309843  1
  Se  Se210  1  0.08033500  0.74709738  0.79573643  1
  Se  Se211  1  0.41559587  0.07605111  0.29583294  1
  Se  Se212  1  0.41882325  0.08171518  0.81314382  1
  Se  Se213  1  0.42303988  0.42450303  0.30721481  1
  Se  Se214  1  0.42677860  0.42657205  0.80035263  1
  Se  Se215  1  0.41793477  0.74644910  0.30158283  1
  Se  Se216  1  0.41409649  0.74885204  0.80248607  1
  Se  Se217  1  0.75751045  0.09055588  0.30690069  1
  Se  Se218  1  0.74675075  0.07754116  0.80445071  1
  Se  Se219  1  0.74882590  0.42236155  0.30803330  1
  Se  Se220  1  0.74020451  0.40749559  0.80897779  1
  Se  Se221  1  0.74929311  0.74503905  0.29976530  1
  Se  Se222  1  0.75214169  0.75013720  0.80599961  1
  Se  Se223  1  0.25278441  0.07593061  0.19753485  1
  Se  Se224  1  0.23751127  0.09050369  0.69572762  1
  Se  Se225  1  0.24148248  0.41870720  0.17669707  1
  Se  Se226  1  0.24657405  0.41930938  0.69020019  1
  Se  Se227  1  0.24456742  0.74380990  0.20068724  1
  Se  Se228  1  0.25019443  0.75387638  0.69962010  1
  Se  Se229  1  0.58376848  0.08501143  0.18688921  1
  Se  Se230  1  0.58168545  0.07628398  0.69981788  1
  Se  Se231  1  0.57462759  0.42898613  0.18781082  1
  Se  Se232  1  0.61257452  0.40931101  0.70507841  1
  Se  Se233  1  0.58533548  0.74962841  0.18750341  1
  Se  Se234  1  0.58955257  0.74176795  0.70507759  1
  Se  Se235  1  0.91543154  0.08169400  0.18820696  1
  Se  Se236  1  0.91854541  0.08092198  0.70250378  1
  Se  Se237  1  0.90504931  0.42249337  0.18873898  1
  Se  Se238  1  0.93572376  0.39366020  0.70317960  1
  Se  Se239  1  0.90987734  0.74893735  0.18508689  1
  Se  Se240  1  0.91506503  0.75908451  0.69461121  1
  Se  Se241  1  0.09163468  0.23931188  0.18529486  1
  Se  Se242  1  0.07874711  0.25354586  0.70314526  1
  Se  Se243  1  0.07962346  0.57137934  0.18226506  1
  Se  Se244  1  0.08919560  0.58329849  0.70259441  1
  Se  Se245  1  0.07670188  0.91397059  0.19976859  1
  Se  Se246  1  0.08193148  0.92214824  0.69747306  1
  Se  Se247  1  0.42148580  0.24580170  0.18989816  1
  Se  Se248  1  0.42739502  0.24413997  0.68799646  1
  Se  Se249  1  0.40857181  0.58784921  0.19238693  1
  Se  Se250  1  0.41296451  0.57870666  0.70437207  1
  Se  Se251  1  0.41887539  0.91316862  0.19828681  1
  Se  Se252  1  0.42219366  0.90391818  0.68788921  1
  Se  Se253  1  0.76375203  0.23566494  0.19193472  1
  Se  Se254  1  0.74906964  0.24311842  0.70610587  1
  Se  Se255  1  0.74273388  0.58857677  0.19103531  1
  Se  Se256  1  0.76638743  0.58528896  0.70329835  1
  Se  Se257  1  0.75150326  0.90224931  0.18041521  1
  Se  Se258  1  0.74416758  0.92033443  0.69959441  1
