# generated using pymatgen
data_In86Cu29Se144
_symmetry_space_group_name_H-M   'P 1'
_cell_length_a   17.55949705
_cell_length_b   17.55975926
_cell_length_c   23.41347113
_cell_angle_alpha   90.00340305
_cell_angle_beta   89.99377354
_cell_angle_gamma   90.00438405
_symmetry_Int_Tables_number   1
_chemical_formula_structural   In86Cu29Se144
_chemical_formula_sum   'In86 Cu29 Se144'
_cell_volume   7219.32227637
_cell_formula_units_Z   1
loop_
 _symmetry_equiv_pos_site_id
 _symmetry_equiv_pos_as_xyz
  1  'x, y, z'
loop_
 _atom_site_type_symbol
 _atom_site_label
 _atom_site_symmetry_multiplicity
 _atom_site_fract_x
 _atom_site_fract_y
 _atom_site_fract_z
 _atom_site_occupancy
  In  In0  1  -0.01106049  0.15990445  0.11124802  1
  In  In1  1  0.00214732  0.16547486  0.62430247  1
  In  In2  1  -0.00748937  0.48301006  0.09729866  1
  In  In3  1  0.00146194  0.49516762  0.64160505  1
  In  In4  1  0.00882579  0.84368769  0.11946369  1
  In  In5  1  0.00156290  0.83482060  0.61976415  1
  In  In6  1  0.31953753  0.15707744  0.11675341  1
  In  In7  1  0.31400491  0.17682557  0.63274085  1
  In  In8  1  0.33234489  0.48139224  0.10698199  1
  In  In9  1  0.33157088  0.48782670  0.62923136  1
  In  In10  1  0.32909530  0.84498074  0.12367182  1
  In  In11  1  0.33770761  0.84284898  0.62340618  1
  In  In12  1  0.68303001  0.15562485  0.13459167  1
  In  In13  1  0.67017520  0.15136270  0.62425254  1
  In  In14  1  0.65109072  0.49351730  0.11468685  1
  In  In15  1  0.66728340  0.51294547  0.62514841  1
  In  In16  1  0.68341023  0.84151349  0.12090409  1
  In  In17  1  0.67270430  0.84120190  0.61438449  1
  In  In18  1  0.16267656  -0.00229107  0.37584165  1
  In  In19  1  0.16736859  0.00588799  0.87758708  1
  In  In20  1  0.14992533  0.32557699  0.37258405  1
  In  In21  1  0.16314017  0.32579706  0.88047986  1
  In  In22  1  0.17093591  0.67469820  0.37384971  1
  In  In23  1  0.15787310  0.68249905  0.87737009  1
  In  In24  1  0.48955964  -0.00644520  0.36630191  1
  In  In25  1  0.49296826  0.00788373  0.87603687  1
  In  In26  1  0.51212923  0.32927335  0.37470798  1
  In  In27  1  0.49781386  0.34241498  0.87604377  1
  In  In28  1  0.49632058  0.66518893  0.38253841  1
  In  In29  1  0.49171976  0.65475842  0.87276144  1
  In  In30  1  0.83198595  0.00482445  0.37513093  1
  In  In31  1  0.84469009  -0.01646766  0.89212159  1
  In  In32  1  0.82754800  0.32813543  0.36953845  1
  In  In33  1  0.86409627  0.31603358  0.90069955  1
  In  In34  1  0.84632656  0.68608564  0.37600868  1
  In  In35  1  0.84856604  0.65427866  0.88882979  1
  In  In36  1  0.02139836  0.14021665  0.40047973  1
  In  In37  1  0.00575567  0.16380216  0.87853420  1
  In  In38  1  0.00626860  0.50168884  0.37377036  1
  In  In39  1  0.00141491  0.49856563  0.87989103  1
  In  In40  1  -0.02787452  0.86426629  0.41337293  1
  In  In41  1  0.00159405  0.83929027  0.86958321  1
  In  In42  1  0.33536796  0.15523637  0.37319905  1
  In  In43  1  0.31287136  0.15057031  0.87452000  1
  In  In44  1  0.33239093  0.51704336  0.37359996  1
  In  In45  1  0.33694462  0.48088688  0.88733800  1
  In  In46  1  0.31827409  0.85374328  0.38649199  1
  In  In47  1  0.31702815  0.84032074  0.87755371  1
  In  In48  1  0.67923045  0.17597884  0.36632034  1
  In  In49  1  0.67393623  0.16955986  0.88235944  1
  In  In50  1  0.66796236  0.48422948  0.37147844  1
  In  In51  1  0.67584382  0.50047984  0.89011911  1
  In  In52  1  0.65592243  0.83531336  0.37527379  1
  In  In53  1  0.68738074  0.83694543  0.88417464  1
  In  In54  1  0.16518112  -0.00384785  0.12420611  1
  In  In55  1  0.15742667  0.00572041  0.62246936  1
  In  In56  1  0.14760873  0.30625902  0.08229288  1
  In  In57  1  0.16648666  0.32880748  0.63426415  1
  In  In58  1  0.16259330  0.66657876  0.11650952  1
  In  In59  1  0.14579547  0.67048701  0.62861786  1
  In  In60  1  0.49714432  0.00368338  0.13527319  1
  In  In61  1  0.50135240  -0.00893869  0.62394326  1
  In  In62  1  0.49949084  0.34543974  0.12187297  1
  In  In63  1  0.48078169  0.32865937  0.62459797  1
  In  In64  1  0.50783711  0.65108482  0.12298241  1
  In  In65  1  0.50777019  0.67196461  0.61839935  1
  In  In66  1  0.84119843  0.00264540  0.12283123  1
  In  In67  1  0.85698185  0.01639426  0.60331075  1
  In  In68  1  0.82839336  0.31862606  0.11327124  1
  In  In69  1  0.84634284  0.33500563  0.63229088  1
  In  In70  1  0.82875539  0.68022733  0.11121294  1
  In  In71  1  0.84150987  0.67360458  0.62339654  1
  In  In72  1  0.50368702  0.82497646  0.00542223  1
  In  In73  1  0.67189360  -0.00082586  0.75030919  1
  In  In74  1  0.33320656  0.33149406  0.23631413  1
  In  In75  1  -0.01292282  0.31533358  0.23542214  1
  In  In76  1  0.33415135  0.67340148  0.24501068  1
  In  In77  1  0.17256875  0.50619981  0.50174599  1
  In  In78  1  0.32394829  0.66458982  0.75485670  1
  In  In79  1  0.67548273  0.66652904  0.75345221  1
  In  In80  1  0.00726358  0.67281325  0.25233570  1
  In  In81  1  0.67030870  0.33580878  0.76078724  1
  In  In82  1  0.49838015  0.16725203  0.00274386  1
  In  In83  1  0.50169172  0.16251238  0.49749493  1
  In  In84  1  0.66319173  0.67042922  0.23993281  1
  In  In85  1  0.83064320  0.50198208  0.49891285  1
  Cu  Cu86  1  0.33032610  0.34065065  0.50420905  1
  Cu  Cu87  1  0.34098900  0.66850886  0.50347029  1
  Cu  Cu88  1  0.00071646  0.32608945  0.50597006  1
  Cu  Cu89  1  0.49411651  0.49266912  0.74852309  1
  Cu  Cu90  1  0.50015683  0.83973689  0.74950249  1
  Cu  Cu91  1  0.16744565  0.49330889  0.76005417  1
  Cu  Cu92  1  0.50868917  0.16981858  0.24979075  1
  Cu  Cu93  1  0.50272065  0.49138043  0.24817498  1
  Cu  Cu94  1  0.49401709  0.83789384  0.25213081  1
  Cu  Cu95  1  0.00429308  -0.00319550  -0.00165312  1
  Cu  Cu96  1  0.84732993  0.83821403  0.74568699  1
  Cu  Cu97  1  -0.00215276  0.67846896  -0.00407683  1
  Cu  Cu98  1  0.66298024  0.66291383  0.49758047  1
  Cu  Cu99  1  0.84844255  0.49616093  0.76542838  1
  Cu  Cu100  1  0.66745759  -0.00164099  0.49370565  1
  Cu  Cu101  1  0.15752810  0.84800452  0.25495003  1
  Cu  Cu102  1  0.16485848  0.15886390  0.24741607  1
  Cu  Cu103  1  0.84227630  0.16497692  0.75402775  1
  Cu  Cu104  1  0.84285848  0.84504379  0.25124266  1
  Cu  Cu105  1  0.15989693  0.49174989  0.23159469  1
  Cu  Cu106  1  0.66265368  0.33497818  0.49519303  1
  Cu  Cu107  1  0.16171073  0.84503327  0.74949055  1
  Cu  Cu108  1  0.67144252  0.32888418  0.00201587  1
  Cu  Cu109  1  0.47923683  0.16799147  0.75390313  1
  Cu  Cu110  1  0.84631736  0.16076471  0.24933801  1
  Cu  Cu111  1  0.82659172  0.49969141  0.24542165  1
  Cu  Cu112  1  0.33216783  0.66102711  -0.00636089  1
  Cu  Cu113  1  0.32859385  0.00684813  0.50030763  1
  Cu  Cu114  1  0.15592600  0.16379487  0.75290997  1
  Se  Se115  1  0.08654663  0.08136327  0.05231343  1
  Se  Se116  1  0.07174384  0.07967147  0.55083998  1
  Se  Se117  1  0.10658624  0.43413695  0.03748142  1
  Se  Se118  1  0.07937883  0.41612167  0.56111018  1
  Se  Se119  1  0.08560746  0.75649833  0.05056838  1
  Se  Se120  1  0.09520356  0.76018508  0.55233648  1
  Se  Se121  1  0.41087864  0.06702324  0.05559062  1
  Se  Se122  1  0.40803756  0.08542391  0.56372898  1
  Se  Se123  1  0.42258477  0.40613460  0.04109300  1
  Se  Se124  1  0.41796450  0.42238254  0.55283810  1
  Se  Se125  1  0.40639717  0.73635474  0.06348585  1
  Se  Se126  1  0.42061043  0.75661753  0.55601525  1
  Se  Se127  1  0.76758642  0.09724062  0.05667835  1
  Se  Se128  1  0.74826898  0.08539736  0.54635002  1
  Se  Se129  1  0.75132043  0.41786976  0.05445358  1
  Se  Se130  1  0.74352580  0.40943780  0.56196766  1
  Se  Se131  1  0.73283606  0.74834522  0.04544867  1
  Se  Se132  1  0.74704555  0.74064073  0.55473657  1
  Se  Se133  1  0.27613274  0.25845559  0.04538040  1
  Se  Se134  1  0.24601309  0.25821966  0.55560392  1
  Se  Se135  1  0.25046533  0.58227925  0.05289004  1
  Se  Se136  1  0.25861079  0.59480386  0.56783838  1
  Se  Se137  1  0.23656909  0.90547303  0.05336080  1
  Se  Se138  1  0.25017029  0.92303234  0.55792686  1
  Se  Se139  1  0.59392352  0.24897636  0.06570806  1
  Se  Se140  1  0.58747615  0.25402458  0.56103950  1
  Se  Se141  1  0.57926071  0.58124345  0.04438334  1
  Se  Se142  1  0.58093366  0.57887773  0.55077310  1
  Se  Se143  1  0.58480612  0.92605189  0.06232468  1
  Se  Se144  1  0.58154687  0.91915386  0.54851510  1
  Se  Se145  1  0.94589097  0.27940300  0.05377629  1
  Se  Se146  1  0.91074446  0.24947810  0.55767514  1
  Se  Se147  1  0.91677014  0.59342303  0.04990819  1
  Se  Se148  1  0.92820323  0.57780396  0.56163115  1
  Se  Se149  1  0.91636420  0.91519774  0.05115754  1
  Se  Se150  1  0.90370194  0.89838101  0.54941869  1
  Se  Se151  1  0.09242608  0.24861710  0.45559927  1
  Se  Se152  1  0.08112498  0.24657995  0.95202987  1
  Se  Se153  1  0.07714819  0.59323925  0.44394336  1
  Se  Se154  1  0.08050502  0.59323144  0.94388189  1
  Se  Se155  1  0.10447697  0.90244870  0.44913669  1
  Se  Se156  1  0.08588823  0.91427427  0.94252256  1
  Se  Se157  1  0.40899747  0.25824457  0.44183853  1
  Se  Se158  1  0.41296330  0.24452504  0.93253449  1
  Se  Se159  1  0.41748328  0.57807821  0.45106951  1
  Se  Se160  1  0.41931053  0.57564700  0.94752817  1
  Se  Se161  1  0.41821048  0.92540886  0.44922627  1
  Se  Se162  1  0.41351277  0.91638797  0.94491848  1
  Se  Se163  1  0.74951058  0.25309402  0.44584489  1
  Se  Se164  1  0.75751693  0.24237250  0.95536040  1
  Se  Se165  1  0.74469981  0.59127232  0.43176934  1
  Se  Se166  1  0.73840547  0.60367019  0.95064561  1
  Se  Se167  1  0.74824612  0.91243336  0.43975546  1
  Se  Se168  1  0.74025821  0.92944973  0.95800651  1
  Se  Se169  1  0.24695133  0.08713487  0.44388595  1
  Se  Se170  1  0.24862105  0.07633033  0.95511154  1
  Se  Se171  1  0.25218808  0.41252170  0.43422326  1
  Se  Se172  1  0.23266107  0.42037749  0.95059967  1
  Se  Se173  1  0.25549693  0.74581354  0.44673923  1
  Se  Se174  1  0.24900464  0.75127382  0.94914251  1
  Se  Se175  1  0.58957274  0.07981873  0.43172146  1
  Se  Se176  1  0.59125912  0.07384642  0.94553498  1
  Se  Se177  1  0.57933275  0.42091205  0.44677378  1
  Se  Se178  1  0.58729659  0.41005292  0.94767875  1
  Se  Se179  1  0.57983202  0.75100431  0.44716272  1
  Se  Se180  1  0.58363375  0.74410349  0.93268746  1
  Se  Se181  1  0.90702181  0.08326976  0.45142808  1
  Se  Se182  1  0.91954304  0.08489060  0.94968769  1
  Se  Se183  1  0.92534089  0.40780728  0.44136239  1
  Se  Se184  1  0.89665365  0.44346516  0.94757662  1
  Se  Se185  1  0.92583559  0.73719511  0.45775841  1
  Se  Se186  1  0.91505047  0.76467281  0.94319279  1
  Se  Se187  1  0.24393050  0.24583738  0.30463249  1
  Se  Se188  1  0.24202407  0.24508416  0.80689423  1
  Se  Se189  1  0.23537811  0.57458177  0.29611740  1
  Se  Se190  1  0.24486284  0.57478632  0.82076521  1
  Se  Se191  1  0.25280445  0.92493181  0.30345783  1
  Se  Se192  1  0.24858224  0.92367643  0.80309167  1
  Se  Se193  1  0.59052995  0.25702039  0.29957817  1
  Se  Se194  1  0.57400962  0.23772228  0.81070353  1
  Se  Se195  1  0.57719488  0.58091394  0.30613342  1
  Se  Se196  1  0.58216446  0.56873542  0.80647149  1
  Se  Se197  1  0.58459500  0.91850851  0.30121042  1
  Se  Se198  1  0.58369744  0.91018148  0.81438040  1
  Se  Se199  1  0.92428717  0.23506957  0.31716813  1
  Se  Se200  1  0.91979074  0.25053058  0.81078886  1
  Se  Se201  1  0.90731261  0.57731156  0.30654799  1
  Se  Se202  1  0.92758010  0.59183876  0.80843997  1
  Se  Se203  1  0.92424120  0.91609431  0.31555711  1
  Se  Se204  1  0.91683162  0.92816528  0.80455348  1
  Se  Se205  1  0.08081606  0.08490970  0.30784388  1
  Se  Se206  1  0.07673824  0.07649679  0.80554982  1
  Se  Se207  1  0.07881141  0.41542629  0.29597785  1
  Se  Se208  1  0.08046396  0.41165181  0.81141548  1
  Se  Se209  1  0.08146629  0.76745049  0.31744709  1
  Se  Se210  1  0.08205285  0.75414484  0.79934329  1
  Se  Se211  1  0.41819655  0.08764092  0.29809376  1
  Se  Se212  1  0.40427712  0.07591318  0.80429877  1
  Se  Se213  1  0.41506146  0.41881839  0.30883917  1
  Se  Se214  1  0.41021625  0.41377803  0.80364599  1
  Se  Se215  1  0.41570812  0.75838660  0.31474285  1
  Se  Se216  1  0.41976061  0.75831553  0.80938657  1
  Se  Se217  1  0.75337752  0.08292893  0.30026887  1
  Se  Se218  1  0.75990961  0.08614507  0.81349098  1
  Se  Se219  1  0.74914778  0.41037190  0.29757756  1
  Se  Se220  1  0.76357150  0.41705119  0.82246182  1
  Se  Se221  1  0.75662650  0.75802071  0.30268546  1
  Se  Se222  1  0.76720934  0.75899144  0.80837153  1
  Se  Se223  1  0.25102049  0.07772587  0.19460730  1
  Se  Se224  1  0.24050174  0.08282386  0.69700283  1
  Se  Se225  1  0.23470831  0.40745827  0.17415614  1
  Se  Se226  1  0.24931519  0.41438153  0.70149494  1
  Se  Se227  1  0.23254818  0.76058103  0.19406016  1
  Se  Se228  1  0.24316041  0.75888492  0.69208525  1
  Se  Se229  1  0.58979917  0.08009893  0.20009566  1
  Se  Se230  1  0.56995115  0.09151693  0.69676962  1
  Se  Se231  1  0.58921238  0.41173192  0.19559730  1
  Se  Se232  1  0.58221850  0.41750503  0.68982494  1
  Se  Se233  1  0.57012286  0.76286909  0.18467902  1
  Se  Se234  1  0.58476347  0.75967405  0.69291556  1
  Se  Se235  1  0.92898982  0.08099024  0.19338018  1
  Se  Se236  1  0.91580211  0.08071604  0.69251124  1
  Se  Se237  1  0.91073311  0.42435922  0.18299581  1
  Se  Se238  1  0.92278322  0.40769864  0.70925742  1
  Se  Se239  1  0.91260543  0.75640814  0.18934501  1
  Se  Se240  1  0.92578460  0.74778553  0.69440222  1
  Se  Se241  1  0.09520953  0.24160022  0.18012515  1
  Se  Se242  1  0.07561991  0.25012568  0.69824881  1
  Se  Se243  1  0.07331232  0.57629189  0.18085456  1
  Se  Se244  1  0.08902223  0.57963632  0.70479659  1
  Se  Se245  1  0.07387830  0.92615660  0.19748130  1
  Se  Se246  1  0.07567139  0.92128503  0.69231130  1
  Se  Se247  1  0.42603305  0.23731974  0.18209978  1
  Se  Se248  1  0.40320589  0.25638452  0.70021757  1
  Se  Se249  1  0.41572890  0.56823495  0.18967460  1
  Se  Se250  1  0.42314621  0.58449949  0.69147410  1
  Se  Se251  1  0.40848827  0.91882975  0.19881981  1
  Se  Se252  1  0.41571901  0.92240396  0.69824579  1
  Se  Se253  1  0.76423158  0.24885444  0.19814099  1
  Se  Se254  1  0.75234268  0.23995980  0.69607879  1
  Se  Se255  1  0.75408649  0.58038681  0.18179097  1
  Se  Se256  1  0.76883125  0.57130243  0.69773454  1
  Se  Se257  1  0.75680543  0.92257506  0.19534737  1
  Se  Se258  1  0.76191091  0.91594364  0.68586049  1
