# generated using pymatgen
data_In86Cu29Se144
_symmetry_space_group_name_H-M   'P 1'
_cell_length_a   17.57466773
_cell_length_b   17.57285170
_cell_length_c   23.43459124
_cell_angle_alpha   90.01563541
_cell_angle_beta   89.98723236
_cell_angle_gamma   89.99787021
_symmetry_Int_Tables_number   1
_chemical_formula_structural   In86Cu29Se144
_chemical_formula_sum   'In86 Cu29 Se144'
_cell_volume   7237.46909689
_cell_formula_units_Z   1
loop_
 _symmetry_equiv_pos_site_id
 _symmetry_equiv_pos_as_xyz
  1  'x, y, z'
loop_
 _atom_site_type_symbol
 _atom_site_label
 _atom_site_symmetry_multiplicity
 _atom_site_fract_x
 _atom_site_fract_y
 _atom_site_fract_z
 _atom_site_occupancy
  In  In0  1  0.01209941  0.16413811  0.12467946  1
  In  In1  1  0.01108643  0.17723823  0.62132714  1
  In  In2  1  0.00266307  0.50011229  0.13060693  1
  In  In3  1  -0.01327659  0.49912546  0.62316233  1
  In  In4  1  -0.01619705  0.82818953  0.12227566  1
  In  In5  1  -0.01185620  0.83705201  0.62725847  1
  In  In6  1  0.32987274  0.15637438  0.11667755  1
  In  In7  1  0.33336224  0.17342117  0.62041146  1
  In  In8  1  0.33187717  0.51230640  0.12655628  1
  In  In9  1  0.34033548  0.48916128  0.63027837  1
  In  In10  1  0.33455610  0.83173327  0.12488309  1
  In  In11  1  0.33121180  0.83665800  0.63403283  1
  In  In12  1  0.65747735  0.16619561  0.12057851  1
  In  In13  1  0.67590928  0.17472437  0.62131445  1
  In  In14  1  0.68132119  0.49859031  0.12522061  1
  In  In15  1  0.65486631  0.48991681  0.61638336  1
  In  In16  1  0.65751557  0.82603460  0.12109189  1
  In  In17  1  0.66877603  0.82037267  0.62142334  1
  In  In18  1  0.17843267  0.00238858  0.37371897  1
  In  In19  1  0.19027974  0.00195800  0.88040874  1
  In  In20  1  0.16056873  0.33689793  0.37895880  1
  In  In21  1  0.16572152  0.33396210  0.87603735  1
  In  In22  1  0.16858528  0.65174535  0.35520252  1
  In  In23  1  0.16359815  0.65524792  0.87945796  1
  In  In24  1  0.49316904  0.01020741  0.37764633  1
  In  In25  1  0.47681409  0.03092596  0.90441006  1
  In  In26  1  0.49580498  0.32829420  0.39320143  1
  In  In27  1  0.48764082  0.32366766  0.86211885  1
  In  In28  1  0.49510842  0.66340135  0.36948266  1
  In  In29  1  0.50079759  0.67974747  0.87758456  1
  In  In30  1  0.82983190  0.00710037  0.38052131  1
  In  In31  1  0.82188929  -0.00780382  0.87800673  1
  In  In32  1  0.84243346  0.33248529  0.38142438  1
  In  In33  1  0.84470172  0.34074314  0.86449063  1
  In  In34  1  0.83226210  0.66195948  0.37458999  1
  In  In35  1  0.82517678  0.66681945  0.88562636  1
  In  In36  1  -0.00414242  0.17426404  0.37949853  1
  In  In37  1  0.00143421  0.18289052  0.87348762  1
  In  In38  1  0.00130177  0.48858205  0.36520549  1
  In  In39  1  0.00632931  0.49455198  0.88309369  1
  In  In40  1  0.00300119  0.81902168  0.36729248  1
  In  In41  1  -0.00886541  0.82279145  0.88056101  1
  In  In42  1  0.33704938  0.15500170  0.39135941  1
  In  In43  1  0.32812579  0.17127749  0.87702403  1
  In  In44  1  0.33143777  0.50736155  0.37930296  1
  In  In45  1  0.32513782  0.49035749  0.86949193  1
  In  In46  1  0.33363854  0.83398180  0.36670672  1
  In  In47  1  0.34647799  0.84756305  0.87170919  1
  In  In48  1  0.66475737  0.17608377  0.38316083  1
  In  In49  1  0.64920545  0.16704148  0.87293555  1
  In  In50  1  0.65840896  0.51279838  0.38613410  1
  In  In51  1  0.67830660  0.50170133  0.87572370  1
  In  In52  1  0.67848672  0.82897642  0.37533227  1
  In  In53  1  0.65704264  0.84800287  0.89709008  1
  In  In54  1  0.16624791  0.01611706  0.11611368  1
  In  In55  1  0.17595777  0.01674871  0.62139954  1
  In  In56  1  0.15991024  0.32369186  0.12000392  1
  In  In57  1  0.17928127  0.31799568  0.63621651  1
  In  In58  1  0.17338512  0.65363850  0.13343044  1
  In  In59  1  0.17319479  0.67559555  0.62607908  1
  In  In60  1  0.48384059  -0.02020094  0.10413238  1
  In  In61  1  0.47934145  0.01115966  0.62398282  1
  In  In62  1  0.50384348  0.31466941  0.11619805  1
  In  In63  1  0.50008033  0.33548253  0.62231481  1
  In  In64  1  0.48981956  0.67888024  0.13309026  1
  In  In65  1  0.49683087  0.64660539  0.61905395  1
  In  In66  1  0.84158486  -0.01485030  0.11766315  1
  In  In67  1  0.82621682  -0.00509383  0.61722882  1
  In  In68  1  0.83265042  0.35017368  0.12522285  1
  In  In69  1  0.83512632  0.33560706  0.62757895  1
  In  In70  1  0.83618153  0.66144083  0.13305511  1
  In  In71  1  0.80523072  0.65040388  0.59571426  1
  In  In72  1  0.65785575  -0.00076884  0.25103244  1
  In  In73  1  0.65662120  -0.00076072  0.75895254  1
  In  In74  1  0.16538631  0.83505302  0.49700820  1
  In  In75  1  0.00758130  0.00286566  0.74722292  1
  In  In76  1  0.16337876  0.83727900  0.00154631  1
  In  In77  1  0.16911473  0.49364236  0.49551515  1
  In  In78  1  0.66604200  0.33724523  0.25393769  1
  In  In79  1  0.66251434  0.66493592  0.74834907  1
  In  In80  1  -0.00108086  0.66441894  0.74760607  1
  In  In81  1  0.00533117  -0.00360390  0.24008196  1
  In  In82  1  0.83532374  0.16209833  -0.00336654  1
  In  In83  1  0.32567696  0.34232032  0.25756349  1
  In  In84  1  0.50268932  0.83867197  0.49551659  1
  In  In85  1  0.49812680  0.49778105  -0.00025591  1
  Cu  Cu86  1  0.00052353  0.33371829  0.50315747  1
  Cu  Cu87  1  0.67030786  0.66431222  0.00703090  1
  Cu  Cu88  1  0.83845527  0.17591015  0.25330631  1
  Cu  Cu89  1  0.33091779  0.67076866  0.00417415  1
  Cu  Cu90  1  0.66229045  0.00470261  0.50110737  1
  Cu  Cu91  1  0.17063967  0.16801389  0.24623188  1
  Cu  Cu92  1  0.49582095  0.49825764  0.74415534  1
  Cu  Cu93  1  0.50654127  0.50059095  0.25068915  1
  Cu  Cu94  1  0.83392145  0.49628157  0.75021336  1
  Cu  Cu95  1  0.33589035  0.66771020  0.49538990  1
  Cu  Cu96  1  0.49686250  0.83165280  0.24467143  1
  Cu  Cu97  1  0.83716665  0.50187315  0.25256021  1
  Cu  Cu98  1  0.82901408  0.82377427  0.75138122  1
  Cu  Cu99  1  0.49483654  0.17042457  0.74864451  1
  Cu  Cu100  1  0.83526177  0.17129550  0.74371986  1
  Cu  Cu101  1  0.17536488  0.16973692  0.74980746  1
  Cu  Cu102  1  -0.00125646  0.33841160  -0.00090553  1
  Cu  Cu103  1  0.83400571  0.82780004  0.25169515  1
  Cu  Cu104  1  -0.00604316  0.65822600  0.00599836  1
  Cu  Cu105  1  -0.00662136  0.66798475  0.49182732  1
  Cu  Cu106  1  -0.00703548  0.00012989  0.49950571  1
  Cu  Cu107  1  0.17680354  0.83472305  0.75219728  1
  Cu  Cu108  1  0.48515903  0.16403183  0.25279285  1
  Cu  Cu109  1  0.66630744  0.32961960  -0.00476817  1
  Cu  Cu110  1  0.16569531  0.49552736  0.75617411  1
  Cu  Cu111  1  0.32586200  0.33188233  -0.00477376  1
  Cu  Cu112  1  0.67386900  0.33575811  0.50284903  1
  Cu  Cu113  1  0.17452503  0.83054797  0.24525362  1
  Cu  Cu114  1  0.49154401  0.83538703  0.75389834  1
  Se  Se115  1  0.07234089  0.08075846  0.04771915  1
  Se  Se116  1  0.07790699  0.07942415  0.55422197  1
  Se  Se117  1  0.08110188  0.41754277  0.05715649  1
  Se  Se118  1  0.08308408  0.41147923  0.56433087  1
  Se  Se119  1  0.08050405  0.74007141  0.06164418  1
  Se  Se120  1  0.07193003  0.74341132  0.55711568  1
  Se  Se121  1  0.43709387  0.10102225  0.05367658  1
  Se  Se122  1  0.41851851  0.09564033  0.54790777  1
  Se  Se123  1  0.40679797  0.40692555  0.06039293  1
  Se  Se124  1  0.43087900  0.43286713  0.55579782  1
  Se  Se125  1  0.41854086  0.75259952  0.05330708  1
  Se  Se126  1  0.41102220  0.74907816  0.55884915  1
  Se  Se127  1  0.74665114  0.07476564  0.05949325  1
  Se  Se128  1  0.75093476  0.08614130  0.55157225  1
  Se  Se129  1  0.74700498  0.41403541  0.04868166  1
  Se  Se130  1  0.75719919  0.41977234  0.55575390  1
  Se  Se131  1  0.75438782  0.74515256  0.06248927  1
  Se  Se132  1  0.76025011  0.77117286  0.54514015  1
  Se  Se133  1  0.24799416  0.24609611  0.05254187  1
  Se  Se134  1  0.23739451  0.24452928  0.55361477  1
  Se  Se135  1  0.24813854  0.58317963  0.05209490  1
  Se  Se136  1  0.25519406  0.58890409  0.55726813  1
  Se  Se137  1  0.25938511  0.92685399  0.05506877  1
  Se  Se138  1  0.25811533  0.92119505  0.55641751  1
  Se  Se139  1  0.58382051  0.24052715  0.04153744  1
  Se  Se140  1  0.58752207  0.25299496  0.55492683  1
  Se  Se141  1  0.58323049  0.58586754  0.06526296  1
  Se  Se142  1  0.61338981  0.61027069  0.55989356  1
  Se  Se143  1  0.59837097  0.92282817  0.05215245  1
  Se  Se144  1  0.58561878  0.92657277  0.56505327  1
  Se  Se145  1  0.91849423  0.25645463  0.06012824  1
  Se  Se146  1  0.91583056  0.25104820  0.55701321  1
  Se  Se147  1  0.91167789  0.57555473  0.06108907  1
  Se  Se148  1  0.91759992  0.58037844  0.54709457  1
  Se  Se149  1  0.94030542  0.92831077  0.04977178  1
  Se  Se150  1  0.91331724  0.91259514  0.55130451  1
  Se  Se151  1  0.08333532  0.25143965  0.44842663  1
  Se  Se152  1  0.08321030  0.25308352  0.94844681  1
  Se  Se153  1  0.08259397  0.58998126  0.43746137  1
  Se  Se154  1  0.08277794  0.58092843  0.95281460  1
  Se  Se155  1  0.07230215  0.92243037  0.43563811  1
  Se  Se156  1  0.07946711  0.92214052  0.93278425  1
  Se  Se157  1  0.42501893  0.23404320  0.45752218  1
  Se  Se158  1  0.41755080  0.25474090  0.94406579  1
  Se  Se159  1  0.42224871  0.58334307  0.44664440  1
  Se  Se160  1  0.40855812  0.58860197  0.94020967  1
  Se  Se161  1  0.40171740  0.92378061  0.44347328  1
  Se  Se162  1  0.42041658  0.91211544  0.95247393  1
  Se  Se163  1  0.75619708  0.25122211  0.44872611  1
  Se  Se164  1  0.74917324  0.25308163  0.93307416  1
  Se  Se165  1  0.76110769  0.57721286  0.44799707  1
  Se  Se166  1  0.74951166  0.57745384  0.95400471  1
  Se  Se167  1  0.74418032  0.92294378  0.44485242  1
  Se  Se168  1  0.77462618  0.89590617  0.95149926  1
  Se  Se169  1  0.23388009  0.08686961  0.45186764  1
  Se  Se170  1  0.25847883  0.08660455  0.95225604  1
  Se  Se171  1  0.26710854  0.40228369  0.44541096  1
  Se  Se172  1  0.24502081  0.42097248  0.94654466  1
  Se  Se173  1  0.24990730  0.74020260  0.43480377  1
  Se  Se174  1  0.25398382  0.74943049  0.93883042  1
  Se  Se175  1  0.58138699  0.08605162  0.44527207  1
  Se  Se176  1  0.61464320  0.05547101  0.93788450  1
  Se  Se177  1  0.58575531  0.41657055  0.45111885  1
  Se  Se178  1  0.58410629  0.40988591  0.93523515  1
  Se  Se179  1  0.58888990  0.74288719  0.44019444  1
  Se  Se180  1  0.58318337  0.74494377  0.95465302  1
  Se  Se181  1  0.91391098  0.08907043  0.44704855  1
  Se  Se182  1  0.92414238  0.07768034  0.93221774  1
  Se  Se183  1  0.92554701  0.42111824  0.44612077  1
  Se  Se184  1  0.91061318  0.41705421  0.94585043  1
  Se  Se185  1  0.91399696  0.75498216  0.44013404  1
  Se  Se186  1  0.91355830  0.74509340  0.95347082  1
  Se  Se187  1  0.24693526  0.24011791  0.31448459  1
  Se  Se188  1  0.25283560  0.25699187  0.80541853  1
  Se  Se189  1  0.26416838  0.57378695  0.29647767  1
  Se  Se190  1  0.24689744  0.58483895  0.80520849  1
  Se  Se191  1  0.25023330  0.91856381  0.29991607  1
  Se  Se192  1  0.25739790  0.92310608  0.80190270  1
  Se  Se193  1  0.56942096  0.24583406  0.30907849  1
  Se  Se194  1  0.58527223  0.25229692  0.79687081  1
  Se  Se195  1  0.58812219  0.58411461  0.30439416  1
  Se  Se196  1  0.57295888  0.57497532  0.81078644  1
  Se  Se197  1  0.57128517  0.90739519  0.31346082  1
  Se  Se198  1  0.56896754  0.91050354  0.81841020  1
  Se  Se199  1  0.92231648  0.25733987  0.30509320  1
  Se  Se200  1  0.92160918  0.25185127  0.79638405  1
  Se  Se201  1  0.92148408  0.58509744  0.30531680  1
  Se  Se202  1  0.90841975  0.58066871  0.81242294  1
  Se  Se203  1  0.91068336  0.91760380  0.30743610  1
  Se  Se204  1  0.91309231  0.90892457  0.80409660  1
  Se  Se205  1  0.08555185  0.08775285  0.30625685  1
  Se  Se206  1  0.09486384  0.08943523  0.81118211  1
  Se  Se207  1  0.10595429  0.42649130  0.30345379  1
  Se  Se208  1  0.07824029  0.41521679  0.80703629  1
  Se  Se209  1  0.08812521  0.74780618  0.29564779  1
  Se  Se210  1  0.08947880  0.75704215  0.80789971  1
  Se  Se211  1  0.40419711  0.08177743  0.30723366  1
  Se  Se212  1  0.42082436  0.08833678  0.81193975  1
  Se  Se213  1  0.43184620  0.41894322  0.31378740  1
  Se  Se214  1  0.41094222  0.41622852  0.79825357  1
  Se  Se215  1  0.41485145  0.74801903  0.30068358  1
  Se  Se216  1  0.41162896  0.74638832  0.80512089  1
  Se  Se217  1  0.75121789  0.09586293  0.30676676  1
  Se  Se218  1  0.75859635  0.09191118  0.80671819  1
  Se  Se219  1  0.75498277  0.42375967  0.31489928  1
  Se  Se220  1  0.74607329  0.41567160  0.80180500  1
  Se  Se221  1  0.74941017  0.74427320  0.30260947  1
  Se  Se222  1  0.74351878  0.75567730  0.81479037  1
  Se  Se223  1  0.25049024  0.08220061  0.19296940  1
  Se  Se224  1  0.25802960  0.08695987  0.69559491  1
  Se  Se225  1  0.24237339  0.42022144  0.18636564  1
  Se  Se226  1  0.25051674  0.41593312  0.69947505  1
  Se  Se227  1  0.25831237  0.74532142  0.19411028  1
  Se  Se228  1  0.25560066  0.74494525  0.70099009  1
  Se  Se229  1  0.56944136  0.08923363  0.19164020  1
  Se  Se230  1  0.57829900  0.08948323  0.69028161  1
  Se  Se231  1  0.57458698  0.41689327  0.18502236  1
  Se  Se232  1  0.58396118  0.41617274  0.69526513  1
  Se  Se233  1  0.58752166  0.74842175  0.19941121  1
  Se  Se234  1  0.56827377  0.75573536  0.69062928  1
  Se  Se235  1  0.90598685  0.08940547  0.18927488  1
  Se  Se236  1  0.91102383  0.08460932  0.68615035  1
  Se  Se237  1  0.91785134  0.41488140  0.20028417  1
  Se  Se238  1  0.92099627  0.41526065  0.69907364  1
  Se  Se239  1  0.92095430  0.74639046  0.20106802  1
  Se  Se240  1  0.90051812  0.74343505  0.68668961  1
  Se  Se241  1  0.08177578  0.24983444  0.19806978  1
  Se  Se242  1  0.08127079  0.24905173  0.70254734  1
  Se  Se243  1  0.07504296  0.59093096  0.19921860  1
  Se  Se244  1  0.09239612  0.57434472  0.68870658  1
  Se  Se245  1  0.09545058  0.90658006  0.18073156  1
  Se  Se246  1  0.09625799  0.90874859  0.68718792  1
  Se  Se247  1  0.41258326  0.25031854  0.19239979  1
  Se  Se248  1  0.41561199  0.25393758  0.69199615  1
  Se  Se249  1  0.41955818  0.58149800  0.19853803  1
  Se  Se250  1  0.41194574  0.58655355  0.69701031  1
  Se  Se251  1  0.41796633  0.91958463  0.19171217  1
  Se  Se252  1  0.41457373  0.92326973  0.69900362  1
  Se  Se253  1  0.75241816  0.24590550  0.18956257  1
  Se  Se254  1  0.74755423  0.25561178  0.69675919  1
  Se  Se255  1  0.74766949  0.58111283  0.20155268  1
  Se  Se256  1  0.75549136  0.57796396  0.68897102  1
  Se  Se257  1  0.75500138  0.91212322  0.19352845  1
  Se  Se258  1  0.74850356  0.90990724  0.69512039  1
