# generated using pymatgen
data_In86Cu29Se144
_symmetry_space_group_name_H-M   'P 1'
_cell_length_a   17.58884073
_cell_length_b   17.58828321
_cell_length_c   23.44883331
_cell_angle_alpha   90.00011836
_cell_angle_beta   89.99542756
_cell_angle_gamma   90.00207239
_symmetry_Int_Tables_number   1
_chemical_formula_structural   In86Cu29Se144
_chemical_formula_sum   'In86 Cu29 Se144'
_cell_volume   7254.07270899
_cell_formula_units_Z   1
loop_
 _symmetry_equiv_pos_site_id
 _symmetry_equiv_pos_as_xyz
  1  'x, y, z'
loop_
 _atom_site_type_symbol
 _atom_site_label
 _atom_site_symmetry_multiplicity
 _atom_site_fract_x
 _atom_site_fract_y
 _atom_site_fract_z
 _atom_site_occupancy
  In  In0  1  -0.00094123  0.17215122  0.12848985  1
  In  In1  1  0.01486862  0.15686252  0.62950146  1
  In  In2  1  -0.01590107  0.50852775  0.13151966  1
  In  In3  1  -0.00717477  0.51059724  0.62751792  1
  In  In4  1  -0.00372442  0.83759222  0.12780869  1
  In  In5  1  0.01033217  0.82428037  0.63843636  1
  In  In6  1  0.34465760  0.15402974  0.14193323  1
  In  In7  1  0.33193781  0.16787155  0.61375748  1
  In  In8  1  0.33272462  0.50372239  0.13839295  1
  In  In9  1  0.33274725  0.48834930  0.62133329  1
  In  In10  1  0.33632481  0.82562909  0.14316674  1
  In  In11  1  0.32662363  0.83542316  0.61021427  1
  In  In12  1  0.66130277  0.16183102  0.11834307  1
  In  In13  1  0.65898176  0.17155147  0.62274285  1
  In  In14  1  0.68284001  0.50608507  0.11997536  1
  In  In15  1  0.66960864  0.49860186  0.61440504  1
  In  In16  1  0.66096405  0.82260956  0.11667036  1
  In  In17  1  0.66280809  0.84054578  0.62633668  1
  In  In18  1  0.17315126  -0.00042982  0.37572701  1
  In  In19  1  0.16441185  0.00029182  0.87095712  1
  In  In20  1  0.16137308  0.32291117  0.37371150  1
  In  In21  1  0.16642584  0.33349617  0.86541442  1
  In  In22  1  0.18391790  0.68979556  0.35463610  1
  In  In23  1  0.14274586  0.67962187  0.87556419  1
  In  In24  1  0.46733729  0.02380068  0.39679097  1
  In  In25  1  0.50455905  -0.00778176  0.88453603  1
  In  In26  1  0.49505179  0.33832489  0.37565300  1
  In  In27  1  0.48701704  0.32648886  0.87321550  1
  In  In28  1  0.50038842  0.66866067  0.37544170  1
  In  In29  1  0.50740849  0.66658886  0.88133729  1
  In  In30  1  0.83479325  -0.01485164  0.36869182  1
  In  In31  1  0.85152035  -0.01325509  0.88756479  1
  In  In32  1  0.85070288  0.33536869  0.37458209  1
  In  In33  1  0.84008925  0.32378763  0.88224306  1
  In  In34  1  0.83384614  0.66528009  0.36836916  1
  In  In35  1  0.84253021  0.66341839  0.88989804  1
  In  In36  1  0.01138342  0.17317107  0.37057481  1
  In  In37  1  -0.00480888  0.16035360  0.86999451  1
  In  In38  1  0.00054064  0.50038948  0.37589507  1
  In  In39  1  -0.00418375  0.49583473  0.87360502  1
  In  In40  1  0.02204156  0.84877941  0.35069070  1
  In  In41  1  -0.02136527  0.81636810  0.84567354  1
  In  In42  1  0.33026244  0.16489861  0.37249579  1
  In  In43  1  0.33078576  0.17127370  0.87615596  1
  In  In44  1  0.34148137  0.51088226  0.36875931  1
  In  In45  1  0.34029276  0.49319705  0.87108946  1
  In  In46  1  0.33312528  0.83874462  0.37594167  1
  In  In47  1  0.33288734  0.84074148  0.88003617  1
  In  In48  1  0.65457997  0.15929100  0.37166146  1
  In  In49  1  0.66679264  0.16250048  0.88373407  1
  In  In50  1  0.66074121  0.51055137  0.37944508  1
  In  In51  1  0.68426527  0.50975090  0.88407275  1
  In  In52  1  0.66248842  0.81982395  0.36933910  1
  In  In53  1  0.67231185  0.81945180  0.89596464  1
  In  In54  1  0.16577693  -0.00887640  0.14087936  1
  In  In55  1  0.15800965  -0.01196865  0.59579021  1
  In  In56  1  0.16900624  0.33064867  0.13449443  1
  In  In57  1  0.17741064  0.32919545  0.63042873  1
  In  In58  1  0.15840018  0.68091796  0.14427139  1
  In  In59  1  0.15337696  0.67190896  0.62164419  1
  In  In60  1  0.49763444  -0.00446345  0.12803362  1
  In  In61  1  0.48352934  -0.00751044  0.60846704  1
  In  In62  1  0.49814877  0.32404717  0.13077367  1
  In  In63  1  0.48538519  0.31943788  0.61331368  1
  In  In64  1  0.49577207  0.67746346  0.13506934  1
  In  In65  1  0.50126198  0.66521657  0.61394538  1
  In  In66  1  0.84013984  0.00665153  0.11742638  1
  In  In67  1  0.84133623  -0.00246249  0.63186390  1
  In  In68  1  0.83958932  0.34204726  0.11804987  1
  In  In69  1  0.83258278  0.34734053  0.62600592  1
  In  In70  1  0.83115564  0.66599921  0.12031344  1
  In  In71  1  0.85362900  0.66699780  0.62412990  1
  In  In72  1  0.83099312  0.16844572  0.50289290  1
  In  In73  1  0.16706658  0.16367894  -0.00141573  1
  In  In74  1  0.32573099  0.00079067  0.74247380  1
  In  In75  1  0.16379573  0.50584483  0.49874963  1
  In  In76  1  0.50520948  0.49891003  -0.00023816  1
  In  In77  1  0.16108748  0.83425390  0.00557071  1
  In  In78  1  0.67211578  0.66362725  0.76141842  1
  In  In79  1  0.66772263  0.33064926  0.75111834  1
  In  In80  1  0.66218694  -0.00692140  0.24645016  1
  In  In81  1  0.67014278  -0.00094530  0.74963396  1
  In  In82  1  0.32516295  0.65956112  0.74553297  1
  In  In83  1  0.16622192  0.50130863  0.00016664  1
  In  In84  1  0.83513609  0.82523410  0.50034100  1
  In  In85  1  0.66698075  0.33623684  0.24861547  1
  Cu  Cu86  1  -0.00378672  0.33778261  0.00190838  1
  Cu  Cu87  1  0.33225589  0.33562644  0.49631094  1
  Cu  Cu88  1  0.33807644  0.32354667  0.00380655  1
  Cu  Cu89  1  0.50154802  0.83018521  0.75438101  1
  Cu  Cu90  1  0.66831199  0.66198036  0.49368587  1
  Cu  Cu91  1  0.49006267  0.16233155  0.74275669  1
  Cu  Cu92  1  0.33145690  0.67133106  0.01335932  1
  Cu  Cu93  1  0.66624282  0.00377254  0.00444103  1
  Cu  Cu94  1  0.16420245  0.49042838  0.25566852  1
  Cu  Cu95  1  0.50077360  0.48535833  0.74803146  1
  Cu  Cu96  1  0.66649814  0.33169329  0.00402699  1
  Cu  Cu97  1  0.33381167  0.66907133  0.48964057  1
  Cu  Cu98  1  0.83898517  0.16577554  0.24500460  1
  Cu  Cu99  1  0.16668295  0.16365246  0.25469496  1
  Cu  Cu100  1  -0.00038874  -0.00141858  -0.00034086  1
  Cu  Cu101  1  0.16078801  0.50308195  0.74669801  1
  Cu  Cu102  1  0.84229987  0.16605010  0.75636696  1
  Cu  Cu103  1  0.50464830  0.50925592  0.25363006  1
  Cu  Cu104  1  0.66602550  0.33484475  0.49635307  1
  Cu  Cu105  1  0.65694237  -0.00367693  0.49945551  1
  Cu  Cu106  1  0.84058148  0.50538269  0.75139125  1
  Cu  Cu107  1  0.00059308  0.33650845  0.49920655  1
  Cu  Cu108  1  0.83663900  0.49870605  0.24485473  1
  Cu  Cu109  1  0.34400267  -0.00383762  0.01039322  1
  Cu  Cu110  1  0.49893786  0.83962544  0.25670135  1
  Cu  Cu111  1  0.83744559  0.82878530  0.24413074  1
  Cu  Cu112  1  0.00051291  -0.00054985  0.49190990  1
  Cu  Cu113  1  0.16885390  0.17178410  0.74622804  1
  Cu  Cu114  1  0.00373671  0.67668975  0.49471809  1
  Se  Se115  1  0.08369535  0.07185266  0.06189020  1
  Se  Se116  1  0.07857710  0.09122427  0.54262291  1
  Se  Se117  1  0.08054827  0.41106660  0.06301885  1
  Se  Se118  1  0.07968118  0.41536587  0.56262235  1
  Se  Se119  1  0.07485126  0.73779970  0.06095371  1
  Se  Se120  1  0.08090639  0.76108266  0.55211770  1
  Se  Se121  1  0.42000753  0.08781906  0.06048201  1
  Se  Se122  1  0.42727538  0.09858028  0.54793364  1
  Se  Se123  1  0.40873023  0.41638460  0.06036750  1
  Se  Se124  1  0.41788080  0.41920267  0.54777854  1
  Se  Se125  1  0.41353392  0.75658525  0.06315267  1
  Se  Se126  1  0.41519620  0.74815699  0.55008832  1
  Se  Se127  1  0.75331967  0.08916609  0.05165575  1
  Se  Se128  1  0.74196465  0.07059747  0.56142672  1
  Se  Se129  1  0.75287316  0.41893834  0.04821442  1
  Se  Se130  1  0.75399669  0.41530008  0.54778926  1
  Se  Se131  1  0.75525467  0.75409059  0.05094970  1
  Se  Se132  1  0.74220680  0.73845119  0.56303150  1
  Se  Se133  1  0.25560492  0.24703332  0.06371680  1
  Se  Se134  1  0.24552953  0.25549938  0.54991697  1
  Se  Se135  1  0.24828132  0.59057754  0.06822692  1
  Se  Se136  1  0.25794488  0.59419062  0.55917861  1
  Se  Se137  1  0.25698826  0.91856122  0.06565482  1
  Se  Se138  1  0.27704525  0.94044606  0.54379579  1
  Se  Se139  1  0.57873824  0.25271150  0.05518702  1
  Se  Se140  1  0.58399380  0.24911347  0.54867405  1
  Se  Se141  1  0.58301382  0.59189599  0.06337480  1
  Se  Se142  1  0.58348065  0.57950310  0.54838067  1
  Se  Se143  1  0.58245364  0.92029097  0.05705011  1
  Se  Se144  1  0.57903786  0.90752135  0.55183152  1
  Se  Se145  1  0.91837715  0.24785299  0.05450776  1
  Se  Se146  1  0.92267258  0.25574922  0.56285889  1
  Se  Se147  1  0.90816661  0.57373372  0.05339515  1
  Se  Se148  1  0.92389923  0.58843025  0.54718899  1
  Se  Se149  1  0.91759297  0.91360037  0.05264085  1
  Se  Se150  1  0.92228275  0.92210805  0.55609160  1
  Se  Se151  1  0.08198220  0.24935974  0.44976869  1
  Se  Se152  1  0.07908238  0.25888276  0.94144814  1
  Se  Se153  1  0.08711109  0.59925349  0.43434282  1
  Se  Se154  1  0.07019066  0.59052977  0.94715996  1
  Se  Se155  1  0.08128394  0.91310117  0.43967086  1
  Se  Se156  1  0.07760756  0.91931347  0.93842011  1
  Se  Se157  1  0.41371758  0.25176377  0.44173765  1
  Se  Se158  1  0.41950610  0.24164267  0.94842409  1
  Se  Se159  1  0.42039077  0.58187408  0.44543266  1
  Se  Se160  1  0.40283940  0.58891624  0.94648120  1
  Se  Se161  1  0.42165698  0.90563887  0.45011778  1
  Se  Se162  1  0.41911497  0.91022552  0.95191123  1
  Se  Se163  1  0.74443937  0.25362375  0.43501196  1
  Se  Se164  1  0.74966165  0.24823490  0.94879690  1
  Se  Se165  1  0.75834153  0.58417889  0.44341997  1
  Se  Se166  1  0.73254003  0.61054844  0.95255049  1
  Se  Se167  1  0.74168062  0.91842676  0.44230510  1
  Se  Se168  1  0.75007560  0.92091272  0.95116006  1
  Se  Se169  1  0.24430127  0.09072118  0.44395624  1
  Se  Se170  1  0.26193722  0.06812404  0.94476331  1
  Se  Se171  1  0.25299869  0.41790020  0.43673029  1
  Se  Se172  1  0.25863885  0.40486063  0.94337014  1
  Se  Se173  1  0.24546318  0.75251482  0.44316516  1
  Se  Se174  1  0.25193885  0.74053179  0.94368738  1
  Se  Se175  1  0.58095642  0.08915693  0.45051401  1
  Se  Se176  1  0.57907019  0.08413222  0.95052416  1
  Se  Se177  1  0.58274188  0.41807320  0.44313959  1
  Se  Se178  1  0.59129842  0.40686508  0.93520448  1
  Se  Se179  1  0.58455074  0.74952146  0.44682056  1
  Se  Se180  1  0.56516176  0.75691899  0.95392316  1
  Se  Se181  1  0.91371470  0.07852248  0.43670786  1
  Se  Se182  1  0.91986684  0.09018979  0.94948456  1
  Se  Se183  1  0.91783298  0.42128481  0.44910961  1
  Se  Se184  1  0.91363060  0.41969724  0.94676318  1
  Se  Se185  1  0.92689759  0.75540075  0.43048770  1
  Se  Se186  1  0.92827940  0.76354722  0.93946912  1
  Se  Se187  1  0.25009006  0.25200495  0.30315840  1
  Se  Se188  1  0.25473836  0.24934070  0.80207754  1
  Se  Se189  1  0.25031070  0.58050015  0.29928401  1
  Se  Se190  1  0.23710799  0.57781928  0.81571287  1
  Se  Se191  1  0.23859924  0.90421731  0.30598135  1
  Se  Se192  1  0.24318908  0.90499366  0.80431640  1
  Se  Se193  1  0.57351305  0.24531138  0.30313144  1
  Se  Se194  1  0.57517738  0.23511203  0.80516731  1
  Se  Se195  1  0.58971945  0.59238256  0.30434241  1
  Se  Se196  1  0.57541534  0.56535557  0.81156294  1
  Se  Se197  1  0.57494053  0.92131414  0.31892498  1
  Se  Se198  1  0.58599753  0.90531895  0.81320626  1
  Se  Se199  1  0.91902182  0.24779732  0.30244901  1
  Se  Se200  1  0.92190602  0.25708771  0.80466624  1
  Se  Se201  1  0.91757614  0.57824346  0.30353502  1
  Se  Se202  1  0.91560116  0.58904393  0.81017473  1
  Se  Se203  1  0.91692998  0.92021546  0.29246733  1
  Se  Se204  1  0.92346227  0.93727877  0.80010337  1
  Se  Se205  1  0.08267010  0.07810407  0.30576514  1
  Se  Se206  1  0.08951729  0.08863705  0.80343677  1
  Se  Se207  1  0.07844246  0.41086003  0.30889303  1
  Se  Se208  1  0.08059369  0.41861073  0.80274276  1
  Se  Se209  1  0.05677725  0.72078252  0.30463738  1
  Se  Se210  1  0.09280893  0.75798964  0.79253566  1
  Se  Se211  1  0.41400792  0.07982711  0.30542036  1
  Se  Se212  1  0.42082650  0.07956792  0.80934434  1
  Se  Se213  1  0.42141674  0.42186375  0.30224013  1
  Se  Se214  1  0.41197920  0.40682928  0.79889509  1
  Se  Se215  1  0.41698771  0.75192764  0.30785472  1
  Se  Se216  1  0.41737752  0.74826630  0.80960611  1
  Se  Se217  1  0.75650551  0.08841631  0.30556137  1
  Se  Se218  1  0.75722576  0.08757690  0.81268356  1
  Se  Se219  1  0.75694470  0.42258866  0.31078513  1
  Se  Se220  1  0.75799662  0.42354492  0.80909877  1
  Se  Se221  1  0.75240547  0.75039246  0.29961991  1
  Se  Se222  1  0.75857425  0.75785293  0.81625256  1
  Se  Se223  1  0.25008992  0.07765549  0.20422338  1
  Se  Se224  1  0.23789294  0.08807043  0.68145288  1
  Se  Se225  1  0.25276773  0.41290086  0.20167681  1
  Se  Se226  1  0.25101936  0.42208498  0.69843003  1
  Se  Se227  1  0.24597211  0.75497597  0.21173120  1
  Se  Se228  1  0.24543078  0.75840569  0.68739427  1
  Se  Se229  1  0.57551542  0.09426449  0.19547669  1
  Se  Se230  1  0.57206219  0.07982533  0.68673731  1
  Se  Se231  1  0.58029100  0.43025756  0.18771738  1
  Se  Se232  1  0.58034833  0.41290656  0.68353154  1
  Se  Se233  1  0.58423949  0.76026774  0.20013553  1
  Se  Se234  1  0.57937695  0.74737174  0.69449187  1
  Se  Se235  1  0.92075299  0.07950411  0.19338618  1
  Se  Se236  1  0.92075585  0.08519081  0.69680855  1
  Se  Se237  1  0.91842272  0.40752717  0.19782818  1
  Se  Se238  1  0.91946274  0.41903324  0.69711974  1
  Se  Se239  1  0.91776054  0.74329395  0.19111422  1
  Se  Se240  1  0.91176678  0.75346089  0.69938266  1
  Se  Se241  1  0.08364859  0.24725974  0.19987677  1
  Se  Se242  1  0.08221740  0.25553551  0.69567423  1
  Se  Se243  1  0.08619715  0.57210409  0.19626972  1
  Se  Se244  1  0.08027270  0.58991400  0.69563361  1
  Se  Se245  1  0.08736479  0.89933524  0.20173443  1
  Se  Se246  1  0.09045220  0.93140976  0.68281881  1
  Se  Se247  1  0.40298523  0.26481379  0.19984893  1
  Se  Se248  1  0.40856680  0.24718822  0.69086067  1
  Se  Se249  1  0.41602420  0.59074134  0.20243340  1
  Se  Se250  1  0.42711741  0.57444058  0.68999951  1
  Se  Se251  1  0.41613956  0.92266194  0.20262007  1
  Se  Se252  1  0.42181953  0.90520087  0.69109358  1
  Se  Se253  1  0.75477282  0.24438806  0.18702364  1
  Se  Se254  1  0.76028489  0.23942020  0.69177346  1
  Se  Se255  1  0.75175310  0.58512193  0.19650287  1
  Se  Se256  1  0.75434952  0.57792981  0.69029785  1
  Se  Se257  1  0.75639028  0.91148448  0.18463370  1
  Se  Se258  1  0.76161291  0.90138969  0.69725256  1
