# generated using pymatgen
data_In86Cu29Se144
_symmetry_space_group_name_H-M   'P 1'
_cell_length_a   17.57586041
_cell_length_b   17.57535118
_cell_length_c   23.43781809
_cell_angle_alpha   89.99321886
_cell_angle_beta   90.00542902
_cell_angle_gamma   90.01624799
_symmetry_Int_Tables_number   1
_chemical_formula_structural   In86Cu29Se144
_chemical_formula_sum   'In86 Cu29 Se144'
_cell_volume   7239.98661338
_cell_formula_units_Z   1
loop_
 _symmetry_equiv_pos_site_id
 _symmetry_equiv_pos_as_xyz
  1  'x, y, z'
loop_
 _atom_site_type_symbol
 _atom_site_label
 _atom_site_symmetry_multiplicity
 _atom_site_fract_x
 _atom_site_fract_y
 _atom_site_fract_z
 _atom_site_occupancy
  In  In0  1  -0.00413328  0.18196016  0.12846406  1
  In  In1  1  0.02067976  0.17131825  0.62836932  1
  In  In2  1  -0.02361891  0.51188942  0.14945400  1
  In  In3  1  0.00228258  0.49848202  0.62606841  1
  In  In4  1  -0.00571800  0.82807429  0.11965529  1
  In  In5  1  0.00831144  0.81569667  0.62846978  1
  In  In6  1  0.34174587  0.15398687  0.11925060  1
  In  In7  1  0.32531842  0.15261511  0.62535731  1
  In  In8  1  0.34884099  0.49733889  0.12171366  1
  In  In9  1  0.33370201  0.52275290  0.63510620  1
  In  In10  1  0.33153395  0.83820777  0.10944950  1
  In  In11  1  0.32867936  0.83890152  0.63318299  1
  In  In12  1  0.66652000  0.16152645  0.11937413  1
  In  In13  1  0.65704057  0.17709819  0.63103568  1
  In  In14  1  0.66514551  0.50962024  0.13142754  1
  In  In15  1  0.65642143  0.50224073  0.64031560  1
  In  In16  1  0.67535037  0.83709968  0.12268826  1
  In  In17  1  0.66371038  0.83693007  0.63669700  1
  In  In18  1  0.17435935  -0.00581129  0.38357381  1
  In  In19  1  0.16189790  -0.01243522  0.87259755  1
  In  In20  1  0.16121576  0.34344566  0.39085915  1
  In  In21  1  0.16084088  0.33666227  0.86637038  1
  In  In22  1  0.14716663  0.67404549  0.39457035  1
  In  In23  1  0.17755939  0.68028465  0.86235049  1
  In  In24  1  0.51064781  0.00577847  0.37005836  1
  In  In25  1  0.49900922  -0.00504979  0.87780528  1
  In  In26  1  0.49842954  0.32815367  0.37204739  1
  In  In27  1  0.50924395  0.31762746  0.88174911  1
  In  In28  1  0.50736875  0.66002624  0.37045517  1
  In  In29  1  0.50103840  0.67088672  0.87681982  1
  In  In30  1  0.82717753  0.00784542  0.37045174  1
  In  In31  1  0.82243450  0.00792760  0.88446041  1
  In  In32  1  0.84314043  0.34594476  0.35381167  1
  In  In33  1  0.82305422  0.33135094  0.87132867  1
  In  In34  1  0.83913641  0.66815865  0.36334887  1
  In  In35  1  0.83252603  0.66935500  0.87513601  1
  In  In36  1  0.00189539  0.17368028  0.37831598  1
  In  In37  1  -0.01146463  0.16923697  0.87604657  1
  In  In38  1  0.01134155  0.51251640  0.36587951  1
  In  In39  1  -0.00004308  0.50641746  0.86697561  1
  In  In40  1  0.01501555  0.82175798  0.37382870  1
  In  In41  1  0.00824124  0.82601299  0.88065367  1
  In  In42  1  0.33642442  0.16657630  0.38784926  1
  In  In43  1  0.34513436  0.16705951  0.87348058  1
  In  In44  1  0.33181588  0.48979375  0.37956919  1
  In  In45  1  0.33684846  0.51178179  0.86757068  1
  In  In46  1  0.32507655  0.82120055  0.37317774  1
  In  In47  1  0.33654655  0.83663882  0.87751885  1
  In  In48  1  0.66137853  0.16817930  0.36938340  1
  In  In49  1  0.66855032  0.16381319  0.87486762  1
  In  In50  1  0.67937569  0.50592579  0.35819128  1
  In  In51  1  0.65609337  0.50190958  0.87070399  1
  In  In52  1  0.66845043  0.83373249  0.36302605  1
  In  In53  1  0.66043496  0.82919603  0.87984541  1
  In  In54  1  0.17113142  -0.01180128  0.12413329  1
  In  In55  1  0.18492748  0.00909507  0.62180622  1
  In  In56  1  0.15521983  0.33224135  0.13027044  1
  In  In57  1  0.15580390  0.31941357  0.62358328  1
  In  In58  1  0.15546071  0.67044662  0.12892332  1
  In  In59  1  0.16280257  0.67000225  0.62305144  1
  In  In60  1  0.50387092  0.01331598  0.10855088  1
  In  In61  1  0.48937987  0.00886042  0.63484406  1
  In  In62  1  0.51568347  0.34712099  0.10822245  1
  In  In63  1  0.51655681  0.33230518  0.62692597  1
  In  In64  1  0.54160542  0.69446440  0.09004858  1
  In  In65  1  0.49419984  0.66328981  0.64581934  1
  In  In66  1  0.82102025  -0.01582853  0.11317425  1
  In  In67  1  0.82696018  -0.00600522  0.63139700  1
  In  In68  1  0.83629022  0.32932853  0.12981419  1
  In  In69  1  0.82789362  0.34074336  0.63219955  1
  In  In70  1  0.82354545  0.67599195  0.12806257  1
  In  In71  1  0.83330803  0.66470830  0.63242055  1
  In  In72  1  -0.00714133  -0.00377280  0.24568449  1
  In  In73  1  0.33791936  -0.00386639  0.25132049  1
  In  In74  1  0.83178148  0.17012354  0.49380584  1
  In  In75  1  0.16697265  0.16247434  0.00212856  1
  In  In76  1  0.83761769  0.83477230  0.49145308  1
  In  In77  1  0.49762449  0.49600524  0.50475636  1
  In  In78  1  0.83738672  0.50020977  0.50009088  1
  In  In79  1  0.33523288  0.66031243  0.24524292  1
  In  In80  1  -0.00314555  -0.00067695  0.75096600  1
  In  In81  1  0.16762547  0.49976287  0.00227954  1
  In  In82  1  0.49188293  0.83892061  0.50115034  1
  In  In83  1  0.82495788  0.50720209  -0.00134308  1
  In  In84  1  0.33373227  0.33237881  0.24975035  1
  In  In85  1  0.33203319  0.32726845  0.74806849  1
  Cu  Cu86  1  0.51114622  0.50861341  0.24034393  1
  Cu  Cu87  1  0.83249737  0.17285472  0.75450871  1
  Cu  Cu88  1  0.33320011  0.32943195  0.50841132  1
  Cu  Cu89  1  0.82689605  0.83554459  0.75598338  1
  Cu  Cu90  1  0.16661627  0.16765977  0.25636203  1
  Cu  Cu91  1  0.32594699  0.66922551  0.50536115  1
  Cu  Cu92  1  0.33194966  0.66724443  -0.00876760  1
  Cu  Cu93  1  0.66495501  0.33407636  0.49671230  1
  Cu  Cu94  1  0.82140578  0.16219129  0.24638111  1
  Cu  Cu95  1  0.67053005  0.32460611  -0.00334326  1
  Cu  Cu96  1  0.50675846  0.16196593  0.75510128  1
  Cu  Cu97  1  -0.00222783  -0.00156629  -0.00256064  1
  Cu  Cu98  1  0.83156980  0.50800391  0.75231565  1
  Cu  Cu99  1  0.50839431  0.83313101  0.23798059  1
  Cu  Cu100  1  0.83301952  0.83039585  0.24309743  1
  Cu  Cu101  1  0.50085313  0.83209826  0.75945734  1
  Cu  Cu102  1  0.66542747  -0.00258237  -0.00456620  1
  Cu  Cu103  1  0.66779796  0.66915132  0.50355929  1
  Cu  Cu104  1  0.15982838  0.50202480  0.74516144  1
  Cu  Cu105  1  0.65662710  0.01174814  0.50003073  1
  Cu  Cu106  1  -0.00731594  0.33831371  0.00577234  1
  Cu  Cu107  1  0.50607989  0.17357762  0.24031682  1
  Cu  Cu108  1  0.00131600  0.33146902  0.50282659  1
  Cu  Cu109  1  0.33343933  -0.00069560  0.50630733  1
  Cu  Cu110  1  0.00964553  -0.00754829  0.50575724  1
  Cu  Cu111  1  0.16837833  0.82936399  0.75007906  1
  Cu  Cu112  1  0.16434471  0.50031232  0.25885130  1
  Cu  Cu113  1  0.33654597  0.33226490  -0.00345827  1
  Cu  Cu114  1  0.00416606  0.66902636  -0.00124609  1
  Se  Se115  1  0.07220357  0.07743806  0.06444101  1
  Se  Se116  1  0.08774167  0.08183937  0.55665741  1
  Se  Se117  1  0.07029533  0.42153597  0.06504217  1
  Se  Se118  1  0.08309617  0.41436779  0.55721901  1
  Se  Se119  1  0.08772345  0.75214589  0.05245398  1
  Se  Se120  1  0.08439865  0.75059278  0.55011265  1
  Se  Se121  1  0.40403062  0.07482796  0.04174193  1
  Se  Se122  1  0.41968049  0.08385827  0.55470228  1
  Se  Se123  1  0.41963558  0.42137416  0.04401902  1
  Se  Se124  1  0.40856610  0.41224531  0.57008427  1
  Se  Se125  1  0.41434734  0.74684991  0.04894794  1
  Se  Se126  1  0.41574850  0.74084247  0.56451560  1
  Se  Se127  1  0.75059852  0.08149383  0.04873998  1
  Se  Se128  1  0.74576783  0.08215144  0.55931093  1
  Se  Se129  1  0.74522086  0.40869648  0.05878360  1
  Se  Se130  1  0.73698134  0.41806959  0.55906275  1
  Se  Se131  1  0.74569656  0.74496418  0.05284300  1
  Se  Se132  1  0.74623596  0.75309629  0.56015050  1
  Se  Se133  1  0.25486459  0.26015713  0.06214231  1
  Se  Se134  1  0.24909091  0.24386505  0.55839582  1
  Se  Se135  1  0.25730548  0.59188213  0.06126039  1
  Se  Se136  1  0.24802634  0.58071096  0.55728047  1
  Se  Se137  1  0.25437549  0.93156635  0.04658183  1
  Se  Se138  1  0.25159843  0.91024055  0.55467329  1
  Se  Se139  1  0.58203498  0.24227631  0.04844434  1
  Se  Se140  1  0.58439552  0.24931009  0.55022331  1
  Se  Se141  1  0.57869771  0.56303820  0.05204550  1
  Se  Se142  1  0.58460743  0.59287855  0.56282257  1
  Se  Se143  1  0.58612996  0.91537642  0.05345319  1
  Se  Se144  1  0.58589924  0.92418955  0.56114947  1
  Se  Se145  1  0.91127801  0.24876970  0.05303798  1
  Se  Se146  1  0.91664440  0.25451078  0.56234635  1
  Se  Se147  1  0.92513451  0.58757638  0.05894670  1
  Se  Se148  1  0.92260710  0.59496006  0.55782806  1
  Se  Se149  1  0.91558547  0.91048624  0.04866016  1
  Se  Se150  1  0.92081813  0.91970483  0.56224822  1
  Se  Se151  1  0.08511951  0.24445284  0.45224399  1
  Se  Se152  1  0.07839592  0.26133009  0.94584668  1
  Se  Se153  1  0.08909569  0.56300165  0.45031358  1
  Se  Se154  1  0.08533268  0.59108584  0.93763495  1
  Se  Se155  1  0.08477110  0.91049788  0.44572672  1
  Se  Se156  1  0.08476555  0.91485473  0.94942352  1
  Se  Se157  1  0.41999962  0.25721046  0.44945355  1
  Se  Se158  1  0.41897812  0.24251594  0.95058164  1
  Se  Se159  1  0.41064976  0.59387020  0.44379808  1
  Se  Se160  1  0.41617361  0.58112574  0.94369121  1
  Se  Se161  1  0.40656141  0.92669283  0.43403909  1
  Se  Se162  1  0.42805086  0.90477595  0.94775167  1
  Se  Se163  1  0.74893126  0.26417952  0.43314130  1
  Se  Se164  1  0.75645074  0.24351805  0.94481808  1
  Se  Se165  1  0.74475936  0.59179456  0.44031731  1
  Se  Se166  1  0.73297791  0.59559209  0.94222689  1
  Se  Se167  1  0.73576330  0.92752332  0.44163139  1
  Se  Se168  1  0.75056084  0.91008922  0.94734663  1
  Se  Se169  1  0.24917450  0.08352294  0.45151401  1
  Se  Se170  1  0.25128897  0.07901200  0.93602318  1
  Se  Se171  1  0.25449132  0.41851205  0.45626881  1
  Se  Se172  1  0.25432476  0.41062680  0.93768490  1
  Se  Se173  1  0.24707463  0.75467699  0.45120003  1
  Se  Se174  1  0.24570041  0.75230205  0.94334760  1
  Se  Se175  1  0.57723477  0.09356267  0.44389234  1
  Se  Se176  1  0.58345891  0.08349029  0.94341452  1
  Se  Se177  1  0.59022816  0.42054789  0.43595901  1
  Se  Se178  1  0.58932908  0.41103031  0.94432575  1
  Se  Se179  1  0.58859871  0.74948680  0.44204441  1
  Se  Se180  1  0.56848185  0.75971481  0.95025488  1
  Se  Se181  1  0.92616987  0.06931309  0.44413406  1
  Se  Se182  1  0.91608904  0.08673624  0.94891881  1
  Se  Se183  1  0.92162447  0.40655708  0.43979225  1
  Se  Se184  1  0.92044239  0.41839518  0.94020722  1
  Se  Se185  1  0.92540734  0.73474291  0.44195797  1
  Se  Se186  1  0.91636957  0.74826983  0.94612620  1
  Se  Se187  1  0.24666571  0.24718228  0.31602164  1
  Se  Se188  1  0.24150463  0.23745902  0.80775040  1
  Se  Se189  1  0.24863684  0.58016654  0.31514850  1
  Se  Se190  1  0.24708055  0.58180971  0.79778059  1
  Se  Se191  1  0.24054787  0.90635289  0.30385047  1
  Se  Se192  1  0.25022967  0.91320215  0.80392334  1
  Se  Se193  1  0.58286682  0.25526844  0.29988065  1
  Se  Se194  1  0.58961002  0.24941571  0.80380525  1
  Se  Se195  1  0.59138372  0.59278741  0.29616023  1
  Se  Se196  1  0.57591830  0.58723178  0.80361148  1
  Se  Se197  1  0.58168929  0.91836872  0.29898992  1
  Se  Se198  1  0.58673567  0.91760618  0.80772173  1
  Se  Se199  1  0.91220815  0.23357111  0.30346872  1
  Se  Se200  1  0.91752485  0.25687174  0.80466740  1
  Se  Se201  1  0.90014281  0.56095002  0.30487872  1
  Se  Se202  1  0.91640897  0.59244111  0.80292478  1
  Se  Se203  1  0.90906816  0.90467941  0.31268822  1
  Se  Se204  1  0.91046214  0.91376109  0.81618814  1
  Se  Se205  1  0.08744063  0.07993994  0.31128899  1
  Se  Se206  1  0.08478927  0.09010357  0.81080606  1
  Se  Se207  1  0.08660385  0.40829107  0.30871983  1
  Se  Se208  1  0.07796861  0.41825069  0.79924782  1
  Se  Se209  1  0.08911646  0.73614614  0.30489940  1
  Se  Se210  1  0.07642972  0.75037003  0.79963904  1
  Se  Se211  1  0.42232439  0.10013062  0.30468950  1
  Se  Se212  1  0.41999712  0.07935642  0.80452211  1
  Se  Se213  1  0.42771820  0.43137153  0.30209807  1
  Se  Se214  1  0.41994681  0.40788001  0.81464889  1
  Se  Se215  1  0.42849227  0.75840958  0.30387245  1
  Se  Se216  1  0.41163664  0.74850746  0.80677744  1
  Se  Se217  1  0.73971650  0.07940517  0.30088009  1
  Se  Se218  1  0.75325327  0.08289326  0.80431442  1
  Se  Se219  1  0.73427698  0.40109231  0.29501132  1
  Se  Se220  1  0.74919359  0.42364453  0.80581366  1
  Se  Se221  1  0.74896737  0.74661242  0.29785488  1
  Se  Se222  1  0.74489888  0.74980326  0.80796694  1
  Se  Se223  1  0.24349946  0.09020549  0.19382724  1
  Se  Se224  1  0.25580217  0.07567905  0.70312915  1
  Se  Se225  1  0.24449500  0.42902617  0.19128970  1
  Se  Se226  1  0.24332260  0.41998587  0.68808430  1
  Se  Se227  1  0.25149317  0.75889470  0.18835706  1
  Se  Se228  1  0.25064771  0.74460782  0.69556883  1
  Se  Se229  1  0.58018155  0.08035481  0.18940944  1
  Se  Se230  1  0.58908983  0.07969673  0.69781027  1
  Se  Se231  1  0.58522311  0.41191574  0.19253599  1
  Se  Se232  1  0.58491697  0.40826051  0.70438888  1
  Se  Se233  1  0.59018458  0.74645699  0.18756953  1
  Se  Se234  1  0.58470464  0.75041583  0.70356167  1
  Se  Se235  1  0.90424577  0.08475042  0.18480125  1
  Se  Se236  1  0.91048409  0.09528550  0.68929179  1
  Se  Se237  1  0.93298970  0.39119021  0.19973202  1
  Se  Se238  1  0.91311232  0.42456011  0.69631281  1
  Se  Se239  1  0.92049748  0.74724363  0.19471655  1
  Se  Se240  1  0.91024537  0.75658189  0.69820789  1
  Se  Se241  1  0.08213707  0.24938800  0.20370928  1
  Se  Se242  1  0.07953014  0.25601186  0.70518676  1
  Se  Se243  1  0.08495633  0.58450374  0.20210838  1
  Se  Se244  1  0.07817475  0.58926174  0.69353317  1
  Se  Se245  1  0.08804513  0.90513953  0.19378606  1
  Se  Se246  1  0.09030804  0.91456915  0.68934907  1
  Se  Se247  1  0.42234113  0.25173386  0.18190156  1
  Se  Se248  1  0.42610813  0.23846121  0.68960350  1
  Se  Se249  1  0.43397883  0.59052072  0.18096437  1
  Se  Se250  1  0.43070811  0.56424477  0.71070313  1
  Se  Se251  1  0.42351401  0.91350143  0.18350035  1
  Se  Se252  1  0.41940730  0.91290550  0.70031227  1
  Se  Se253  1  0.74308211  0.24677481  0.19095524  1
  Se  Se254  1  0.74761634  0.25328402  0.69790892  1
  Se  Se255  1  0.77838620  0.56201877  0.18933351  1
  Se  Se256  1  0.74466779  0.58980872  0.70026305  1
  Se  Se257  1  0.74997835  0.92054011  0.19746344  1
  Se  Se258  1  0.74480864  0.92231247  0.70479671  1
