# generated using pymatgen
data_In86Cu29Se144
_symmetry_space_group_name_H-M   'P 1'
_cell_length_a   17.58705616
_cell_length_b   17.58406640
_cell_length_c   23.44675032
_cell_angle_alpha   90.00599591
_cell_angle_beta   89.99831008
_cell_angle_gamma   90.00070194
_symmetry_Int_Tables_number   1
_chemical_formula_structural   In86Cu29Se144
_chemical_formula_sum   'In86 Cu29 Se144'
_cell_volume   7250.95352224
_cell_formula_units_Z   1
loop_
 _symmetry_equiv_pos_site_id
 _symmetry_equiv_pos_as_xyz
  1  'x, y, z'
loop_
 _atom_site_type_symbol
 _atom_site_label
 _atom_site_symmetry_multiplicity
 _atom_site_fract_x
 _atom_site_fract_y
 _atom_site_fract_z
 _atom_site_occupancy
  In  In0  1  -0.02195947  0.16963785  0.12219412  1
  In  In1  1  0.00476123  0.16036324  0.63324220  1
  In  In2  1  -0.00415387  0.51414851  0.12606600  1
  In  In3  1  -0.00261660  0.50682840  0.62936051  1
  In  In4  1  -0.00373926  0.83814436  0.12882621  1
  In  In5  1  -0.00369669  0.83342982  0.63540173  1
  In  In6  1  0.32679533  0.16689564  0.11834023  1
  In  In7  1  0.32332320  0.16467408  0.62674682  1
  In  In8  1  0.34695694  0.50877067  0.11649694  1
  In  In9  1  0.34549723  0.51159664  0.61841080  1
  In  In10  1  0.32728672  0.83072968  0.12533529  1
  In  In11  1  0.34271440  0.81185139  0.64183756  1
  In  In12  1  0.68550226  0.16998353  0.12096631  1
  In  In13  1  0.66624785  0.16841991  0.63222260  1
  In  In14  1  0.66841748  0.50769453  0.12420434  1
  In  In15  1  0.67208893  0.49881637  0.62326703  1
  In  In16  1  0.66529400  0.81855680  0.11995958  1
  In  In17  1  0.66740262  0.82889773  0.62494245  1
  In  In18  1  0.15838091  0.00654147  0.37651574  1
  In  In19  1  0.15760868  -0.01630227  0.85720137  1
  In  In20  1  0.17664823  0.33480457  0.37528766  1
  In  In21  1  0.15290920  0.35587080  0.86590705  1
  In  In22  1  0.15305364  0.65677107  0.37393000  1
  In  In23  1  0.16838170  0.66098315  0.85839012  1
  In  In24  1  0.49228594  -0.00213590  0.37996326  1
  In  In25  1  0.50217341  0.00033550  0.86314155  1
  In  In26  1  0.52619237  0.35307655  0.36538884  1
  In  In27  1  0.51446071  0.33452273  0.87392744  1
  In  In28  1  0.50017407  0.66542407  0.37977647  1
  In  In29  1  0.49384046  0.65224895  0.87253636  1
  In  In30  1  0.83176842  -0.01784736  0.37523206  1
  In  In31  1  0.82811602  -0.00373169  0.87826906  1
  In  In32  1  0.82568146  0.34903008  0.37880820  1
  In  In33  1  0.83167076  0.33713348  0.87396042  1
  In  In34  1  0.83235122  0.66373268  0.37458461  1
  In  In35  1  0.82996297  0.66686141  0.87457749  1
  In  In36  1  0.00834830  0.16133955  0.37265185  1
  In  In37  1  -0.01417568  0.15837974  0.87014396  1
  In  In38  1  -0.01980377  0.52063779  0.39287282  1
  In  In39  1  -0.00405076  0.49260562  0.85953077  1
  In  In40  1  -0.01314407  0.82083043  0.36945744  1
  In  In41  1  -0.00832426  0.81745923  0.86113960  1
  In  In42  1  0.32620294  0.16251791  0.37718718  1
  In  In43  1  0.34302997  0.16177093  0.87128554  1
  In  In44  1  0.32531469  0.51571086  0.38437619  1
  In  In45  1  0.33209153  0.51552766  0.88093952  1
  In  In46  1  0.34964236  0.82808387  0.38498683  1
  In  In47  1  0.32778446  0.82385106  0.86068538  1
  In  In48  1  0.66167813  0.17554951  0.37072697  1
  In  In49  1  0.67369139  0.17129109  0.87174543  1
  In  In50  1  0.66335199  0.49872940  0.37888351  1
  In  In51  1  0.66912451  0.50075900  0.87431019  1
  In  In52  1  0.68115948  0.81915248  0.38961040  1
  In  In53  1  0.67837594  0.84041655  0.87090520  1
  In  In54  1  0.15908350  -0.02385380  0.11976088  1
  In  In55  1  0.16942032  -0.01319829  0.64491675  1
  In  In56  1  0.16950035  0.32943660  0.12088280  1
  In  In57  1  0.15515935  0.33835505  0.63067473  1
  In  In58  1  0.16431602  0.66805922  0.13456692  1
  In  In59  1  0.18159627  0.64835011  0.64914580  1
  In  In60  1  0.49880999  -0.00850461  0.12017563  1
  In  In61  1  0.51546418  -0.01292023  0.63544363  1
  In  In62  1  0.50592775  0.36943919  0.11716018  1
  In  In63  1  0.50965225  0.34843478  0.61826077  1
  In  In64  1  0.50912596  0.66443035  0.12898287  1
  In  In65  1  0.50535853  0.66578211  0.62610108  1
  In  In66  1  0.83391812  0.01075068  0.11539777  1
  In  In67  1  0.84307179  -0.01185508  0.63236029  1
  In  In68  1  0.83074406  0.33278858  0.12093080  1
  In  In69  1  0.81466154  0.35342521  0.63355064  1
  In  In70  1  0.83175871  0.66764584  0.11886355  1
  In  In71  1  0.82933208  0.66659736  0.62728857  1
  In  In72  1  0.83767373  0.16988702  0.50299269  1
  In  In73  1  0.50546244  0.82804131  0.00102052  1
  In  In74  1  0.16216726  0.16847401  0.50523397  1
  In  In75  1  0.16277111  0.50342480  -0.00308341  1
  In  In76  1  0.50923040  0.17254755  -0.01271362  1
  In  In77  1  0.16200549  0.82635305  -0.01858371  1
  In  In78  1  0.34087844  0.32976469  0.75017362  1
  In  In79  1  -0.00756505  0.34165128  0.24921164  1
  In  In80  1  0.16096202  0.82538039  0.51298717  1
  In  In81  1  0.33566597  0.33593832  0.24321971  1
  In  In82  1  0.16323579  0.16775512  -0.00339415  1
  In  In83  1  0.33064677  -0.00529584  0.26191873  1
  In  In84  1  0.49538609  0.17148409  0.49588927  1
  In  In85  1  0.66935089  -0.00747676  0.24759306  1
  Cu  Cu86  1  0.66817057  0.34162144  -0.00143494  1
  Cu  Cu87  1  0.66927559  -0.00609883  0.50641715  1
  Cu  Cu88  1  0.16350373  0.82685977  0.25067249  1
  Cu  Cu89  1  -0.00525845  0.66502311  0.50560428  1
  Cu  Cu90  1  0.34093951  -0.01029169  0.51121554  1
  Cu  Cu91  1  0.16447063  0.50124505  0.25434238  1
  Cu  Cu92  1  0.15703307  0.15227142  0.24358370  1
  Cu  Cu93  1  0.83191173  0.50434449  0.75062902  1
  Cu  Cu94  1  0.83908763  0.82642425  0.24917519  1
  Cu  Cu95  1  0.67006702  0.66097391  -0.00055589  1
  Cu  Cu96  1  0.83878337  0.16448312  0.24601465  1
  Cu  Cu97  1  0.50588640  0.50147590  0.74541553  1
  Cu  Cu98  1  0.50542373  0.16441328  0.74944469  1
  Cu  Cu99  1  0.82488320  0.83125337  0.74996194  1
  Cu  Cu100  1  0.16569088  0.16774819  0.75135834  1
  Cu  Cu101  1  0.33681973  0.00117514  -0.01361443  1
  Cu  Cu102  1  -0.01023909  0.00355330  -0.00121463  1
  Cu  Cu103  1  -0.00195255  0.34346291  0.50956773  1
  Cu  Cu104  1  -0.00327859  0.67046776  -0.00372275  1
  Cu  Cu105  1  0.33364833  0.66865742  0.50791870  1
  Cu  Cu106  1  -0.00770732  0.33474652  -0.00623774  1
  Cu  Cu107  1  0.83623248  0.16976499  0.75167301  1
  Cu  Cu108  1  0.33722933  0.34663052  0.49666825  1
  Cu  Cu109  1  0.50760770  0.82528118  0.75308881  1
  Cu  Cu110  1  0.50267215  0.50804818  0.24871532  1
  Cu  Cu111  1  -0.00405587  -0.01224310  0.50585412  1
  Cu  Cu112  1  0.66574797  0.66352410  0.50282240  1
  Cu  Cu113  1  0.50340618  0.82571288  0.25819080  1
  Cu  Cu114  1  0.50815120  0.17769527  0.24278071  1
  Se  Se115  1  0.07752227  0.07564291  0.05968071  1
  Se  Se116  1  0.08309039  0.06595345  0.56248625  1
  Se  Se117  1  0.07264579  0.40846796  0.05818740  1
  Se  Se118  1  0.08496038  0.42491005  0.55923162  1
  Se  Se119  1  0.08099922  0.74621922  0.05629688  1
  Se  Se120  1  0.07663141  0.73300824  0.57261963  1
  Se  Se121  1  0.41263387  0.07870052  0.05068193  1
  Se  Se122  1  0.41792767  0.07932727  0.56542221  1
  Se  Se123  1  0.40379574  0.41207558  0.04699430  1
  Se  Se124  1  0.42396740  0.42509731  0.54927257  1
  Se  Se125  1  0.41049199  0.74369462  0.05968243  1
  Se  Se126  1  0.41832292  0.75097327  0.55894302  1
  Se  Se127  1  0.74642178  0.08445390  0.04645035  1
  Se  Se128  1  0.74864909  0.07767370  0.56291484  1
  Se  Se129  1  0.75015981  0.42139733  0.05559062  1
  Se  Se130  1  0.74780928  0.41633105  0.54951407  1
  Se  Se131  1  0.75240050  0.75154379  0.04607788  1
  Se  Se132  1  0.75010802  0.74844106  0.55422511  1
  Se  Se133  1  0.26107772  0.26246424  0.04699256  1
  Se  Se134  1  0.25773223  0.26418559  0.55650909  1
  Se  Se135  1  0.24896634  0.59544067  0.05759980  1
  Se  Se136  1  0.24439343  0.58883138  0.55941503  1
  Se  Se137  1  0.25718714  0.91747061  0.04545308  1
  Se  Se138  1  0.25699621  0.91405354  0.56958673  1
  Se  Se139  1  0.58691451  0.25948584  0.06046307  1
  Se  Se140  1  0.59233032  0.25285133  0.55473247  1
  Se  Se141  1  0.57997371  0.58364344  0.05244696  1
  Se  Se142  1  0.58330707  0.58050860  0.55624398  1
  Se  Se143  1  0.59733379  0.92526284  0.05427495  1
  Se  Se144  1  0.58165921  0.91112218  0.55453443  1
  Se  Se145  1  0.90948539  0.25102731  0.04742290  1
  Se  Se146  1  0.92515564  0.25477614  0.56709764  1
  Se  Se147  1  0.91684455  0.58371570  0.04936687  1
  Se  Se148  1  0.91019726  0.58042320  0.55764383  1
  Se  Se149  1  0.91704417  0.91586823  0.05603384  1
  Se  Se150  1  0.91432834  0.90453982  0.55772460  1
  Se  Se151  1  0.07251112  0.26135678  0.44483439  1
  Se  Se152  1  0.07691272  0.25866589  0.93509549  1
  Se  Se153  1  0.08515626  0.58388552  0.45543301  1
  Se  Se154  1  0.07525637  0.59125516  0.93377868  1
  Se  Se155  1  0.07850012  0.91319598  0.44254823  1
  Se  Se156  1  0.06693252  0.92415031  0.93614008  1
  Se  Se157  1  0.40844508  0.26214146  0.43284893  1
  Se  Se158  1  0.40917298  0.26169946  0.93840292  1
  Se  Se159  1  0.41689101  0.58613202  0.45258984  1
  Se  Se160  1  0.42159773  0.58107871  0.95218745  1
  Se  Se161  1  0.42602513  0.91283400  0.45547584  1
  Se  Se162  1  0.41635739  0.91420372  0.93366787  1
  Se  Se163  1  0.74216117  0.25446847  0.44485695  1
  Se  Se164  1  0.74772008  0.25580918  0.94448122  1
  Se  Se165  1  0.74860825  0.58447359  0.44516015  1
  Se  Se166  1  0.75389731  0.57939028  0.94522929  1
  Se  Se167  1  0.75714881  0.91355956  0.45426233  1
  Se  Se168  1  0.75527386  0.90733758  0.94855177  1
  Se  Se169  1  0.25773765  0.06884760  0.45177873  1
  Se  Se170  1  0.24704319  0.07585454  0.93308289  1
  Se  Se171  1  0.24440034  0.42254794  0.44700094  1
  Se  Se172  1  0.25159187  0.40980938  0.93914149  1
  Se  Se173  1  0.25035466  0.74355712  0.44447896  1
  Se  Se174  1  0.26013500  0.73293563  0.93598939  1
  Se  Se175  1  0.59432367  0.07634348  0.44283631  1
  Se  Se176  1  0.59296180  0.07141838  0.93680809  1
  Se  Se177  1  0.58131638  0.41913162  0.45195651  1
  Se  Se178  1  0.58231769  0.42218659  0.94646445  1
  Se  Se179  1  0.58098705  0.74885904  0.45058697  1
  Se  Se180  1  0.59082502  0.74103638  0.93651138  1
  Se  Se181  1  0.92557471  0.07334690  0.44319644  1
  Se  Se182  1  0.90796668  0.08750483  0.94698679  1
  Se  Se183  1  0.91096032  0.41768036  0.45301579  1
  Se  Se184  1  0.91884906  0.42385540  0.93912265  1
  Se  Se185  1  0.91494299  0.74607438  0.44740103  1
  Se  Se186  1  0.91467761  0.75350610  0.94235966  1
  Se  Se187  1  0.24039025  0.23618547  0.30052874  1
  Se  Se188  1  0.24307518  0.24880897  0.81282048  1
  Se  Se189  1  0.24887614  0.58584329  0.30573504  1
  Se  Se190  1  0.25141879  0.56970490  0.79919113  1
  Se  Se191  1  0.23985805  0.90185399  0.31913742  1
  Se  Se192  1  0.27244721  0.93387772  0.80224778  1
  Se  Se193  1  0.59233274  0.25853695  0.29565452  1
  Se  Se194  1  0.58671234  0.24995404  0.80213280  1
  Se  Se195  1  0.58219863  0.58531185  0.30952833  1
  Se  Se196  1  0.58678470  0.58271596  0.80335609  1
  Se  Se197  1  0.58212654  0.91078306  0.31641728  1
  Se  Se198  1  0.58935189  0.91515466  0.80108798  1
  Se  Se199  1  0.91101421  0.24442623  0.31273883  1
  Se  Se200  1  0.91758564  0.25587476  0.80445583  1
  Se  Se201  1  0.92000083  0.58411245  0.30704968  1
  Se  Se202  1  0.91518683  0.59017413  0.80220656  1
  Se  Se203  1  0.91788400  0.91661818  0.30066709  1
  Se  Se204  1  0.90844186  0.91401595  0.80503733  1
  Se  Se205  1  0.07545506  0.07271253  0.29956199  1
  Se  Se206  1  0.07941396  0.08587429  0.80310071  1
  Se  Se207  1  0.08559238  0.42065293  0.31374305  1
  Se  Se208  1  0.08997971  0.43137997  0.78637534  1
  Se  Se209  1  0.07894035  0.74447999  0.30407067  1
  Se  Se210  1  0.10967665  0.77407646  0.80379800  1
  Se  Se211  1  0.42845048  0.09822908  0.30567775  1
  Se  Se212  1  0.41551184  0.08256193  0.79661362  1
  Se  Se213  1  0.41656025  0.42686325  0.30847521  1
  Se  Se214  1  0.42523808  0.42431034  0.80957736  1
  Se  Se215  1  0.41388364  0.74574194  0.30806567  1
  Se  Se216  1  0.42019117  0.74082842  0.80144898  1
  Se  Se217  1  0.75767094  0.08708951  0.31015805  1
  Se  Se218  1  0.75485881  0.08443994  0.80558516  1
  Se  Se219  1  0.74182245  0.41558215  0.30629906  1
  Se  Se220  1  0.74935686  0.41775735  0.80316608  1
  Se  Se221  1  0.75139076  0.75354812  0.30641454  1
  Se  Se222  1  0.74460682  0.74412956  0.80250303  1
  Se  Se223  1  0.24612961  0.07636926  0.18741650  1
  Se  Se224  1  0.25197961  0.08476952  0.70127452  1
  Se  Se225  1  0.24155505  0.42809119  0.18677903  1
  Se  Se226  1  0.25887189  0.41830746  0.68553759  1
  Se  Se227  1  0.25325926  0.75056699  0.19890762  1
  Se  Se228  1  0.22881676  0.76791163  0.70305827  1
  Se  Se229  1  0.57945089  0.08586643  0.18662555  1
  Se  Se230  1  0.59172672  0.07941770  0.70063791  1
  Se  Se231  1  0.58736908  0.42399718  0.19787458  1
  Se  Se232  1  0.58878662  0.41522729  0.69572806  1
  Se  Se233  1  0.58733760  0.75075204  0.19908283  1
  Se  Se234  1  0.58958764  0.74476524  0.69662992  1
  Se  Se235  1  0.91723794  0.07625175  0.19444899  1
  Se  Se236  1  0.91583583  0.08228231  0.69872661  1
  Se  Se237  1  0.90299078  0.43085215  0.19118257  1
  Se  Se238  1  0.91521147  0.41852258  0.69738890  1
  Se  Se239  1  0.91880300  0.74441601  0.19144675  1
  Se  Se240  1  0.91139894  0.74715404  0.69970539  1
  Se  Se241  1  0.08325116  0.24309469  0.18873131  1
  Se  Se242  1  0.08200588  0.25106091  0.69961950  1
  Se  Se243  1  0.08044353  0.58342417  0.20019922  1
  Se  Se244  1  0.07664140  0.58114583  0.70555903  1
  Se  Se245  1  0.08285395  0.91496162  0.20051140  1
  Se  Se246  1  0.06155396  0.93060718  0.70340243  1
  Se  Se247  1  0.42468250  0.24829150  0.17956579  1
  Se  Se248  1  0.43006456  0.24383351  0.68383997  1
  Se  Se249  1  0.41524872  0.58669305  0.19484187  1
  Se  Se250  1  0.41898217  0.58580929  0.69677758  1
  Se  Se251  1  0.42360141  0.90868887  0.19825164  1
  Se  Se252  1  0.42271374  0.91006967  0.70013603  1
  Se  Se253  1  0.75564487  0.25052579  0.19649720  1
  Se  Se254  1  0.75051234  0.25147295  0.69838750  1
  Se  Se255  1  0.73202151  0.60972331  0.18816709  1
  Se  Se256  1  0.74597592  0.58386513  0.69647535  1
  Se  Se257  1  0.75892859  0.90648460  0.18633640  1
  Se  Se258  1  0.74490558  0.91678132  0.69562462  1
