# generated using pymatgen
data_In86Cu29Se144
_symmetry_space_group_name_H-M   'P 1'
_cell_length_a   17.58197036
_cell_length_b   17.57866504
_cell_length_c   23.43692716
_cell_angle_alpha   89.99622591
_cell_angle_beta   90.02788228
_cell_angle_gamma   89.97579821
_symmetry_Int_Tables_number   1
_chemical_formula_structural   In86Cu29Se144
_chemical_formula_sum   'In86 Cu29 Se144'
_cell_volume   7243.59255288
_cell_formula_units_Z   1
loop_
 _symmetry_equiv_pos_site_id
 _symmetry_equiv_pos_as_xyz
  1  'x, y, z'
loop_
 _atom_site_type_symbol
 _atom_site_label
 _atom_site_symmetry_multiplicity
 _atom_site_fract_x
 _atom_site_fract_y
 _atom_site_fract_z
 _atom_site_occupancy
  In  In0  1  -0.00562586  0.16301044  0.12344402  1
  In  In1  1  -0.00132925  0.15455357  0.61263599  1
  In  In2  1  -0.00203073  0.50471793  0.10991541  1
  In  In3  1  0.01869963  0.50430704  0.62942463  1
  In  In4  1  0.01520294  0.85010604  0.13150198  1
  In  In5  1  0.00246575  0.83764778  0.62478877  1
  In  In6  1  0.32609739  0.17807362  0.13444249  1
  In  In7  1  0.31729060  0.15220024  0.61001974  1
  In  In8  1  0.32773888  0.50996780  0.13491582  1
  In  In9  1  0.32891952  0.50819837  0.62442190  1
  In  In10  1  0.32950952  0.82482503  0.13836453  1
  In  In11  1  0.33087248  0.85215330  0.62748953  1
  In  In12  1  0.67222027  0.16554743  0.13155898  1
  In  In13  1  0.67679360  0.17397083  0.61803383  1
  In  In14  1  0.67419823  0.49156622  0.13267058  1
  In  In15  1  0.66021416  0.48445552  0.62825992  1
  In  In16  1  0.65675665  0.84789768  0.13198601  1
  In  In17  1  0.67625511  0.82039242  0.61844050  1
  In  In18  1  0.16751509  -0.00088048  0.37528043  1
  In  In19  1  0.17590841  0.00621664  0.86910365  1
  In  In20  1  0.17361097  0.32522562  0.38262933  1
  In  In21  1  0.15917286  0.33347819  0.88365940  1
  In  In22  1  0.17337296  0.66400224  0.38354295  1
  In  In23  1  0.15653374  0.66299499  0.87079415  1
  In  In24  1  0.50485825  0.00877304  0.36930514  1
  In  In25  1  0.48366992  0.00120188  0.87735726  1
  In  In26  1  0.49089026  0.32541105  0.36445490  1
  In  In27  1  0.50135363  0.32061488  0.87294739  1
  In  In28  1  0.49113373  0.65253002  0.35602870  1
  In  In29  1  0.51491839  0.66774902  0.88247578  1
  In  In30  1  0.83307221  0.00052531  0.37880054  1
  In  In31  1  0.85012978  -0.00155717  0.87376219  1
  In  In32  1  0.82296215  0.32009403  0.37242510  1
  In  In33  1  0.83269429  0.33332583  0.87803733  1
  In  In34  1  0.83244469  0.67862529  0.37421068  1
  In  In35  1  0.83756892  0.65937254  0.87527225  1
  In  In36  1  0.01901324  0.13656454  0.40224254  1
  In  In37  1  0.00165537  0.16272964  0.87940143  1
  In  In38  1  0.00833373  0.51106795  0.37801485  1
  In  In39  1  -0.00121300  0.50075449  0.87588892  1
  In  In40  1  -0.00597686  0.85110313  0.38922439  1
  In  In41  1  0.02474791  0.84592310  0.84934285  1
  In  In42  1  0.33722310  0.16799652  0.37085430  1
  In  In43  1  0.32633069  0.15293173  0.87456291  1
  In  In44  1  0.32722114  0.49229265  0.36567761  1
  In  In45  1  0.33106907  0.48752285  0.88023241  1
  In  In46  1  0.31571309  0.82569441  0.36365826  1
  In  In47  1  0.32732311  0.84628514  0.87819706  1
  In  In48  1  0.66604465  0.16256127  0.37741667  1
  In  In49  1  0.67149292  0.17846649  0.87276244  1
  In  In50  1  0.64779894  0.48230468  0.34731084  1
  In  In51  1  0.68129598  0.50234014  0.87631029  1
  In  In52  1  0.66771558  0.83571695  0.36676754  1
  In  In53  1  0.66448388  0.82111850  0.88156057  1
  In  In54  1  0.15623718  0.00578993  0.14360588  1
  In  In55  1  0.15880073  -0.00140567  0.62050903  1
  In  In56  1  0.16953715  0.34132176  0.12225495  1
  In  In57  1  0.17316449  0.33609618  0.61511198  1
  In  In58  1  0.17483164  0.66908327  0.12642220  1
  In  In59  1  0.15832087  0.66522714  0.62324664  1
  In  In60  1  0.50240211  -0.00665259  0.13044726  1
  In  In61  1  0.48230194  -0.00174578  0.62214987  1
  In  In62  1  0.50065232  0.34289272  0.13908115  1
  In  In63  1  0.51681854  0.32835144  0.62910426  1
  In  In64  1  0.48545771  0.67655907  0.13711454  1
  In  In65  1  0.49869659  0.66089162  0.62319410  1
  In  In66  1  0.82739292  0.01265553  0.13206555  1
  In  In67  1  0.86040186  0.01682888  0.60165113  1
  In  In68  1  0.82544840  0.32823424  0.11922986  1
  In  In69  1  0.83174893  0.31144633  0.63128213  1
  In  In70  1  0.84119899  0.65658264  0.12238892  1
  In  In71  1  0.83772700  0.68412960  0.61837447  1
  In  In72  1  0.33593251  0.66599464  0.74653198  1
  In  In73  1  0.49466071  0.49611860  0.49741401  1
  In  In74  1  0.50020151  0.16581852  0.00282116  1
  In  In75  1  0.66971830  -0.00071592  0.74729187  1
  In  In76  1  0.16744235  0.83454231  0.00338262  1
  In  In77  1  0.33749320  0.33031280  0.74694095  1
  In  In78  1  -0.00916570  0.32532198  0.25397346  1
  In  In79  1  0.49874294  0.83850588  0.49087767  1
  In  In80  1  0.00011981  0.33097661  0.75118216  1
  In  In81  1  0.00373753  0.67730830  0.25202069  1
  In  In82  1  0.83403850  0.50192154  0.49257118  1
  In  In83  1  0.50042484  0.50164288  0.00974468  1
  In  In84  1  0.67481826  0.66209894  0.75058612  1
  In  In85  1  0.83673252  0.82991373  -0.00499418  1
  Cu  Cu86  1  0.49528583  0.83802655  0.25357466  1
  Cu  Cu87  1  0.66860997  0.66264962  0.48652928  1
  Cu  Cu88  1  0.49625254  0.83543425  0.75153338  1
  Cu  Cu89  1  0.32672746  0.67330774  0.50043450  1
  Cu  Cu90  1  0.16768340  0.49821856  0.24986849  1
  Cu  Cu91  1  0.66607530  -0.00447512  0.49271060  1
  Cu  Cu92  1  0.83216335  0.84026609  0.25297687  1
  Cu  Cu93  1  0.00683412  0.67075669  0.49936329  1
  Cu  Cu94  1  0.66941888  0.33703717  0.00158666  1
  Cu  Cu95  1  0.83222155  0.49807982  0.24536355  1
  Cu  Cu96  1  0.50373235  0.16462600  0.24989296  1
  Cu  Cu97  1  0.66316290  0.67173343  0.00668478  1
  Cu  Cu98  1  0.16968417  0.17162128  0.25937320  1
  Cu  Cu99  1  0.83561350  0.49781088  0.75255703  1
  Cu  Cu100  1  0.33617528  0.33296731  0.49178877  1
  Cu  Cu101  1  0.66759367  0.00451505  0.00755871  1
  Cu  Cu102  1  0.32789479  0.00477681  0.49474701  1
  Cu  Cu103  1  0.32795501  -0.00072584  0.00224758  1
  Cu  Cu104  1  0.49749625  0.16185670  0.74856148  1
  Cu  Cu105  1  -0.00169989  0.33595347  0.50582818  1
  Cu  Cu106  1  0.33232447  0.66689753  0.01062426  1
  Cu  Cu107  1  0.16387855  0.16289402  0.74428905  1
  Cu  Cu108  1  -0.00128559  0.32902237  -0.00063949  1
  Cu  Cu109  1  0.84419892  0.83967778  0.74253888  1
  Cu  Cu110  1  0.83785508  0.15787973  0.25443414  1
  Cu  Cu111  1  -0.00265154  0.66678175  -0.00822370  1
  Cu  Cu112  1  0.00094759  0.00512978  0.00294849  1
  Cu  Cu113  1  0.66693296  0.32739626  0.49779493  1
  Cu  Cu114  1  0.32020863  0.33031264  0.00563880  1
  Se  Se115  1  0.08670204  0.07887081  0.06171743  1
  Se  Se116  1  0.09009880  0.08393730  0.54521505  1
  Se  Se117  1  0.08285514  0.41481488  0.05037094  1
  Se  Se118  1  0.08437986  0.42164704  0.55257161  1
  Se  Se119  1  0.07060930  0.74396050  0.05977685  1
  Se  Se120  1  0.08703794  0.75574226  0.55381272  1
  Se  Se121  1  0.40815432  0.08019218  0.06320687  1
  Se  Se122  1  0.41839083  0.08334933  0.54587374  1
  Se  Se123  1  0.40661488  0.40810493  0.06283789  1
  Se  Se124  1  0.41028303  0.40625293  0.56286192  1
  Se  Se125  1  0.41171993  0.75525563  0.06076209  1
  Se  Se126  1  0.41286114  0.74924415  0.55877185  1
  Se  Se127  1  0.75136308  0.08960772  0.05573573  1
  Se  Se128  1  0.74499825  0.07912082  0.55009378  1
  Se  Se129  1  0.75227941  0.42352079  0.05279382  1
  Se  Se130  1  0.74882135  0.40920894  0.55630387  1
  Se  Se131  1  0.74709367  0.75227576  0.06423572  1
  Se  Se132  1  0.74986767  0.74515787  0.54119067  1
  Se  Se133  1  0.24142823  0.24249000  0.05721686  1
  Se  Se134  1  0.24933071  0.25104778  0.54520610  1
  Se  Se135  1  0.24731138  0.57948995  0.05679188  1
  Se  Se136  1  0.24802726  0.58608845  0.55437565  1
  Se  Se137  1  0.25065292  0.92303367  0.06787245  1
  Se  Se138  1  0.25043891  0.91956824  0.55131847  1
  Se  Se139  1  0.58564614  0.26082960  0.06221047  1
  Se  Se140  1  0.58093010  0.24671509  0.55109491  1
  Se  Se141  1  0.58765702  0.59210082  0.06986649  1
  Se  Se142  1  0.59478708  0.58597361  0.55424841  1
  Se  Se143  1  0.58056287  0.91947713  0.05303509  1
  Se  Se144  1  0.58836991  0.91921169  0.55957352  1
  Se  Se145  1  0.91522284  0.24805012  0.05468949  1
  Se  Se146  1  0.91370240  0.24941886  0.55294378  1
  Se  Se147  1  0.91051865  0.58370157  0.04169362  1
  Se  Se148  1  0.92438242  0.58659073  0.55751836  1
  Se  Se149  1  0.92017467  0.92138509  0.06048037  1
  Se  Se150  1  0.89659658  0.88938346  0.55697552  1
  Se  Se151  1  0.08256134  0.25403286  0.45110092  1
  Se  Se152  1  0.08390089  0.24330729  0.94994409  1
  Se  Se153  1  0.08965996  0.58101932  0.45262977  1
  Se  Se154  1  0.08529077  0.58093711  0.94564855  1
  Se  Se155  1  0.07784672  0.93780871  0.45195204  1
  Se  Se156  1  0.07775337  0.92215692  0.94099331  1
  Se  Se157  1  0.42150725  0.24880369  0.44289805  1
  Se  Se158  1  0.40300855  0.25417801  0.94385816  1
  Se  Se159  1  0.40725286  0.59159298  0.44072113  1
  Se  Se160  1  0.41129644  0.58990184  0.94509661  1
  Se  Se161  1  0.40566202  0.92327484  0.43207255  1
  Se  Se162  1  0.41412167  0.91629254  0.95160912  1
  Se  Se163  1  0.75160531  0.24214256  0.44894847  1
  Se  Se164  1  0.75014912  0.25048025  0.94883200  1
  Se  Se165  1  0.74019360  0.57672081  0.42609883  1
  Se  Se166  1  0.74579270  0.59445338  0.94798786  1
  Se  Se167  1  0.74709393  0.90906961  0.44216601  1
  Se  Se168  1  0.74326549  0.92600939  0.94035753  1
  Se  Se169  1  0.24966488  0.09141891  0.44018688  1
  Se  Se170  1  0.24427505  0.08282728  0.94978090  1
  Se  Se171  1  0.25201833  0.42170838  0.44500999  1
  Se  Se172  1  0.24361757  0.41770213  0.95086246  1
  Se  Se173  1  0.24656345  0.76063142  0.44892079  1
  Se  Se174  1  0.25424936  0.74093019  0.94247712  1
  Se  Se175  1  0.57967167  0.08229836  0.44723007  1
  Se  Se176  1  0.58922524  0.07848667  0.93905865  1
  Se  Se177  1  0.58923917  0.41052134  0.43814673  1
  Se  Se178  1  0.58476258  0.41292734  0.94148338  1
  Se  Se179  1  0.57849149  0.73856444  0.43233855  1
  Se  Se180  1  0.57813954  0.75625208  0.95711745  1
  Se  Se181  1  0.90215104  0.08424902  0.45468361  1
  Se  Se182  1  0.91401015  0.08425651  0.94975736  1
  Se  Se183  1  0.92369912  0.40759185  0.43500171  1
  Se  Se184  1  0.91860165  0.41517718  0.94416818  1
  Se  Se185  1  0.91784082  0.74811310  0.44683534  1
  Se  Se186  1  0.93261444  0.75616241  0.92869991  1
  Se  Se187  1  0.25525593  0.25958127  0.30487580  1
  Se  Se188  1  0.24064504  0.24516729  0.80767624  1
  Se  Se189  1  0.24457616  0.58611322  0.30493263  1
  Se  Se190  1  0.25146356  0.57405601  0.80962184  1
  Se  Se191  1  0.25170214  0.92731023  0.30106524  1
  Se  Se192  1  0.24049845  0.90643431  0.80422945  1
  Se  Se193  1  0.58772320  0.24656365  0.30484682  1
  Se  Se194  1  0.58148518  0.24518257  0.79992785  1
  Se  Se195  1  0.60148311  0.60111036  0.29564564  1
  Se  Se196  1  0.58022947  0.57524997  0.80891925  1
  Se  Se197  1  0.58374223  0.92085535  0.30167668  1
  Se  Se198  1  0.57997852  0.91084923  0.81312554  1
  Se  Se199  1  0.92071003  0.22817557  0.31971399  1
  Se  Se200  1  0.90989417  0.24085332  0.80796764  1
  Se  Se201  1  0.91150195  0.57815724  0.30624030  1
  Se  Se202  1  0.91879875  0.58248696  0.80328665  1
  Se  Se203  1  0.91682895  0.91870803  0.30825609  1
  Se  Se204  1  0.92393015  0.92632999  0.79533563  1
  Se  Se205  1  0.08238102  0.08885373  0.30906109  1
  Se  Se206  1  0.08352098  0.08667271  0.80597810  1
  Se  Se207  1  0.08572329  0.41915795  0.30940453  1
  Se  Se208  1  0.09307203  0.42141604  0.80662076  1
  Se  Se209  1  0.08217321  0.75731602  0.32350644  1
  Se  Se210  1  0.08696392  0.73829435  0.79342734  1
  Se  Se211  1  0.41565083  0.08323705  0.30012879  1
  Se  Se212  1  0.41192499  0.08156601  0.80169092  1
  Se  Se213  1  0.43879546  0.43925547  0.30724667  1
  Se  Se214  1  0.42657353  0.42094283  0.80927285  1
  Se  Se215  1  0.40977147  0.74934512  0.29910016  1
  Se  Se216  1  0.42433822  0.75161757  0.81441691  1
  Se  Se217  1  0.74825560  0.07954248  0.30736888  1
  Se  Se218  1  0.75768340  0.08614224  0.80965660  1
  Se  Se219  1  0.75710920  0.40735726  0.29793685  1
  Se  Se220  1  0.75258713  0.41525376  0.80528387  1
  Se  Se221  1  0.75054856  0.74966915  0.29924867  1
  Se  Se222  1  0.76328236  0.76182945  0.80621746  1
  Se  Se223  1  0.25097497  0.08848579  0.20292925  1
  Se  Se224  1  0.24744643  0.08053448  0.69047663  1
  Se  Se225  1  0.25054440  0.41347427  0.19761531  1
  Se  Se226  1  0.24337437  0.42283469  0.69344309  1
  Se  Se227  1  0.23298545  0.75361214  0.20274244  1
  Se  Se228  1  0.24809784  0.75666148  0.68864823  1
  Se  Se229  1  0.58573629  0.08129801  0.19514501  1
  Se  Se230  1  0.57671558  0.08408401  0.68542753  1
  Se  Se231  1  0.59446147  0.41330566  0.20367165  1
  Se  Se232  1  0.58188833  0.41399246  0.70285008  1
  Se  Se233  1  0.58020422  0.75724603  0.19803282  1
  Se  Se234  1  0.57743747  0.75506578  0.69328288  1
  Se  Se235  1  0.92495723  0.07942287  0.19936681  1
  Se  Se236  1  0.91547040  0.08742875  0.68810712  1
  Se  Se237  1  0.91708634  0.42240155  0.18635865  1
  Se  Se238  1  0.91208200  0.42125695  0.68648611  1
  Se  Se239  1  0.91098942  0.76291859  0.18812817  1
  Se  Se240  1  0.92200299  0.74671399  0.69450744  1
  Se  Se241  1  0.08917217  0.24637587  0.19298780  1
  Se  Se242  1  0.08906757  0.24745954  0.68464931  1
  Se  Se243  1  0.08226030  0.57472037  0.19097376  1
  Se  Se244  1  0.08903703  0.58709228  0.70168763  1
  Se  Se245  1  0.09134831  0.90940494  0.21206713  1
  Se  Se246  1  0.08052884  0.92152704  0.69454241  1
  Se  Se247  1  0.41853803  0.25238144  0.20095984  1
  Se  Se248  1  0.41642315  0.23590393  0.68336911  1
  Se  Se249  1  0.42342659  0.57508561  0.20122593  1
  Se  Se250  1  0.43172036  0.56856463  0.69540504  1
  Se  Se251  1  0.41152451  0.91977921  0.19861124  1
  Se  Se252  1  0.41424239  0.92224393  0.70245133  1
  Se  Se253  1  0.76048463  0.24626176  0.19828579  1
  Se  Se254  1  0.73885315  0.24853204  0.70039602  1
  Se  Se255  1  0.75427526  0.58789856  0.19447465  1
  Se  Se256  1  0.76087420  0.57594495  0.68393645  1
  Se  Se257  1  0.74883968  0.92333987  0.19787197  1
  Se  Se258  1  0.75580036  0.91146189  0.68406481  1
