# generated using pymatgen
data_In86Cu29Se144
_symmetry_space_group_name_H-M   'P 1'
_cell_length_a   17.58675483
_cell_length_b   17.58533211
_cell_length_c   23.44146704
_cell_angle_alpha   90.00665306
_cell_angle_beta   90.00066678
_cell_angle_gamma   90.00748094
_symmetry_Int_Tables_number   1
_chemical_formula_structural   In86Cu29Se144
_chemical_formula_sum   'In86 Cu29 Se144'
_cell_volume   7249.71718681
_cell_formula_units_Z   1
loop_
 _symmetry_equiv_pos_site_id
 _symmetry_equiv_pos_as_xyz
  1  'x, y, z'
loop_
 _atom_site_type_symbol
 _atom_site_label
 _atom_site_symmetry_multiplicity
 _atom_site_fract_x
 _atom_site_fract_y
 _atom_site_fract_z
 _atom_site_occupancy
  In  In0  1  0.00707470  0.17565608  0.13850035  1
  In  In1  1  -0.00843694  0.17982266  0.61237993  1
  In  In2  1  0.00737373  0.49609532  0.13729739  1
  In  In3  1  0.01424914  0.50927335  0.61246019  1
  In  In4  1  -0.01908164  0.83385439  0.12648087  1
  In  In5  1  -0.01508744  0.81211102  0.60282062  1
  In  In6  1  0.34194380  0.15969251  0.13758138  1
  In  In7  1  0.32918646  0.15188295  0.62498764  1
  In  In8  1  0.32916859  0.49722380  0.11801063  1
  In  In9  1  0.34129941  0.50566794  0.61906100  1
  In  In10  1  0.34676731  0.83482572  0.12362246  1
  In  In11  1  0.32211929  0.83746416  0.62764725  1
  In  In12  1  0.65080446  0.17315352  0.12350904  1
  In  In13  1  0.67517531  0.15553555  0.63367695  1
  In  In14  1  0.66961979  0.50940149  0.12177686  1
  In  In15  1  0.65857362  0.51125125  0.63232092  1
  In  In16  1  0.66820821  0.83155632  0.12336100  1
  In  In17  1  0.68050176  0.83192801  0.64188991  1
  In  In18  1  0.16935460  -0.00964050  0.37578961  1
  In  In19  1  0.17151575  -0.01412551  0.87218512  1
  In  In20  1  0.17288965  0.33822499  0.36630750  1
  In  In21  1  0.17882405  0.33831328  0.87625806  1
  In  In22  1  0.14937547  0.67144628  0.39167520  1
  In  In23  1  0.16172432  0.65559560  0.86866500  1
  In  In24  1  0.50452826  -0.00309993  0.36595693  1
  In  In25  1  0.49869219  -0.00100585  0.87694354  1
  In  In26  1  0.49457681  0.34489023  0.37264298  1
  In  In27  1  0.51579867  0.32588058  0.89258941  1
  In  In28  1  0.49878455  0.65466422  0.37504875  1
  In  In29  1  0.50166197  0.66557735  0.87414169  1
  In  In30  1  0.82873069  0.00457137  0.38059725  1
  In  In31  1  0.80997766  -0.00822038  0.86713230  1
  In  In32  1  0.83426533  0.31533232  0.37428515  1
  In  In33  1  0.83127530  0.34767126  0.87385903  1
  In  In34  1  0.84251304  0.67780233  0.37537630  1
  In  In35  1  0.83639205  0.67850883  0.86227188  1
  In  In36  1  -0.01469475  0.16875813  0.36852042  1
  In  In37  1  -0.00246594  0.17064193  0.87835839  1
  In  In38  1  0.01069389  0.51230783  0.37494378  1
  In  In39  1  -0.00672096  0.51479996  0.87695930  1
  In  In40  1  0.00258896  0.82119010  0.38944251  1
  In  In41  1  0.00120783  0.81605053  0.87365915  1
  In  In42  1  0.32380456  0.16248585  0.35909583  1
  In  In43  1  0.34643059  0.16933527  0.87574530  1
  In  In44  1  0.33434029  0.49551589  0.37860291  1
  In  In45  1  0.33068393  0.50406313  0.88077500  1
  In  In46  1  0.32385224  0.83417248  0.37604879  1
  In  In47  1  0.34594797  0.84206253  0.86716762  1
  In  In48  1  0.68251506  0.15734806  0.37140690  1
  In  In49  1  0.65730210  0.16076677  0.87235433  1
  In  In50  1  0.64975456  0.50215859  0.37504533  1
  In  In51  1  0.65779303  0.49264004  0.86897477  1
  In  In52  1  0.67653504  0.84088612  0.37158620  1
  In  In53  1  0.66400122  0.82782757  0.87267172  1
  In  In54  1  0.17022378  0.01441223  0.13531079  1
  In  In55  1  0.18339719  -0.01593523  0.62284365  1
  In  In56  1  0.16256926  0.34204169  0.14110455  1
  In  In57  1  0.16040908  0.34441347  0.61539503  1
  In  In58  1  0.17042803  0.65488132  0.12654280  1
  In  In59  1  0.16557623  0.66796312  0.62376870  1
  In  In60  1  0.50200048  -0.00020764  0.12406742  1
  In  In61  1  0.50024171  -0.00159743  0.63238734  1
  In  In62  1  0.49789342  0.32210787  0.11052334  1
  In  In63  1  0.49994310  0.34841659  0.62399083  1
  In  In64  1  0.50882170  0.68039661  0.11240431  1
  In  In65  1  0.50658752  0.66108569  0.63291082  1
  In  In66  1  0.83356304  -0.01721398  0.12424928  1
  In  In67  1  0.82540856  -0.00903765  0.61977782  1
  In  In68  1  0.83192324  0.34242577  0.13138218  1
  In  In69  1  0.83427672  0.32269211  0.61817218  1
  In  In70  1  0.82381967  0.67174568  0.13417399  1
  In  In71  1  0.82730550  0.67916527  0.63358784  1
  In  In72  1  0.33494295  0.66966608  0.24990359  1
  In  In73  1  -0.00295801  -0.00005362  0.25478189  1
  In  In74  1  0.82844580  0.16541160  0.00071403  1
  In  In75  1  0.82779692  0.50463599  0.00297964  1
  In  In76  1  0.16130877  0.16450914  0.49019094  1
  In  In77  1  -0.00104746  0.34209321  0.73601292  1
  In  In78  1  0.66594557  0.33264401  0.24867197  1
  In  In79  1  -0.00125676  -0.00850877  0.73980100  1
  In  In80  1  0.34059297  0.33085607  0.75114457  1
  In  In81  1  0.17171683  0.82673224  0.00179307  1
  In  In82  1  0.49980196  0.83187589  0.50519760  1
  In  In83  1  0.17186212  0.16747529  0.01541690  1
  In  In84  1  0.49926927  0.16862975  0.50406908  1
  In  In85  1  0.83215730  0.50184570  0.49724146  1
  Cu  Cu86  1  -0.01145772  -0.00585078  0.00258317  1
  Cu  Cu87  1  0.83004808  0.50640041  0.74851038  1
  Cu  Cu88  1  0.49909482  0.50417258  0.24696570  1
  Cu  Cu89  1  0.32981539  0.65824177  0.50074055  1
  Cu  Cu90  1  0.66715375  0.67010353  -0.00366833  1
  Cu  Cu91  1  0.49954577  0.16644033  0.24619715  1
  Cu  Cu92  1  -0.00130514  0.66095638  -0.00168748  1
  Cu  Cu93  1  0.16332886  0.83339677  0.25894109  1
  Cu  Cu94  1  0.66425788  0.66857164  0.50860237  1
  Cu  Cu95  1  0.33550327  0.33969895  0.00209606  1
  Cu  Cu96  1  0.49987738  0.49944501  0.75331879  1
  Cu  Cu97  1  0.32875384  0.33411448  0.49469485  1
  Cu  Cu98  1  0.67375462  0.00092783  0.50262007  1
  Cu  Cu99  1  0.50703598  0.83510896  0.24252743  1
  Cu  Cu100  1  0.49865589  0.83150967  0.75326205  1
  Cu  Cu101  1  0.01133703  0.33841986  0.01203747  1
  Cu  Cu102  1  0.16632367  0.50246021  0.74844834  1
  Cu  Cu103  1  0.17152864  0.82387549  0.74848501  1
  Cu  Cu104  1  0.83144773  0.82721390  0.25259350  1
  Cu  Cu105  1  0.65974529  -0.00554854  -0.00278196  1
  Cu  Cu106  1  0.50186645  0.16360483  0.75507194  1
  Cu  Cu107  1  0.83768296  0.50068825  0.25421173  1
  Cu  Cu108  1  0.66565551  0.33511926  0.49480471  1
  Cu  Cu109  1  0.16450873  0.15307887  0.74440118  1
  Cu  Cu110  1  0.00287372  0.00207441  0.49648118  1
  Cu  Cu111  1  0.83094582  0.17164162  0.74685141  1
  Cu  Cu112  1  0.33743212  0.66654718  -0.00367717  1
  Cu  Cu113  1  0.16660086  0.50892181  0.25378826  1
  Cu  Cu114  1  0.33847057  0.00606566  0.00175533  1
  Se  Se115  1  0.06805137  0.07460919  0.06191436  1
  Se  Se116  1  0.08188226  0.07669194  0.56183858  1
  Se  Se117  1  0.09195794  0.42285405  0.06364867  1
  Se  Se118  1  0.06272703  0.40125283  0.54775466  1
  Se  Se119  1  0.07506850  0.74341064  0.06174491  1
  Se  Se120  1  0.10421417  0.76336993  0.55233377  1
  Se  Se121  1  0.41764820  0.08870113  0.05847942  1
  Se  Se122  1  0.41131728  0.06792229  0.55443339  1
  Se  Se123  1  0.42239016  0.42359220  0.05169188  1
  Se  Se124  1  0.41416422  0.41452015  0.54950218  1
  Se  Se125  1  0.41618121  0.75645191  0.04656770  1
  Se  Se126  1  0.41027864  0.73849615  0.56226099  1
  Se  Se127  1  0.74126276  0.07252173  0.06030939  1
  Se  Se128  1  0.75429085  0.08962204  0.55416648  1
  Se  Se129  1  0.74054383  0.40497104  0.05577486  1
  Se  Se130  1  0.73905297  0.41661824  0.55978015  1
  Se  Se131  1  0.75214438  0.74602402  0.05505515  1
  Se  Se132  1  0.74453847  0.75520288  0.55969435  1
  Se  Se133  1  0.26013492  0.26201962  0.06933147  1
  Se  Se134  1  0.25547040  0.25118138  0.55732179  1
  Se  Se135  1  0.25080625  0.58696093  0.04995515  1
  Se  Se136  1  0.24455283  0.57709338  0.55498730  1
  Se  Se137  1  0.25254602  0.92891795  0.06084817  1
  Se  Se138  1  0.25635663  0.91116971  0.54560526  1
  Se  Se139  1  0.58895535  0.24920955  0.04364011  1
  Se  Se140  1  0.59163689  0.25607204  0.56265009  1
  Se  Se141  1  0.58618164  0.58458620  0.04989368  1
  Se  Se142  1  0.57850460  0.58202332  0.55498499  1
  Se  Se143  1  0.58035394  0.91191806  0.05582925  1
  Se  Se144  1  0.59359613  0.92119035  0.56286096  1
  Se  Se145  1  0.92344799  0.25514254  0.06181629  1
  Se  Se146  1  0.91474669  0.25753875  0.54080146  1
  Se  Se147  1  0.92172802  0.58603958  0.06561731  1
  Se  Se148  1  0.91306218  0.59539610  0.55990815  1
  Se  Se149  1  0.90586162  0.90421961  0.04720966  1
  Se  Se150  1  0.91579121  0.92124569  0.54921828  1
  Se  Se151  1  0.07615835  0.25713669  0.43263165  1
  Se  Se152  1  0.08353035  0.25615566  0.94728030  1
  Se  Se153  1  0.07827744  0.57961359  0.45849307  1
  Se  Se154  1  0.08624026  0.58049358  0.94747603  1
  Se  Se155  1  0.08705555  0.91618697  0.44789740  1
  Se  Se156  1  0.07616225  0.91870716  0.94439147  1
  Se  Se157  1  0.40912908  0.25067266  0.43739889  1
  Se  Se158  1  0.41463629  0.24968326  0.95145241  1
  Se  Se159  1  0.41762865  0.57942961  0.44744516  1
  Se  Se160  1  0.42197762  0.58162126  0.94582317  1
  Se  Se161  1  0.41677418  0.92086674  0.43950349  1
  Se  Se162  1  0.41414995  0.91755321  0.94730745  1
  Se  Se163  1  0.74575893  0.24621326  0.44647036  1
  Se  Se164  1  0.74710198  0.25606022  0.93677969  1
  Se  Se165  1  0.73799083  0.59172725  0.44029298  1
  Se  Se166  1  0.74773504  0.59099050  0.93435341  1
  Se  Se167  1  0.75284613  0.91387168  0.44911179  1
  Se  Se168  1  0.74525431  0.91221371  0.94533417  1
  Se  Se169  1  0.26213311  0.07687890  0.44098368  1
  Se  Se170  1  0.25031002  0.07976688  0.94245560  1
  Se  Se171  1  0.24347633  0.41815498  0.44497183  1
  Se  Se172  1  0.24799413  0.42000055  0.95050701  1
  Se  Se173  1  0.25361059  0.74700597  0.44720912  1
  Se  Se174  1  0.25637733  0.74488239  0.93369200  1
  Se  Se175  1  0.58871760  0.07689474  0.44294056  1
  Se  Se176  1  0.57962728  0.08384225  0.94699193  1
  Se  Se177  1  0.57679704  0.41726202  0.44769694  1
  Se  Se178  1  0.58772900  0.42644414  0.95108011  1
  Se  Se179  1  0.58765222  0.74554319  0.44053386  1
  Se  Se180  1  0.57974980  0.75155611  0.94485358  1
  Se  Se181  1  0.91844867  0.08571217  0.44540673  1
  Se  Se182  1  0.91531519  0.07298038  0.93740715  1
  Se  Se183  1  0.91621113  0.41569187  0.43251954  1
  Se  Se184  1  0.92771874  0.41162161  0.94816293  1
  Se  Se185  1  0.90851153  0.75124770  0.45601222  1
  Se  Se186  1  0.91539677  0.74294945  0.94496093  1
  Se  Se187  1  0.26629367  0.26865849  0.29903863  1
  Se  Se188  1  0.24169630  0.23775401  0.80511234  1
  Se  Se189  1  0.24508222  0.58922488  0.31558660  1
  Se  Se190  1  0.25427018  0.57841943  0.80325606  1
  Se  Se191  1  0.25342277  0.91833536  0.30121190  1
  Se  Se192  1  0.25205616  0.91425969  0.79849415  1
  Se  Se193  1  0.57772163  0.24277374  0.31264958  1
  Se  Se194  1  0.57852994  0.25374488  0.80746047  1
  Se  Se195  1  0.58310570  0.58697768  0.29878171  1
  Se  Se196  1  0.58532421  0.58590744  0.80239611  1
  Se  Se197  1  0.59015476  0.91541031  0.30010716  1
  Se  Se198  1  0.57996366  0.91687226  0.80726535  1
  Se  Se199  1  0.90976619  0.24817311  0.29537674  1
  Se  Se200  1  0.91454350  0.25128201  0.80503395  1
  Se  Se201  1  0.91781224  0.58692479  0.30767828  1
  Se  Se202  1  0.91950245  0.58612124  0.79936364  1
  Se  Se203  1  0.91334656  0.90535769  0.31508222  1
  Se  Se204  1  0.91608309  0.91162636  0.81106694  1
  Se  Se205  1  0.09093970  0.08831078  0.31171106  1
  Se  Se206  1  0.08331309  0.08437331  0.81022261  1
  Se  Se207  1  0.08255646  0.42288463  0.30394654  1
  Se  Se208  1  0.08629720  0.42059046  0.80876106  1
  Se  Se209  1  0.08211547  0.74984351  0.31168315  1
  Se  Se210  1  0.08405319  0.74399763  0.80088610  1
  Se  Se211  1  0.41949175  0.08073939  0.30039808  1
  Se  Se212  1  0.41472481  0.08082247  0.80491015  1
  Se  Se213  1  0.41452623  0.42360985  0.30070041  1
  Se  Se214  1  0.42520656  0.41652850  0.81616815  1
  Se  Se215  1  0.42761550  0.75990104  0.30920200  1
  Se  Se216  1  0.41546391  0.74399841  0.80319465  1
  Se  Se217  1  0.75022310  0.06963297  0.30103117  1
  Se  Se218  1  0.74739465  0.09045729  0.80080379  1
  Se  Se219  1  0.75242692  0.42235658  0.31354470  1
  Se  Se220  1  0.75009868  0.41824516  0.79979791  1
  Se  Se221  1  0.74682472  0.74389179  0.30561150  1
  Se  Se222  1  0.74833975  0.75694788  0.79841557  1
  Se  Se223  1  0.24751272  0.09232608  0.20557296  1
  Se  Se224  1  0.25303621  0.07115961  0.69742464  1
  Se  Se225  1  0.25373360  0.43075727  0.19928548  1
  Se  Se226  1  0.24577543  0.41761262  0.69118983  1
  Se  Se227  1  0.24313818  0.76138510  0.19035994  1
  Se  Se228  1  0.25582532  0.74076139  0.69563381  1
  Se  Se229  1  0.58429310  0.08288725  0.19501478  1
  Se  Se230  1  0.58392082  0.08033321  0.69989114  1
  Se  Se231  1  0.57778245  0.42113272  0.18649626  1
  Se  Se232  1  0.58312377  0.41679214  0.69894790  1
  Se  Se233  1  0.58645038  0.74547002  0.19282373  1
  Se  Se234  1  0.58376338  0.75029905  0.69955911  1
  Se  Se235  1  0.90802583  0.08402326  0.18938773  1
  Se  Se236  1  0.91396603  0.09507895  0.68715898  1
  Se  Se237  1  0.91833985  0.41427501  0.20206015  1
  Se  Se238  1  0.90626130  0.43184673  0.68039362  1
  Se  Se239  1  0.91851651  0.74547364  0.20115318  1
  Se  Se240  1  0.92274545  0.75916306  0.69320740  1
  Se  Se241  1  0.09296138  0.24733414  0.20688184  1
  Se  Se242  1  0.09253159  0.24123726  0.68666892  1
  Se  Se243  1  0.08249385  0.59253254  0.20163956  1
  Se  Se244  1  0.08254816  0.58256435  0.69332141  1
  Se  Se245  1  0.08633289  0.90860720  0.19049912  1
  Se  Se246  1  0.09055340  0.90020005  0.68555711  1
  Se  Se247  1  0.42452632  0.25873041  0.19420334  1
  Se  Se248  1  0.42555608  0.23905909  0.68677567  1
  Se  Se249  1  0.42282408  0.58633657  0.18397119  1
  Se  Se250  1  0.41551741  0.57860189  0.69735839  1
  Se  Se251  1  0.41794228  0.91908707  0.19622329  1
  Se  Se252  1  0.41597595  0.91116227  0.69524860  1
  Se  Se253  1  0.75502669  0.23949105  0.19074476  1
  Se  Se254  1  0.74909115  0.25712432  0.69424597  1
  Se  Se255  1  0.74941522  0.57754331  0.19975082  1
  Se  Se256  1  0.74482218  0.59158583  0.69894373  1
  Se  Se257  1  0.75050805  0.91049552  0.19721342  1
  Se  Se258  1  0.75188702  0.93142397  0.70282823  1
