# generated using pymatgen
data_In86Cu29Se144
_symmetry_space_group_name_H-M   'P 1'
_cell_length_a   17.58300651
_cell_length_b   17.58613485
_cell_length_c   23.44016853
_cell_angle_alpha   90.01225111
_cell_angle_beta   89.98643706
_cell_angle_gamma   90.00131648
_symmetry_Int_Tables_number   1
_chemical_formula_structural   In86Cu29Se144
_chemical_formula_sum   'In86 Cu29 Se144'
_cell_volume   7248.10111680
_cell_formula_units_Z   1
loop_
 _symmetry_equiv_pos_site_id
 _symmetry_equiv_pos_as_xyz
  1  'x, y, z'
loop_
 _atom_site_type_symbol
 _atom_site_label
 _atom_site_symmetry_multiplicity
 _atom_site_fract_x
 _atom_site_fract_y
 _atom_site_fract_z
 _atom_site_occupancy
  In  In0  1  0.00011903  0.15870592  0.13761777  1
  In  In1  1  0.00104173  0.16486057  0.62267170  1
  In  In2  1  -0.01010902  0.51179963  0.13090004  1
  In  In3  1  0.00026376  0.50122814  0.63207053  1
  In  In4  1  0.00972084  0.81915715  0.13805236  1
  In  In5  1  -0.00122295  0.83809629  0.63125738  1
  In  In6  1  0.34231560  0.17640471  0.12844272  1
  In  In7  1  0.32735117  0.17514952  0.62963039  1
  In  In8  1  0.33035644  0.48622628  0.12111950  1
  In  In9  1  0.33494915  0.49881573  0.63067552  1
  In  In10  1  0.32567565  0.83031643  0.11261441  1
  In  In11  1  0.30222675  0.85416007  0.65202875  1
  In  In12  1  0.66847681  0.16670258  0.12949678  1
  In  In13  1  0.67768527  0.15775877  0.63377503  1
  In  In14  1  0.68062804  0.50598737  0.11441883  1
  In  In15  1  0.64899140  0.50507450  0.62125854  1
  In  In16  1  0.65547047  0.83348536  0.11960450  1
  In  In17  1  0.68121074  0.84049019  0.62587468  1
  In  In18  1  0.15141735  0.01322883  0.39006233  1
  In  In19  1  0.15612376  -0.02513638  0.84980510  1
  In  In20  1  0.15696823  0.32536681  0.36983979  1
  In  In21  1  0.16523221  0.32815393  0.86573339  1
  In  In22  1  0.15997271  0.67983030  0.37939503  1
  In  In23  1  0.17049564  0.67407184  0.86548826  1
  In  In24  1  0.49490782  0.00099544  0.37805468  1
  In  In25  1  0.48992095  -0.01168123  0.86003158  1
  In  In26  1  0.50870559  0.34588380  0.37540946  1
  In  In27  1  0.50911550  0.33701755  0.86639940  1
  In  In28  1  0.49760646  0.65734993  0.37711370  1
  In  In29  1  0.49513298  0.67326989  0.88365938  1
  In  In30  1  0.84217892  -0.00759128  0.38296455  1
  In  In31  1  0.83958878  -0.00638538  0.86055748  1
  In  In32  1  0.83882172  0.31776876  0.37830339  1
  In  In33  1  0.84046190  0.33977144  0.86980809  1
  In  In34  1  0.85093632  0.69062095  0.35520614  1
  In  In35  1  0.83101318  0.66035746  0.87211610  1
  In  In36  1  -0.00163462  0.16476234  0.37557106  1
  In  In37  1  0.00133370  0.16307010  0.86718401  1
  In  In38  1  -0.00030203  0.50242603  0.36787804  1
  In  In39  1  -0.00297293  0.49869514  0.87040087  1
  In  In40  1  -0.00323576  0.83772801  0.37696735  1
  In  In41  1  0.00521166  0.83510335  0.86228831  1
  In  In42  1  0.32092544  0.16334411  0.37762081  1
  In  In43  1  0.33764844  0.16231612  0.85721966  1
  In  In44  1  0.34777170  0.50122596  0.37944942  1
  In  In45  1  0.34243920  0.50881426  0.87210309  1
  In  In46  1  0.32250321  0.82016925  0.38018619  1
  In  In47  1  0.33308779  0.83098529  0.86815447  1
  In  In48  1  0.67230162  0.17779455  0.37954823  1
  In  In49  1  0.65919726  0.16590750  0.86035257  1
  In  In50  1  0.65547349  0.50580842  0.37776899  1
  In  In51  1  0.67438354  0.49401780  0.88043683  1
  In  In52  1  0.69616963  0.84238015  0.36943046  1
  In  In53  1  0.66451997  0.82391446  0.87248357  1
  In  In54  1  0.16131766  -0.01476239  0.12038223  1
  In  In55  1  0.15599099  -0.00316147  0.62701595  1
  In  In56  1  0.16859723  0.33225386  0.13205199  1
  In  In57  1  0.17645845  0.32364870  0.62932129  1
  In  In58  1  0.14917215  0.67334789  0.12147646  1
  In  In59  1  0.14204702  0.69184303  0.65133132  1
  In  In60  1  0.50505825  -0.00433900  0.11996445  1
  In  In61  1  0.50095122  0.01304379  0.64196132  1
  In  In62  1  0.48841863  0.33263641  0.12392257  1
  In  In63  1  0.48868071  0.34035691  0.63462476  1
  In  In64  1  0.50500490  0.66926794  0.11572341  1
  In  In65  1  0.49303559  0.65698657  0.62170173  1
  In  In66  1  0.84309691  -0.00412730  0.13248208  1
  In  In67  1  0.83426008  0.00046898  0.62806552  1
  In  In68  1  0.82901564  0.34529459  0.12741407  1
  In  In69  1  0.84615099  0.32321788  0.62793586  1
  In  In70  1  0.85006412  0.65403896  0.13482621  1
  In  In71  1  0.83673829  0.68660620  0.62434875  1
  In  In72  1  0.82767757  0.50286249  0.49320140  1
  In  In73  1  0.49989324  0.17068469  0.50941074  1
  In  In74  1  0.17102484  0.16026336  -0.01272046  1
  In  In75  1  0.32522710  0.00433216  0.25347460  1
  In  In76  1  0.49955399  0.82560598  0.50821570  1
  In  In77  1  0.83117527  0.16972494  0.00643691  1
  In  In78  1  0.49873814  0.16266378  0.00066132  1
  In  In79  1  0.67484032  0.66624852  0.75234014  1
  In  In80  1  0.17439551  0.50030033  0.50759515  1
  In  In81  1  0.66979823  0.33647395  0.25281072  1
  In  In82  1  0.66925958  0.00250818  0.24938334  1
  In  In83  1  0.32662993  0.66201050  0.25012545  1
  In  In84  1  0.16687547  0.50847672  -0.00248143  1
  In  In85  1  0.83667979  0.82689557  -0.00093970  1
  Cu  Cu86  1  0.33624231  0.33463192  0.50621399  1
  Cu  Cu87  1  -0.00108272  0.67446141  0.50279314  1
  Cu  Cu88  1  0.66175828  -0.00497136  -0.00413523  1
  Cu  Cu89  1  -0.00477969  0.34438455  0.00046088  1
  Cu  Cu90  1  0.50098135  0.49805832  0.75201625  1
  Cu  Cu91  1  0.16350810  0.16565846  0.25527847  1
  Cu  Cu92  1  0.66756162  0.33786904  -0.00758926  1
  Cu  Cu93  1  0.83450687  0.49990504  0.24887105  1
  Cu  Cu94  1  0.82909631  0.49601152  0.74993759  1
  Cu  Cu95  1  0.50496766  0.82353060  0.75229444  1
  Cu  Cu96  1  0.67253073  0.00183143  0.50699695  1
  Cu  Cu97  1  0.16438168  0.16514242  0.74443926  1
  Cu  Cu98  1  0.66791764  0.33519474  0.50182217  1
  Cu  Cu99  1  0.00396735  -0.00443525  -0.00917263  1
  Cu  Cu100  1  0.00602396  0.32139986  0.50007531  1
  Cu  Cu101  1  0.15672019  0.84021763  0.25409887  1
  Cu  Cu102  1  0.66849736  0.66246808  -0.00166605  1
  Cu  Cu103  1  0.49990273  0.49721829  0.24979382  1
  Cu  Cu104  1  0.33648409  0.66993571  -0.00676389  1
  Cu  Cu105  1  -0.00185050  -0.00441927  0.50512934  1
  Cu  Cu106  1  0.33741811  0.33410796  -0.00414841  1
  Cu  Cu107  1  0.50025779  0.83487515  0.24389425  1
  Cu  Cu108  1  0.66736067  0.67331294  0.49810147  1
  Cu  Cu109  1  0.32529349  0.67061617  0.51041166  1
  Cu  Cu110  1  0.33022274  -0.00987258  -0.01204295  1
  Cu  Cu111  1  0.16696889  0.49465808  0.75086485  1
  Cu  Cu112  1  0.16826834  0.49785919  0.24716641  1
  Cu  Cu113  1  0.32235059  -0.00860611  0.50797036  1
  Cu  Cu114  1  0.83783248  0.16956527  0.74771560  1
  Se  Se115  1  0.07685542  0.08111987  0.05352554  1
  Se  Se116  1  0.08385106  0.08221127  0.55323678  1
  Se  Se117  1  0.08296571  0.41565082  0.06099802  1
  Se  Se118  1  0.07819432  0.40851163  0.56076552  1
  Se  Se119  1  0.08040832  0.76203168  0.05235788  1
  Se  Se120  1  0.08168054  0.75164281  0.56097979  1
  Se  Se121  1  0.40017456  0.07197646  0.05571019  1
  Se  Se122  1  0.40935407  0.07284946  0.56162790  1
  Se  Se123  1  0.41949880  0.41728744  0.04901610  1
  Se  Se124  1  0.41759606  0.42074825  0.55720856  1
  Se  Se125  1  0.41859289  0.75269769  0.05010170  1
  Se  Se126  1  0.39985904  0.75563709  0.57135684  1
  Se  Se127  1  0.74058278  0.06936001  0.05995128  1
  Se  Se128  1  0.75629069  0.08787655  0.55628367  1
  Se  Se129  1  0.75599972  0.41431113  0.04714348  1
  Se  Se130  1  0.74814309  0.41584132  0.56266826  1
  Se  Se131  1  0.74773511  0.74026559  0.06181429  1
  Se  Se132  1  0.75028344  0.75583878  0.55083493  1
  Se  Se133  1  0.25442667  0.25361255  0.05371063  1
  Se  Se134  1  0.25014984  0.24761118  0.55140828  1
  Se  Se135  1  0.25805618  0.59602506  0.06143827  1
  Se  Se136  1  0.24426848  0.59584602  0.57383993  1
  Se  Se137  1  0.24350553  0.91486824  0.04534444  1
  Se  Se138  1  0.24072825  0.90819069  0.56019718  1
  Se  Se139  1  0.59321352  0.25686282  0.05706359  1
  Se  Se140  1  0.59137989  0.25822770  0.56769085  1
  Se  Se141  1  0.58335680  0.57812521  0.05027902  1
  Se  Se142  1  0.58015595  0.59001557  0.54643216  1
  Se  Se143  1  0.57553447  0.91234259  0.04632859  1
  Se  Se144  1  0.58253165  0.92810244  0.56333668  1
  Se  Se145  1  0.92715011  0.25689022  0.06349958  1
  Se  Se146  1  0.91568926  0.24389968  0.55089030  1
  Se  Se147  1  0.92094245  0.58737971  0.05310680  1
  Se  Se148  1  0.91969436  0.58726343  0.55783461  1
  Se  Se149  1  0.92457512  0.92197294  0.05617446  1
  Se  Se150  1  0.91399107  0.91377263  0.55872754  1
  Se  Se151  1  0.08976249  0.24156086  0.44528165  1
  Se  Se152  1  0.07248026  0.25875688  0.94249318  1
  Se  Se153  1  0.07641269  0.58571610  0.44660494  1
  Se  Se154  1  0.07822629  0.59400121  0.93632613  1
  Se  Se155  1  0.08177128  0.91139648  0.45054087  1
  Se  Se156  1  0.08610313  0.91484970  0.93645801  1
  Se  Se157  1  0.41532334  0.25627789  0.44120265  1
  Se  Se158  1  0.41134342  0.24877750  0.93634504  1
  Se  Se159  1  0.40987985  0.59291396  0.45296862  1
  Se  Se160  1  0.42032015  0.57904340  0.94999302  1
  Se  Se161  1  0.40609778  0.91826348  0.44514576  1
  Se  Se162  1  0.42078003  0.91093217  0.93887452  1
  Se  Se163  1  0.75330087  0.25005577  0.45382645  1
  Se  Se164  1  0.74418012  0.24947065  0.93681741  1
  Se  Se165  1  0.74864000  0.60000874  0.43336613  1
  Se  Se166  1  0.75517207  0.58180509  0.94666577  1
  Se  Se167  1  0.75320357  0.91641203  0.45375241  1
  Se  Se168  1  0.74967860  0.92197706  0.93801014  1
  Se  Se169  1  0.25041327  0.08375190  0.45361903  1
  Se  Se170  1  0.25540595  0.07064923  0.92549653  1
  Se  Se171  1  0.25579534  0.41019162  0.44088222  1
  Se  Se172  1  0.25146679  0.41086288  0.93810370  1
  Se  Se173  1  0.24127302  0.75075954  0.45549829  1
  Se  Se174  1  0.25143281  0.75018061  0.94019112  1
  Se  Se175  1  0.58939138  0.07843374  0.44553284  1
  Se  Se176  1  0.58461891  0.07618015  0.93567865  1
  Se  Se177  1  0.58392892  0.42074429  0.45198877  1
  Se  Se178  1  0.57750664  0.41772241  0.94410557  1
  Se  Se179  1  0.58744168  0.75376191  0.43549659  1
  Se  Se180  1  0.58729576  0.75112496  0.94887314  1
  Se  Se181  1  0.92021673  0.08216698  0.44837425  1
  Se  Se182  1  0.91718923  0.07956825  0.94080660  1
  Se  Se183  1  0.92890688  0.41082918  0.44407240  1
  Se  Se184  1  0.91311730  0.42282563  0.94443685  1
  Se  Se185  1  0.91366931  0.74991169  0.44481773  1
  Se  Se186  1  0.92549004  0.74525554  0.93427080  1
  Se  Se187  1  0.25086798  0.24851607  0.30428809  1
  Se  Se188  1  0.24898581  0.24914269  0.79693922  1
  Se  Se189  1  0.24043646  0.57516649  0.31638173  1
  Se  Se190  1  0.24985531  0.57876659  0.80411170  1
  Se  Se191  1  0.23958043  0.91419763  0.31644883  1
  Se  Se192  1  0.27303609  0.92606629  0.79548790  1
  Se  Se193  1  0.57661874  0.24313608  0.30816374  1
  Se  Se194  1  0.58308771  0.25426564  0.79520917  1
  Se  Se195  1  0.57926217  0.58399459  0.30233506  1
  Se  Se196  1  0.58117404  0.58039979  0.81266045  1
  Se  Se197  1  0.57562681  0.91122858  0.31012082  1
  Se  Se198  1  0.58972078  0.90921881  0.80184572  1
  Se  Se199  1  0.92786999  0.25721575  0.30611260  1
  Se  Se200  1  0.92053028  0.25235856  0.80332765  1
  Se  Se201  1  0.92135247  0.58529335  0.29804360  1
  Se  Se202  1  0.91259357  0.58082486  0.80133344  1
  Se  Se203  1  0.89878127  0.90115532  0.30813617  1
  Se  Se204  1  0.93149400  0.92563187  0.79408188  1
  Se  Se205  1  0.08215785  0.07852817  0.30643401  1
  Se  Se206  1  0.08114328  0.08154578  0.79736550  1
  Se  Se207  1  0.08370944  0.41737358  0.30273949  1
  Se  Se208  1  0.07921666  0.41326320  0.80282667  1
  Se  Se209  1  0.07811470  0.75060343  0.30571789  1
  Se  Se210  1  0.09527856  0.75869855  0.79453782  1
  Se  Se211  1  0.42239025  0.09245812  0.30868847  1
  Se  Se212  1  0.43254772  0.09033169  0.79412172  1
  Se  Se213  1  0.41760004  0.41644086  0.30495627  1
  Se  Se214  1  0.41411645  0.41594975  0.80413285  1
  Se  Se215  1  0.42018139  0.75639465  0.30664045  1
  Se  Se216  1  0.41972177  0.74170948  0.80427247  1
  Se  Se217  1  0.75517056  0.08737301  0.31494547  1
  Se  Se218  1  0.75553425  0.08579539  0.80162008  1
  Se  Se219  1  0.75855725  0.42484904  0.31646525  1
  Se  Se220  1  0.74581854  0.41408387  0.80369013  1
  Se  Se221  1  0.72876594  0.73311673  0.30248613  1
  Se  Se222  1  0.76712317  0.76304056  0.80281352  1
  Se  Se223  1  0.23885851  0.09052990  0.18539602  1
  Se  Se224  1  0.24701421  0.08156060  0.69108530  1
  Se  Se225  1  0.25502041  0.41411517  0.19882922  1
  Se  Se226  1  0.25204675  0.41328133  0.69707650  1
  Se  Se227  1  0.24134611  0.76126800  0.19417857  1
  Se  Se228  1  0.26866835  0.72715942  0.70007137  1
  Se  Se229  1  0.56901618  0.09079582  0.19321160  1
  Se  Se230  1  0.59045824  0.08869402  0.70611283  1
  Se  Se231  1  0.58311375  0.42229474  0.18677062  1
  Se  Se232  1  0.58550306  0.41915647  0.69676060  1
  Se  Se233  1  0.57944423  0.74874726  0.19136940  1
  Se  Se234  1  0.58335968  0.74890223  0.68602933  1
  Se  Se235  1  0.90688906  0.08679551  0.20206909  1
  Se  Se236  1  0.92047940  0.08458173  0.69455212  1
  Se  Se237  1  0.91895490  0.41564176  0.19743169  1
  Se  Se238  1  0.91693643  0.41512150  0.69703641  1
  Se  Se239  1  0.90723076  0.75699907  0.19992173  1
  Se  Se240  1  0.92276661  0.74531112  0.69895255  1
  Se  Se241  1  0.08391936  0.24970200  0.19825189  1
  Se  Se242  1  0.08015578  0.25114520  0.69335252  1
  Se  Se243  1  0.08673798  0.58488417  0.19630321  1
  Se  Se244  1  0.07794491  0.57976387  0.70499707  1
  Se  Se245  1  0.07711114  0.92500906  0.19883103  1
  Se  Se246  1  0.09375149  0.90539565  0.70076489  1
  Se  Se247  1  0.42014647  0.25317524  0.19979102  1
  Se  Se248  1  0.42082461  0.24194176  0.69733668  1
  Se  Se249  1  0.41886361  0.57672390  0.18814366  1
  Se  Se250  1  0.41896761  0.58265169  0.69933936  1
  Se  Se251  1  0.41317188  0.91264730  0.18910428  1
  Se  Se252  1  0.42612834  0.90912079  0.69705189  1
  Se  Se253  1  0.76125524  0.24231335  0.19610940  1
  Se  Se254  1  0.75306277  0.25464686  0.69714801  1
  Se  Se255  1  0.74815098  0.58000918  0.19539124  1
  Se  Se256  1  0.75681546  0.57702959  0.68370508  1
  Se  Se257  1  0.75083499  0.90480274  0.19048886  1
  Se  Se258  1  0.74466947  0.92721779  0.69835889  1
