# generated using pymatgen
data_In86Cu29Se144
_symmetry_space_group_name_H-M   'P 1'
_cell_length_a   17.58481852
_cell_length_b   17.58746730
_cell_length_c   23.44273333
_cell_angle_alpha   90.00735316
_cell_angle_beta   89.99412860
_cell_angle_gamma   90.01757410
_symmetry_Int_Tables_number   1
_chemical_formula_structural   In86Cu29Se144
_chemical_formula_sum   'In86 Cu29 Se144'
_cell_volume   7250.19044243
_cell_formula_units_Z   1
loop_
 _symmetry_equiv_pos_site_id
 _symmetry_equiv_pos_as_xyz
  1  'x, y, z'
loop_
 _atom_site_type_symbol
 _atom_site_label
 _atom_site_symmetry_multiplicity
 _atom_site_fract_x
 _atom_site_fract_y
 _atom_site_fract_z
 _atom_site_occupancy
  In  In0  1  0.00051557  0.16624243  0.11649866  1
  In  In1  1  0.00249900  0.17080119  0.63084209  1
  In  In2  1  -0.00827563  0.49089401  0.11611303  1
  In  In3  1  -0.01717866  0.49043595  0.62954700  1
  In  In4  1  -0.00728236  0.85111105  0.13255350  1
  In  In5  1  -0.00695484  0.84470779  0.62120261  1
  In  In6  1  0.36217009  0.19850807  0.09905174  1
  In  In7  1  0.33129802  0.17127046  0.63334583  1
  In  In8  1  0.34178876  0.49572611  0.11687845  1
  In  In9  1  0.33911995  0.49497376  0.63402948  1
  In  In10  1  0.33945804  0.81726942  0.12814105  1
  In  In11  1  0.33638080  0.81525408  0.62585135  1
  In  In12  1  0.66384287  0.16438840  0.13051374  1
  In  In13  1  0.64946048  0.16338275  0.63230599  1
  In  In14  1  0.66468129  0.50112757  0.12070110  1
  In  In15  1  0.68778824  0.50356728  0.63073860  1
  In  In16  1  0.67054652  0.83725415  0.12753979  1
  In  In17  1  0.66531611  0.83116769  0.62487003  1
  In  In18  1  0.16338595  0.01330222  0.36476491  1
  In  In19  1  0.17444314  0.00420990  0.87838643  1
  In  In20  1  0.16477956  0.32811616  0.37137527  1
  In  In21  1  0.16772687  0.33761425  0.88016122  1
  In  In22  1  0.17433213  0.65860640  0.37115485  1
  In  In23  1  0.17037616  0.64557392  0.87875166  1
  In  In24  1  0.49843393  -0.01231054  0.37209110  1
  In  In25  1  0.50902276  -0.00172532  0.88595689  1
  In  In26  1  0.49782617  0.33284321  0.36258599  1
  In  In27  1  0.48818147  0.34737494  0.89226169  1
  In  In28  1  0.51286922  0.67490638  0.36285576  1
  In  In29  1  0.50428256  0.66568797  0.87492265  1
  In  In30  1  0.81111335  -0.03110138  0.34762529  1
  In  In31  1  0.81250761  0.01529229  0.87873085  1
  In  In32  1  0.83073425  0.34563125  0.37641099  1
  In  In33  1  0.83822955  0.33098024  0.87634317  1
  In  In34  1  0.81897318  0.67451224  0.38280874  1
  In  In35  1  0.82558844  0.67772181  0.88282952  1
  In  In36  1  0.00787660  0.15941971  0.36985876  1
  In  In37  1  -0.02338897  0.18619955  0.88223250  1
  In  In38  1  -0.01889809  0.48878914  0.37569075  1
  In  In39  1  0.01166670  0.49588251  0.88420452  1
  In  In40  1  -0.02167880  0.82874925  0.37004029  1
  In  In41  1  -0.01061475  0.81838841  0.87552812  1
  In  In42  1  0.32674132  0.17332555  0.36660653  1
  In  In43  1  0.31295608  0.19098580  0.90427124  1
  In  In44  1  0.33201007  0.50032053  0.36600292  1
  In  In45  1  0.33388679  0.49367324  0.87735197  1
  In  In46  1  0.35210304  0.83438850  0.37509994  1
  In  In47  1  0.35327503  0.83020086  0.87875878  1
  In  In48  1  0.66297004  0.16899854  0.35734329  1
  In  In49  1  0.67559516  0.16106571  0.88234804  1
  In  In50  1  0.66808317  0.50856673  0.36860030  1
  In  In51  1  0.65978681  0.50811135  0.88209093  1
  In  In52  1  0.66621504  0.82569292  0.37254289  1
  In  In53  1  0.66426275  0.83568974  0.87742936  1
  In  In54  1  0.15711665  0.00823598  0.12369726  1
  In  In55  1  0.15866347  0.01102238  0.62492715  1
  In  In56  1  0.19033090  0.34990484  0.10164398  1
  In  In57  1  0.16738103  0.33345942  0.63229835  1
  In  In58  1  0.18336437  0.66386728  0.12365743  1
  In  In59  1  0.17785570  0.66376014  0.62814742  1
  In  In60  1  0.52361261  0.01449580  0.12117148  1
  In  In61  1  0.51501934  0.00134717  0.62759318  1
  In  In62  1  0.49853435  0.33733866  0.12191899  1
  In  In63  1  0.49324630  0.32820702  0.63133840  1
  In  In64  1  0.50196245  0.66592323  0.11970477  1
  In  In65  1  0.49562255  0.67065347  0.62986526  1
  In  In66  1  0.83047624  0.00100064  0.12690425  1
  In  In67  1  0.83390589  -0.01355735  0.62336208  1
  In  In68  1  0.82298977  0.32382188  0.11467819  1
  In  In69  1  0.83464941  0.34288180  0.62946147  1
  In  In70  1  0.82786691  0.66578314  0.12359454  1
  In  In71  1  0.82388971  0.66202021  0.62363864  1
  In  In72  1  -0.00326563  0.66852673  0.24266159  1
  In  In73  1  0.83365452  0.16423228  0.49847697  1
  In  In74  1  0.16217100  0.83585608  0.50510866  1
  In  In75  1  0.16493564  0.16885773  0.49699654  1
  In  In76  1  0.33569696  0.00628163  0.24459251  1
  In  In77  1  0.49816341  0.16371793  0.48673931  1
  In  In78  1  -0.00110320  0.65914338  0.74943683  1
  In  In79  1  0.15974319  0.83216935  0.00611777  1
  In  In80  1  -0.00367066  0.00324033  0.74805995  1
  In  In81  1  0.00391756  0.33001233  0.24760842  1
  In  In82  1  0.35039913  0.00523184  0.76014738  1
  In  In83  1  0.66520604  0.33293427  0.75706500  1
  In  In84  1  0.16019959  0.49962331  0.49870950  1
  In  In85  1  0.50057186  0.49965956  0.50395734  1
  Cu  Cu86  1  0.34290857  -0.00394710  0.50188207  1
  Cu  Cu87  1  0.16829914  0.83248797  0.24643448  1
  Cu  Cu88  1  0.66629436  0.33570062  0.49987817  1
  Cu  Cu89  1  0.82324519  0.83622379  0.75229304  1
  Cu  Cu90  1  0.49683301  0.50084636  0.24206229  1
  Cu  Cu91  1  0.33706789  0.66400707  -0.00303447  1
  Cu  Cu92  1  0.49478198  0.16730400  0.76335925  1
  Cu  Cu93  1  0.50676810  0.82945319  0.75360497  1
  Cu  Cu94  1  0.17465007  0.17856987  0.23878178  1
  Cu  Cu95  1  0.67163350  0.33376068  0.00159580  1
  Cu  Cu96  1  0.16702435  0.17514812  0.76218689  1
  Cu  Cu97  1  0.33923396  -0.00556889  0.00314488  1
  Cu  Cu98  1  0.17242856  0.49102052  0.75584427  1
  Cu  Cu99  1  0.00073221  0.33023920  -0.00230170  1
  Cu  Cu100  1  0.17706047  0.82553676  0.75151990  1
  Cu  Cu101  1  -0.00648461  0.66675141  0.00418080  1
  Cu  Cu102  1  0.83763933  0.16534192  0.23931313  1
  Cu  Cu103  1  -0.01337806  -0.00782337  0.48873256  1
  Cu  Cu104  1  0.50285809  0.82972701  0.24628961  1
  Cu  Cu105  1  -0.00940494  0.66111594  0.50221868  1
  Cu  Cu106  1  0.67067361  0.66696453  0.49705866  1
  Cu  Cu107  1  0.82376279  0.50052825  0.24708140  1
  Cu  Cu108  1  0.50149172  0.50018650  0.75811300  1
  Cu  Cu109  1  -0.00818165  -0.00202149  -0.00053814  1
  Cu  Cu110  1  0.67255204  -0.00929753  0.49774725  1
  Cu  Cu111  1  0.66312408  0.66998138  0.00183025  1
  Cu  Cu112  1  0.34447592  0.66962661  0.49754879  1
  Cu  Cu113  1  0.17497380  0.49996729  0.24222850  1
  Cu  Cu114  1  0.67078260  -0.00021230  0.00587346  1
  Se  Se115  1  0.08104338  0.08077030  0.04666369  1
  Se  Se116  1  0.06532016  0.07445665  0.54968061  1
  Se  Se117  1  0.08225575  0.42003169  0.04699271  1
  Se  Se118  1  0.07605899  0.40914721  0.56084765  1
  Se  Se119  1  0.07239741  0.74374537  0.06991143  1
  Se  Se120  1  0.07438463  0.73702922  0.56279556  1
  Se  Se121  1  0.42433776  0.07850537  0.05347802  1
  Se  Se122  1  0.41411522  0.08298755  0.56230173  1
  Se  Se123  1  0.40797768  0.40133264  0.04725610  1
  Se  Se124  1  0.40780995  0.40534121  0.55697343  1
  Se  Se125  1  0.41774728  0.75000593  0.04974212  1
  Se  Se126  1  0.42560620  0.75230088  0.55191803  1
  Se  Se127  1  0.75069244  0.08746894  0.05828679  1
  Se  Se128  1  0.73809628  0.08005168  0.56059364  1
  Se  Se129  1  0.75450179  0.42341350  0.05158149  1
  Se  Se130  1  0.74989292  0.41401535  0.55545537  1
  Se  Se131  1  0.74848129  0.75200238  0.05501899  1
  Se  Se132  1  0.75039897  0.75073506  0.55458452  1
  Se  Se133  1  0.23389838  0.22820846  0.05036161  1
  Se  Se134  1  0.25641821  0.25517645  0.55801804  1
  Se  Se135  1  0.25290510  0.58113257  0.04973798  1
  Se  Se136  1  0.26364021  0.58577544  0.55458876  1
  Se  Se137  1  0.25602521  0.91684791  0.06479287  1
  Se  Se138  1  0.25682042  0.92662454  0.56508736  1
  Se  Se139  1  0.59116014  0.25268473  0.05885712  1
  Se  Se140  1  0.58285525  0.25508759  0.55457019  1
  Se  Se141  1  0.58010111  0.58053108  0.04972396  1
  Se  Se142  1  0.59397489  0.58763536  0.56237874  1
  Se  Se143  1  0.58455684  0.91326607  0.05443404  1
  Se  Se144  1  0.58419807  0.91670465  0.55393237  1
  Se  Se145  1  0.91520123  0.24773233  0.04947682  1
  Se  Se146  1  0.92145016  0.25329964  0.55968851  1
  Se  Se147  1  0.90946249  0.58143494  0.05462010  1
  Se  Se148  1  0.91247102  0.57880137  0.55881614  1
  Se  Se149  1  0.91142664  0.91582974  0.05495420  1
  Se  Se150  1  0.90820818  0.91009348  0.54587802  1
  Se  Se151  1  0.06908563  0.25968596  0.44244429  1
  Se  Se152  1  0.08305924  0.24629524  0.94380633  1
  Se  Se153  1  0.07007415  0.59063497  0.43692884  1
  Se  Se154  1  0.08356766  0.58636618  0.95544584  1
  Se  Se155  1  0.08214730  0.92062173  0.43431566  1
  Se  Se156  1  0.07381529  0.91804674  0.93832510  1
  Se  Se157  1  0.40549652  0.26052287  0.43867381  1
  Se  Se158  1  0.42569769  0.24693811  0.95935714  1
  Se  Se159  1  0.41789575  0.58759929  0.43559597  1
  Se  Se160  1  0.41886340  0.58197726  0.94208176  1
  Se  Se161  1  0.42592105  0.91199753  0.45101762  1
  Se  Se162  1  0.42424945  0.91200386  0.95234220  1
  Se  Se163  1  0.73858120  0.25098462  0.43840714  1
  Se  Se164  1  0.75503406  0.25135434  0.94762455  1
  Se  Se165  1  0.74905320  0.57555901  0.44741288  1
  Se  Se166  1  0.74869845  0.58719836  0.94964157  1
  Se  Se167  1  0.75318663  0.91138661  0.43967264  1
  Se  Se168  1  0.74946080  0.91715691  0.94681155  1
  Se  Se169  1  0.26133648  0.07390579  0.44113607  1
  Se  Se170  1  0.24902321  0.07530317  0.95588728  1
  Se  Se171  1  0.25344407  0.41244392  0.43945512  1
  Se  Se172  1  0.25002947  0.41851590  0.94939603  1
  Se  Se173  1  0.25449376  0.74765531  0.44322019  1
  Se  Se174  1  0.25101823  0.74826209  0.94126172  1
  Se  Se175  1  0.59708975  0.07378747  0.43570177  1
  Se  Se176  1  0.58810934  0.08618110  0.95315557  1
  Se  Se177  1  0.58523711  0.41168016  0.43855974  1
  Se  Se178  1  0.58667030  0.42118680  0.95360601  1
  Se  Se179  1  0.58259317  0.74553785  0.44437346  1
  Se  Se180  1  0.58069521  0.75207905  0.94572536  1
  Se  Se181  1  0.91154110  0.07600318  0.42948295  1
  Se  Se182  1  0.91175736  0.08237822  0.94449783  1
  Se  Se183  1  0.91437357  0.41046452  0.45198536  1
  Se  Se184  1  0.91724615  0.41633800  0.94644036  1
  Se  Se185  1  0.91361793  0.74896323  0.44875146  1
  Se  Se186  1  0.91186556  0.75462901  0.95505023  1
  Se  Se187  1  0.25115301  0.26065949  0.29743612  1
  Se  Se188  1  0.25589890  0.25263698  0.81348457  1
  Se  Se189  1  0.25399415  0.58715633  0.29676543  1
  Se  Se190  1  0.25509119  0.57920981  0.80421080  1
  Se  Se191  1  0.24985404  0.91112986  0.30998998  1
  Se  Se192  1  0.25170128  0.90882975  0.81112267  1
  Se  Se193  1  0.58173409  0.25552944  0.29498897  1
  Se  Se194  1  0.57474440  0.25163304  0.82207646  1
  Se  Se195  1  0.58280160  0.58109274  0.29624983  1
  Se  Se196  1  0.58790160  0.58543459  0.80371638  1
  Se  Se197  1  0.58356795  0.91132921  0.30330823  1
  Se  Se198  1  0.58027959  0.91971840  0.80785260  1
  Se  Se199  1  0.90949622  0.24430285  0.30839057  1
  Se  Se200  1  0.90963143  0.25150482  0.79907552  1
  Se  Se201  1  0.90801051  0.57978165  0.30542390  1
  Se  Se202  1  0.91614824  0.58281021  0.82095379  1
  Se  Se203  1  0.93961266  0.93381725  0.30111285  1
  Se  Se204  1  0.90954484  0.91310483  0.81091274  1
  Se  Se205  1  0.08972554  0.09492075  0.29153119  1
  Se  Se206  1  0.08478167  0.08773470  0.81374208  1
  Se  Se207  1  0.08923326  0.43091918  0.30632236  1
  Se  Se208  1  0.08243094  0.41495088  0.80778089  1
  Se  Se209  1  0.08860921  0.75425207  0.30991720  1
  Se  Se210  1  0.09335382  0.74921487  0.81060344  1
  Se  Se211  1  0.42576003  0.09144439  0.30809218  1
  Se  Se212  1  0.41550867  0.09782301  0.83129012  1
  Se  Se213  1  0.41352282  0.41840689  0.29779503  1
  Se  Se214  1  0.41945415  0.41223465  0.80717077  1
  Se  Se215  1  0.41503216  0.74920978  0.29874823  1
  Se  Se216  1  0.41883563  0.74671777  0.80308048  1
  Se  Se217  1  0.75351074  0.08583498  0.29595361  1
  Se  Se218  1  0.74272777  0.08867523  0.80061988  1
  Se  Se219  1  0.74612499  0.41488329  0.30351370  1
  Se  Se220  1  0.75226562  0.42618686  0.81397765  1
  Se  Se221  1  0.75060518  0.74503035  0.30375097  1
  Se  Se222  1  0.74520836  0.75046767  0.80689214  1
  Se  Se223  1  0.25261623  0.09471617  0.18091272  1
  Se  Se224  1  0.24138146  0.08689329  0.70225720  1
  Se  Se225  1  0.25451617  0.41589895  0.18798677  1
  Se  Se226  1  0.25610496  0.41012946  0.69959119  1
  Se  Se227  1  0.25227931  0.74537224  0.20000563  1
  Se  Se228  1  0.25910694  0.73906596  0.70115127  1
  Se  Se229  1  0.58981364  0.08082729  0.20437066  1
  Se  Se230  1  0.57505370  0.08442997  0.70737016  1
  Se  Se231  1  0.58337586  0.41857677  0.19120644  1
  Se  Se232  1  0.57838527  0.42468412  0.69040470  1
  Se  Se233  1  0.58368518  0.74783497  0.19049657  1
  Se  Se234  1  0.58629398  0.74765062  0.69608514  1
  Se  Se235  1  0.92482901  0.08469861  0.18968153  1
  Se  Se236  1  0.90251116  0.08998700  0.68980843  1
  Se  Se237  1  0.90675919  0.41711929  0.19138775  1
  Se  Se238  1  0.91839976  0.40868845  0.70554081  1
  Se  Se239  1  0.90230291  0.76333597  0.19522626  1
  Se  Se240  1  0.91343555  0.76146658  0.69380074  1
  Se  Se241  1  0.09396537  0.25751910  0.17790231  1
  Se  Se242  1  0.08486734  0.25001698  0.70021288  1
  Se  Se243  1  0.08631655  0.57392014  0.18518210  1
  Se  Se244  1  0.09424210  0.56907810  0.69049975  1
  Se  Se245  1  0.08934914  0.92096853  0.19773173  1
  Se  Se246  1  0.09515590  0.90661952  0.69400589  1
  Se  Se247  1  0.41396305  0.25460190  0.19111334  1
  Se  Se248  1  0.41535410  0.24802769  0.70370719  1
  Se  Se249  1  0.41470476  0.58458051  0.18806377  1
  Se  Se250  1  0.42020062  0.58150884  0.69845400  1
  Se  Se251  1  0.42507269  0.91431499  0.18669165  1
  Se  Se252  1  0.42292230  0.90879924  0.69140035  1
  Se  Se253  1  0.75152981  0.25357600  0.19509577  1
  Se  Se254  1  0.74804473  0.24527499  0.68960507  1
  Se  Se255  1  0.74504930  0.58518376  0.19288417  1
  Se  Se256  1  0.76125455  0.58327468  0.70329283  1
  Se  Se257  1  0.74367534  0.92653396  0.19751485  1
  Se  Se258  1  0.74458986  0.91934824  0.69496268  1
