# generated using pymatgen
data_In86Cu29Se144
_symmetry_space_group_name_H-M   'P 1'
_cell_length_a   17.57439408
_cell_length_b   17.57164628
_cell_length_c   23.42080436
_cell_angle_alpha   89.98158948
_cell_angle_beta   89.98545257
_cell_angle_gamma   89.99667098
_symmetry_Int_Tables_number   1
_chemical_formula_structural   In86Cu29Se144
_chemical_formula_sum   'In86 Cu29 Se144'
_cell_volume   7232.60224769
_cell_formula_units_Z   1
loop_
 _symmetry_equiv_pos_site_id
 _symmetry_equiv_pos_as_xyz
  1  'x, y, z'
loop_
 _atom_site_type_symbol
 _atom_site_label
 _atom_site_symmetry_multiplicity
 _atom_site_fract_x
 _atom_site_fract_y
 _atom_site_fract_z
 _atom_site_occupancy
  In  In0  1  -0.00428996  0.17580132  0.13505026  1
  In  In1  1  -0.01524967  0.16349962  0.62432232  1
  In  In2  1  0.00038934  0.49942761  0.13729268  1
  In  In3  1  0.01395076  0.50160028  0.62436404  1
  In  In4  1  -0.00264623  0.83313587  0.12639523  1
  In  In5  1  0.01245700  0.82388414  0.63448162  1
  In  In6  1  0.34111795  0.16946894  0.11729056  1
  In  In7  1  0.34335305  0.16518237  0.64029223  1
  In  In8  1  0.35254692  0.52729469  0.09702056  1
  In  In9  1  0.33104980  0.49690324  0.62678195  1
  In  In10  1  0.31592752  0.80844646  0.09726779  1
  In  In11  1  0.32623125  0.83983889  0.63277928  1
  In  In12  1  0.65890370  0.18347892  0.12103184  1
  In  In13  1  0.68187625  0.16435025  0.62735369  1
  In  In14  1  0.66315496  0.50526218  0.13244577  1
  In  In15  1  0.65712736  0.50959748  0.62920232  1
  In  In16  1  0.65669021  0.81911745  0.11424154  1
  In  In17  1  0.65753845  0.83306306  0.63112727  1
  In  In18  1  0.15144666  -0.00628100  0.37597062  1
  In  In19  1  0.16685168  -0.01110206  0.86460889  1
  In  In20  1  0.17661359  0.34760601  0.37434613  1
  In  In21  1  0.19017505  0.33052623  0.88265795  1
  In  In22  1  0.16608655  0.66816037  0.37545756  1
  In  In23  1  0.16572629  0.66952665  0.88591743  1
  In  In24  1  0.49769480  0.00898713  0.37281371  1
  In  In25  1  0.48880062  0.00779666  0.87748379  1
  In  In26  1  0.51655651  0.34277015  0.36828345  1
  In  In27  1  0.49531722  0.33540819  0.88190206  1
  In  In28  1  0.48729699  0.65622015  0.36458675  1
  In  In29  1  0.50421308  0.65368631  0.88856439  1
  In  In30  1  0.84367151  -0.00566828  0.37913070  1
  In  In31  1  0.83299521  -0.01634226  0.87387732  1
  In  In32  1  0.82321878  0.33125892  0.36544561  1
  In  In33  1  0.81965728  0.34554829  0.87816922  1
  In  In34  1  0.83427660  0.65770525  0.35720627  1
  In  In35  1  0.84600534  0.66927229  0.87035990  1
  In  In36  1  -0.00921183  0.15721319  0.37150695  1
  In  In37  1  0.01206621  0.16418803  0.87083077  1
  In  In38  1  0.01330440  0.51077385  0.36248432  1
  In  In39  1  0.00166005  0.51401902  0.87637244  1
  In  In40  1  0.00098713  0.83650521  0.36866107  1
  In  In41  1  0.00706983  0.82854772  0.87583296  1
  In  In42  1  0.34244790  0.16812318  0.37668620  1
  In  In43  1  0.36209859  0.18195048  0.84412778  1
  In  In44  1  0.32218950  0.50912707  0.38402704  1
  In  In45  1  0.34835465  0.48665867  0.90497892  1
  In  In46  1  0.33409655  0.81557190  0.37397587  1
  In  In47  1  0.31855445  0.83444653  0.88870711  1
  In  In48  1  0.66267481  0.18272685  0.37786948  1
  In  In49  1  0.64578018  0.18057488  0.87642148  1
  In  In50  1  0.66133424  0.49384385  0.36577761  1
  In  In51  1  0.65060765  0.48659903  0.87284419  1
  In  In52  1  0.67506787  0.82703291  0.37329105  1
  In  In53  1  0.68083204  0.82170364  0.88213087  1
  In  In54  1  0.16000261  -0.01330317  0.12078915  1
  In  In55  1  0.17522772  -0.01440863  0.63410631  1
  In  In56  1  0.16181650  0.34104025  0.12534252  1
  In  In57  1  0.17229259  0.34610503  0.62586077  1
  In  In58  1  0.16527502  0.66773668  0.12256568  1
  In  In59  1  0.16205504  0.66085854  0.62558927  1
  In  In60  1  0.49785977  -0.00505552  0.11087738  1
  In  In61  1  0.50158019  -0.00414194  0.63372824  1
  In  In62  1  0.52017912  0.36710107  0.08320858  1
  In  In63  1  0.49087974  0.34283486  0.63608824  1
  In  In64  1  0.50137829  0.66827246  0.12344907  1
  In  In65  1  0.51094876  0.66653958  0.63140401  1
  In  In66  1  0.84694564  0.00141898  0.12550771  1
  In  In67  1  0.83228103  0.01699804  0.62520132  1
  In  In68  1  0.82616616  0.34683866  0.14368180  1
  In  In69  1  0.83427295  0.32080039  0.62124977  1
  In  In70  1  0.82267824  0.66774143  0.13673619  1
  In  In71  1  0.83375881  0.66851437  0.63008897  1
  In  In72  1  0.66841552  0.00231035  0.75257520  1
  In  In73  1  0.16636156  0.16909711  0.50391399  1
  In  In74  1  0.83677627  0.83358140  0.49552246  1
  In  In75  1  0.32450444  -0.01134965  0.23046819  1
  In  In76  1  0.83497692  0.49837718  0.48582372  1
  In  In77  1  0.00107421  0.33469991  0.74611133  1
  In  In78  1  0.66767538  -0.00550315  0.25223671  1
  In  In79  1  0.50586859  0.17170576  0.50782053  1
  In  In80  1  0.33156541  0.33986642  0.23955783  1
  In  In81  1  0.17078146  0.15781848  -0.00807642  1
  In  In82  1  0.49557285  0.83235329  0.51170055  1
  In  In83  1  0.82995208  0.50667610  0.00962630  1
  In  In84  1  0.82871366  0.16506143  -0.00321098  1
  In  In85  1  0.32733980  0.66994066  0.76660908  1
  Cu  Cu86  1  0.32719393  -0.00755883  0.50468541  1
  Cu  Cu87  1  0.00220864  -0.00737808  0.50040256  1
  Cu  Cu88  1  0.16804977  0.16017196  0.74961888  1
  Cu  Cu89  1  0.83293642  0.16464038  0.24981750  1
  Cu  Cu90  1  0.82543154  0.50156610  0.75110138  1
  Cu  Cu91  1  0.66897508  0.34077697  0.49644099  1
  Cu  Cu92  1  0.16534521  0.82905556  0.24481861  1
  Cu  Cu93  1  -0.00292058  0.33760451  0.01024583  1
  Cu  Cu94  1  0.17613262  0.50979093  0.24777192  1
  Cu  Cu95  1  0.50306034  0.82953467  0.75684869  1
  Cu  Cu96  1  0.66880538  -0.00188484  -0.00632462  1
  Cu  Cu97  1  0.49555390  0.50252381  0.76013881  1
  Cu  Cu98  1  0.32566288  0.66065213  0.50002663  1
  Cu  Cu99  1  0.17010031  0.50043399  0.75384992  1
  Cu  Cu100  1  0.65695829  0.66718949  0.49989344  1
  Cu  Cu101  1  0.33257801  0.00499949  -0.00905494  1
  Cu  Cu102  1  0.84408696  0.83012532  0.75333888  1
  Cu  Cu103  1  0.67147335  0.65835955  0.00249554  1
  Cu  Cu104  1  0.49660676  0.49741653  0.23971316  1
  Cu  Cu105  1  0.49918669  0.16747149  0.24509384  1
  Cu  Cu106  1  0.00114004  0.67773100  0.00095938  1
  Cu  Cu107  1  0.00392309  -0.00913575  -0.00074524  1
  Cu  Cu108  1  0.00045466  0.33319203  0.49836642  1
  Cu  Cu109  1  0.00531743  0.66237122  0.49718303  1
  Cu  Cu110  1  0.15990062  0.16775917  0.25083533  1
  Cu  Cu111  1  0.33995645  0.34301944  0.50535834  1
  Cu  Cu112  1  0.50074099  0.82101666  0.24136901  1
  Cu  Cu113  1  0.83208289  0.83107030  0.24810303  1
  Cu  Cu114  1  0.82972356  0.17102038  0.75179968  1
  Se  Se115  1  0.07187465  0.08378740  0.05895701  1
  Se  Se116  1  0.07940611  0.07545651  0.56208316  1
  Se  Se117  1  0.07812383  0.42562463  0.05890580  1
  Se  Se118  1  0.08421881  0.41392983  0.55224055  1
  Se  Se119  1  0.08528988  0.75894164  0.05592467  1
  Se  Se120  1  0.08184963  0.74598024  0.55540162  1
  Se  Se121  1  0.41611383  0.08454410  0.04696589  1
  Se  Se122  1  0.41042598  0.07418404  0.56013626  1
  Se  Se123  1  0.38835639  0.40302743  0.04573484  1
  Se  Se124  1  0.42446662  0.42465636  0.55790908  1
  Se  Se125  1  0.44288123  0.76856326  0.05415458  1
  Se  Se126  1  0.40345087  0.73773050  0.56675986  1
  Se  Se127  1  0.74191530  0.07627105  0.06189326  1
  Se  Se128  1  0.75070366  0.08639562  0.55098244  1
  Se  Se129  1  0.74291015  0.40808839  0.06159412  1
  Se  Se130  1  0.75001595  0.41978482  0.55861814  1
  Se  Se131  1  0.75648013  0.74234991  0.05441157  1
  Se  Se132  1  0.74036012  0.74630725  0.55725295  1
  Se  Se133  1  0.24736104  0.25405397  0.05593039  1
  Se  Se134  1  0.26511618  0.25300573  0.56241307  1
  Se  Se135  1  0.25423960  0.61008959  0.04316271  1
  Se  Se136  1  0.24616083  0.57768133  0.55821843  1
  Se  Se137  1  0.24966096  0.92393114  0.04726987  1
  Se  Se138  1  0.24475619  0.90775774  0.55485162  1
  Se  Se139  1  0.56546913  0.23535120  0.04754000  1
  Se  Se140  1  0.59377778  0.26489180  0.56486348  1
  Se  Se141  1  0.58517614  0.57956796  0.05633706  1
  Se  Se142  1  0.57608990  0.58360168  0.55362037  1
  Se  Se143  1  0.58645910  0.91337662  0.04693138  1
  Se  Se144  1  0.59368430  0.92918529  0.55799068  1
  Se  Se145  1  0.91039994  0.25761130  0.06326203  1
  Se  Se146  1  0.91716873  0.24735657  0.54788286  1
  Se  Se147  1  0.92486126  0.59538648  0.06437831  1
  Se  Se148  1  0.91904994  0.58544466  0.55542004  1
  Se  Se149  1  0.91539822  0.91416664  0.05314076  1
  Se  Se150  1  0.92002028  0.91760554  0.56419254  1
  Se  Se151  1  0.08281817  0.25429236  0.43622753  1
  Se  Se152  1  0.07409008  0.25995207  0.94433666  1
  Se  Se153  1  0.08761302  0.57797106  0.44406074  1
  Se  Se154  1  0.07959404  0.58472027  0.95295777  1
  Se  Se155  1  0.08138811  0.90615887  0.44768165  1
  Se  Se156  1  0.09046722  0.91531755  0.94362553  1
  Se  Se157  1  0.41794851  0.26290373  0.44296781  1
  Se  Se158  1  0.40405867  0.24401529  0.93748264  1
  Se  Se159  1  0.41774100  0.58605044  0.44746374  1
  Se  Se160  1  0.41705009  0.58950823  0.96386497  1
  Se  Se161  1  0.41170724  0.92084219  0.44083756  1
  Se  Se162  1  0.41767338  0.91478279  0.94589255  1
  Se  Se163  1  0.75322911  0.25537932  0.44650605  1
  Se  Se164  1  0.73602971  0.26207468  0.94801595  1
  Se  Se165  1  0.74027487  0.59509889  0.43618911  1
  Se  Se166  1  0.74753935  0.58300483  0.93482350  1
  Se  Se167  1  0.73827344  0.92484009  0.44382634  1
  Se  Se168  1  0.75764259  0.91176128  0.95103024  1
  Se  Se169  1  0.25595032  0.07651505  0.44060476  1
  Se  Se170  1  0.25947703  0.08158916  0.92420023  1
  Se  Se171  1  0.24893687  0.41890825  0.45377754  1
  Se  Se172  1  0.22683761  0.43334641  0.95406187  1
  Se  Se173  1  0.24796227  0.75017916  0.44823517  1
  Se  Se174  1  0.25936060  0.73499653  0.95796242  1
  Se  Se175  1  0.58933281  0.07919122  0.44313826  1
  Se  Se176  1  0.58350144  0.08165044  0.94356597  1
  Se  Se177  1  0.58369853  0.42397510  0.44556395  1
  Se  Se178  1  0.57749220  0.41859941  0.95293999  1
  Se  Se179  1  0.57797005  0.74846370  0.43932301  1
  Se  Se180  1  0.59072106  0.74508019  0.94914854  1
  Se  Se181  1  0.91942374  0.07948306  0.45002502  1
  Se  Se182  1  0.92623385  0.07693398  0.94027525  1
  Se  Se183  1  0.92894929  0.40989623  0.43010559  1
  Se  Se184  1  0.92012635  0.41550998  0.94492783  1
  Se  Se185  1  0.91917816  0.73588629  0.43599746  1
  Se  Se186  1  0.91443488  0.75386216  0.94536611  1
  Se  Se187  1  0.24941871  0.24236886  0.30732893  1
  Se  Se188  1  0.24565330  0.25231415  0.79904075  1
  Se  Se189  1  0.25615554  0.59037728  0.30629549  1
  Se  Se190  1  0.24839051  0.56888619  0.82313921  1
  Se  Se191  1  0.24520412  0.91005299  0.30799443  1
  Se  Se192  1  0.25181422  0.89894219  0.80410431  1
  Se  Se193  1  0.58358659  0.24921240  0.29882286  1
  Se  Se194  1  0.57766824  0.26416049  0.80428646  1
  Se  Se195  1  0.57788094  0.57915941  0.29869987  1
  Se  Se196  1  0.58260798  0.58732112  0.80809055  1
  Se  Se197  1  0.56949619  0.90444906  0.30836449  1
  Se  Se198  1  0.58617535  0.91022412  0.81626738  1
  Se  Se199  1  0.91619127  0.24782821  0.30427073  1
  Se  Se200  1  0.90994339  0.25133266  0.81354205  1
  Se  Se201  1  0.92148356  0.57864519  0.29369542  1
  Se  Se202  1  0.91795792  0.57909465  0.79954834  1
  Se  Se203  1  0.91310167  0.91715403  0.30148732  1
  Se  Se204  1  0.92495437  0.91580622  0.80558878  1
  Se  Se205  1  0.08203868  0.08035156  0.30405101  1
  Se  Se206  1  0.08184521  0.07808624  0.79969397  1
  Se  Se207  1  0.09712494  0.41911597  0.29929205  1
  Se  Se208  1  0.08820959  0.41645461  0.81341885  1
  Se  Se209  1  0.08389400  0.74909063  0.30415707  1
  Se  Se210  1  0.08239177  0.73603425  0.81019326  1
  Se  Se211  1  0.41300474  0.08401689  0.29645653  1
  Se  Se212  1  0.42076983  0.06803439  0.79169986  1
  Se  Se213  1  0.41704235  0.42524831  0.30891606  1
  Se  Se214  1  0.40999732  0.42521806  0.81589750  1
  Se  Se215  1  0.41122368  0.74576438  0.29621226  1
  Se  Se216  1  0.42580382  0.75502232  0.82217756  1
  Se  Se217  1  0.75288564  0.08766166  0.31383446  1
  Se  Se218  1  0.75438930  0.09291705  0.81772100  1
  Se  Se219  1  0.74925901  0.42015961  0.29786775  1
  Se  Se220  1  0.74272042  0.41554968  0.80111233  1
  Se  Se221  1  0.74533364  0.74736276  0.29811528  1
  Se  Se222  1  0.75525752  0.74851283  0.80327300  1
  Se  Se223  1  0.23694307  0.09407878  0.18361642  1
  Se  Se224  1  0.25405948  0.07739568  0.69858147  1
  Se  Se225  1  0.25348176  0.43840531  0.17971687  1
  Se  Se226  1  0.25385202  0.41666720  0.70128192  1
  Se  Se227  1  0.25301404  0.75389218  0.18870123  1
  Se  Se228  1  0.24036470  0.75130851  0.69785227  1
  Se  Se229  1  0.57719567  0.07979702  0.18865645  1
  Se  Se230  1  0.57928321  0.09599337  0.69464722  1
  Se  Se231  1  0.57073206  0.40918252  0.18316686  1
  Se  Se232  1  0.57950573  0.42580893  0.70025863  1
  Se  Se233  1  0.59311012  0.74083730  0.19545888  1
  Se  Se234  1  0.58802080  0.74779726  0.70439986  1
  Se  Se235  1  0.91970814  0.08204009  0.20010086  1
  Se  Se236  1  0.91415306  0.08529835  0.70246459  1
  Se  Se237  1  0.93237346  0.40360451  0.20393302  1
  Se  Se238  1  0.90779960  0.42532057  0.68671205  1
  Se  Se239  1  0.91815724  0.74869457  0.19694860  1
  Se  Se240  1  0.92190743  0.74291261  0.69827007  1
  Se  Se241  1  0.08495460  0.25843296  0.19798820  1
  Se  Se242  1  0.09061181  0.24134436  0.68572097  1
  Se  Se243  1  0.08676347  0.59064464  0.19712362  1
  Se  Se244  1  0.08438263  0.58101545  0.70082480  1
  Se  Se245  1  0.08047234  0.91726972  0.19743433  1
  Se  Se246  1  0.07112721  0.92838170  0.69759459  1
  Se  Se247  1  0.42636193  0.25190463  0.18479871  1
  Se  Se248  1  0.41704890  0.25561186  0.70525298  1
  Se  Se249  1  0.41347249  0.58339089  0.18851812  1
  Se  Se250  1  0.41696536  0.58496283  0.69857836  1
  Se  Se251  1  0.42291722  0.90123831  0.18041630  1
  Se  Se252  1  0.42146167  0.90952691  0.69969362  1
  Se  Se253  1  0.74557756  0.24486649  0.19773779  1
  Se  Se254  1  0.74976409  0.25616974  0.69846723  1
  Se  Se255  1  0.76267494  0.56328587  0.20028261  1
  Se  Se256  1  0.74627945  0.58784085  0.69589714  1
  Se  Se257  1  0.75227509  0.90942354  0.18533082  1
  Se  Se258  1  0.76144579  0.91052932  0.69222100  1
