# generated using pymatgen
data_In86Cu29Se144
_symmetry_space_group_name_H-M   'P 1'
_cell_length_a   17.56575155
_cell_length_b   17.56072588
_cell_length_c   23.41719628
_cell_angle_alpha   90.01787137
_cell_angle_beta   90.00049511
_cell_angle_gamma   89.99166608
_symmetry_Int_Tables_number   1
_chemical_formula_structural   In86Cu29Se144
_chemical_formula_sum   'In86 Cu29 Se144'
_cell_volume   7223.44000213
_cell_formula_units_Z   1
loop_
 _symmetry_equiv_pos_site_id
 _symmetry_equiv_pos_as_xyz
  1  'x, y, z'
loop_
 _atom_site_type_symbol
 _atom_site_label
 _atom_site_symmetry_multiplicity
 _atom_site_fract_x
 _atom_site_fract_y
 _atom_site_fract_z
 _atom_site_occupancy
  In  In0  1  0.00729675  0.17350364  0.11758911  1
  In  In1  1  0.00633777  0.15588359  0.63356132  1
  In  In2  1  0.00003669  0.47922627  0.12658256  1
  In  In3  1  -0.00930991  0.49127328  0.62176558  1
  In  In4  1  -0.00230370  0.83656221  0.11899702  1
  In  In5  1  0.01435333  0.83166423  0.62812117  1
  In  In6  1  0.33014382  0.16102123  0.11158221  1
  In  In7  1  0.33134093  0.17711162  0.62967453  1
  In  In8  1  0.32226581  0.48261262  0.09914377  1
  In  In9  1  0.32399275  0.50513084  0.63980207  1
  In  In10  1  0.35329334  0.85929870  0.09620368  1
  In  In11  1  0.31911402  0.82833956  0.63202015  1
  In  In12  1  0.65759248  0.15564308  0.11362999  1
  In  In13  1  0.66297999  0.16964160  0.64001326  1
  In  In14  1  0.66310268  0.50441132  0.12190111  1
  In  In15  1  0.67687559  0.49128585  0.64034213  1
  In  In16  1  0.68143875  0.84659086  0.11146883  1
  In  In17  1  0.66202660  0.83769545  0.63382480  1
  In  In18  1  0.16856970  -0.00577530  0.37741174  1
  In  In19  1  0.16716741  0.01323112  0.88869476  1
  In  In20  1  0.15845670  0.34155654  0.38206740  1
  In  In21  1  0.17211302  0.33508879  0.87266635  1
  In  In22  1  0.16625325  0.67061930  0.38301276  1
  In  In23  1  0.17643423  0.65184298  0.87857010  1
  In  In24  1  0.50237758  0.01417247  0.35323896  1
  In  In25  1  0.49795457  -0.00330893  0.88681495  1
  In  In26  1  0.50788134  0.33578958  0.37353740  1
  In  In27  1  0.49644290  0.33666686  0.87998992  1
  In  In28  1  0.50922185  0.67004462  0.37053611  1
  In  In29  1  0.49922374  0.66667767  0.86982164  1
  In  In30  1  0.83184579  0.01192176  0.36106421  1
  In  In31  1  0.83458387  0.00361409  0.87760705  1
  In  In32  1  0.84226990  0.33220305  0.36895645  1
  In  In33  1  0.82849766  0.32298150  0.87095343  1
  In  In34  1  0.82597273  0.65821361  0.37944480  1
  In  In35  1  0.82347270  0.68275114  0.87920214  1
  In  In36  1  -0.00277168  0.18505552  0.37112964  1
  In  In37  1  0.00343405  0.16685736  0.87501305  1
  In  In38  1  0.00142936  0.49544609  0.38005293  1
  In  In39  1  0.01702844  0.49622537  0.87203363  1
  In  In40  1  0.01306854  0.84347919  0.37333454  1
  In  In41  1  -0.01268660  0.84145689  0.88317710  1
  In  In42  1  0.33044247  0.15170379  0.37093789  1
  In  In43  1  0.31676836  0.19083942  0.90194497  1
  In  In44  1  0.32863049  0.48324198  0.37647882  1
  In  In45  1  0.33368477  0.49277348  0.87010264  1
  In  In46  1  0.32439661  0.83669317  0.37292323  1
  In  In47  1  0.34144802  0.83254817  0.88966837  1
  In  In48  1  0.67532909  0.16538814  0.36508524  1
  In  In49  1  0.67051557  0.16635122  0.88164350  1
  In  In50  1  0.66470382  0.50611481  0.38053929  1
  In  In51  1  0.64528652  0.48684200  0.85260013  1
  In  In52  1  0.65938196  0.83884176  0.36993708  1
  In  In53  1  0.66208162  0.83655870  0.87533358  1
  In  In54  1  0.17684481  0.01056794  0.10799883  1
  In  In55  1  0.16298663  -0.00879131  0.62524219  1
  In  In56  1  0.16396650  0.32206104  0.11281000  1
  In  In57  1  0.16236278  0.32747328  0.62843086  1
  In  In58  1  0.17646480  0.67815683  0.11863745  1
  In  In59  1  0.17170527  0.67215216  0.62828438  1
  In  In60  1  0.50287750  0.00486146  0.11515861  1
  In  In61  1  0.50629046  0.01550238  0.63276775  1
  In  In62  1  0.48102726  0.31909386  0.09326231  1
  In  In63  1  0.49469991  0.34563442  0.65098660  1
  In  In64  1  0.49201283  0.66071354  0.11245111  1
  In  In65  1  0.50175795  0.65283956  0.65307800  1
  In  In66  1  0.82337690  -0.00778307  0.12097761  1
  In  In67  1  0.82868503  0.00627845  0.63408864  1
  In  In68  1  0.85159849  0.33200308  0.12917430  1
  In  In69  1  0.83121970  0.33686998  0.63452547  1
  In  In70  1  0.82166024  0.66970388  0.12242395  1
  In  In71  1  0.84566992  0.65502943  0.62706502  1
  In  In72  1  -0.00413961  0.00351831  0.24719102  1
  In  In73  1  0.83169545  0.50550291  -0.00060534  1
  In  In74  1  0.33074851  0.31496451  0.23116686  1
  In  In75  1  0.84569539  0.83187886  0.49540893  1
  In  In76  1  0.33413049  0.66790138  0.24941467  1
  In  In77  1  -0.00013435  0.66814677  0.75117621  1
  In  In78  1  0.49633687  0.17259713  0.50051193  1
  In  In79  1  0.66348695  0.32840360  0.24453797  1
  In  In80  1  0.34123641  0.00066304  0.76503588  1
  In  In81  1  -0.00255635  0.66494287  0.24740031  1
  In  In82  1  0.66969309  0.67168388  0.24058046  1
  In  In83  1  0.48747798  0.83009727  0.49954298  1
  In  In84  1  0.83504399  0.17146895  0.49050910  1
  In  In85  1  0.48559039  0.50900753  0.51779395  1
  Cu  Cu86  1  0.32966716  0.66218505  -0.00915955  1
  Cu  Cu87  1  0.82687488  0.84596046  0.75624263  1
  Cu  Cu88  1  0.17642545  0.84534054  0.24466038  1
  Cu  Cu89  1  0.00163700  0.66439513  -0.00366994  1
  Cu  Cu90  1  0.17221284  0.16553939  0.75766149  1
  Cu  Cu91  1  0.00861604  0.00008795  0.50238054  1
  Cu  Cu92  1  0.33142105  0.66580565  0.50583073  1
  Cu  Cu93  1  0.50360774  0.16571093  0.76517216  1
  Cu  Cu94  1  0.49612840  0.83786757  0.76055526  1
  Cu  Cu95  1  0.32394124  -0.00329850  0.49834917  1
  Cu  Cu96  1  0.16674719  0.16896727  0.24136523  1
  Cu  Cu97  1  0.66512203  0.33951938  0.51387606  1
  Cu  Cu98  1  0.31875012  0.33002492  0.50397220  1
  Cu  Cu99  1  0.66828010  0.00175819  0.49980171  1
  Cu  Cu100  1  0.16011940  0.49516799  0.25062993  1
  Cu  Cu101  1  0.67108789  0.33233521  -0.00696084  1
  Cu  Cu102  1  0.16482976  0.83134873  0.75761679  1
  Cu  Cu103  1  0.65831976  0.66607463  -0.00795222  1
  Cu  Cu104  1  0.83444854  0.16668983  0.75680241  1
  Cu  Cu105  1  0.50297421  0.84525091  0.23465587  1
  Cu  Cu106  1  0.00045163  0.33130204  0.50242483  1
  Cu  Cu107  1  0.00941736  0.65830771  0.50428651  1
  Cu  Cu108  1  -0.00246346  0.00812107  0.00068446  1
  Cu  Cu109  1  0.83616303  0.50408540  0.75313018  1
  Cu  Cu110  1  0.49509832  0.49228175  0.23646931  1
  Cu  Cu111  1  0.17036022  0.49125927  0.75031423  1
  Cu  Cu112  1  0.67054421  -0.00561794  -0.00391534  1
  Cu  Cu113  1  0.00566996  0.33330497  -0.00645505  1
  Cu  Cu114  1  0.67912169  0.66094672  0.50861851  1
  Se  Se115  1  0.08709072  0.09319361  0.04618452  1
  Se  Se116  1  0.08823795  0.08387810  0.55791228  1
  Se  Se117  1  0.08542396  0.41699587  0.04992945  1
  Se  Se118  1  0.08324946  0.41306693  0.55809125  1
  Se  Se119  1  0.07927903  0.74930814  0.05374288  1
  Se  Se120  1  0.08691395  0.74785894  0.55579554  1
  Se  Se121  1  0.39799475  0.06222316  0.04493430  1
  Se  Se122  1  0.40698668  0.07549809  0.55893718  1
  Se  Se123  1  0.43812575  0.44047412  0.04173668  1
  Se  Se124  1  0.40368223  0.40369863  0.56760204  1
  Se  Se125  1  0.41616073  0.74620809  0.04233492  1
  Se  Se126  1  0.41552348  0.73744201  0.57036899  1
  Se  Se127  1  0.75269876  0.08028022  0.04870007  1
  Se  Se128  1  0.74317186  0.08799991  0.55898219  1
  Se  Se129  1  0.74854473  0.40818586  0.06013196  1
  Se  Se130  1  0.75506773  0.42079187  0.56147592  1
  Se  Se131  1  0.74703166  0.74390772  0.04603250  1
  Se  Se132  1  0.75319462  0.75259033  0.56327594  1
  Se  Se133  1  0.27597657  0.27331536  0.05202105  1
  Se  Se134  1  0.24188048  0.24133366  0.55654715  1
  Se  Se135  1  0.24313066  0.58559494  0.04763804  1
  Se  Se136  1  0.25153202  0.58177312  0.56178147  1
  Se  Se137  1  0.22004672  0.88860324  0.05699965  1
  Se  Se138  1  0.24975665  0.91078067  0.55636483  1
  Se  Se139  1  0.58640628  0.24368059  0.04094983  1
  Se  Se140  1  0.58051432  0.25954127  0.56963594  1
  Se  Se141  1  0.58294197  0.57912614  0.04852272  1
  Se  Se142  1  0.59060741  0.59129085  0.57025058  1
  Se  Se143  1  0.58166268  0.91322836  0.04785780  1
  Se  Se144  1  0.58271497  0.92439717  0.55743429  1
  Se  Se145  1  0.92042229  0.25553793  0.05014183  1
  Se  Se146  1  0.91901342  0.24973939  0.56259356  1
  Se  Se147  1  0.92586051  0.58812362  0.06349617  1
  Se  Se148  1  0.91706596  0.57900960  0.54996616  1
  Se  Se149  1  0.91559375  0.91967047  0.05127222  1
  Se  Se150  1  0.92290696  0.92595177  0.56251258  1
  Se  Se151  1  0.08232918  0.24767878  0.44792605  1
  Se  Se152  1  0.09014174  0.24917423  0.94232092  1
  Se  Se153  1  0.08980705  0.57716783  0.44599459  1
  Se  Se154  1  0.08481936  0.57854132  0.94803094  1
  Se  Se155  1  0.09033797  0.91210172  0.45105933  1
  Se  Se156  1  0.07902520  0.92127321  0.94720450  1
  Se  Se157  1  0.40512633  0.26181501  0.43850028  1
  Se  Se158  1  0.42717980  0.25427672  0.95655444  1
  Se  Se159  1  0.41097880  0.59165318  0.43750187  1
  Se  Se160  1  0.41538548  0.58289395  0.93715076  1
  Se  Se161  1  0.41462614  0.92986525  0.43525693  1
  Se  Se162  1  0.40821336  0.92749215  0.95861786  1
  Se  Se163  1  0.73411788  0.26337812  0.44159739  1
  Se  Se164  1  0.76015502  0.24646670  0.94984428  1
  Se  Se165  1  0.75448701  0.57391492  0.45311929  1
  Se  Se166  1  0.73800807  0.58104840  0.93372005  1
  Se  Se167  1  0.74896312  0.92372530  0.43988894  1
  Se  Se168  1  0.75473389  0.91182761  0.94253891  1
  Se  Se169  1  0.24490948  0.08533048  0.44607417  1
  Se  Se170  1  0.26585339  0.07437262  0.95832104  1
  Se  Se171  1  0.24287382  0.42215164  0.45253918  1
  Se  Se172  1  0.24169303  0.42734724  0.94177630  1
  Se  Se173  1  0.25583976  0.75213552  0.44778295  1
  Se  Se174  1  0.24183426  0.75068416  0.94545564  1
  Se  Se175  1  0.58732332  0.08139360  0.43894633  1
  Se  Se176  1  0.58586020  0.08294076  0.94927531  1
  Se  Se177  1  0.57915487  0.41878879  0.45388915  1
  Se  Se178  1  0.59109314  0.42102927  0.94271677  1
  Se  Se179  1  0.59654712  0.74190431  0.44833674  1
  Se  Se180  1  0.57622577  0.75336906  0.94234309  1
  Se  Se181  1  0.92758016  0.07261698  0.43754393  1
  Se  Se182  1  0.91535469  0.09060256  0.94511258  1
  Se  Se183  1  0.91535806  0.40985862  0.44568579  1
  Se  Se184  1  0.92063054  0.41473103  0.93787289  1
  Se  Se185  1  0.93520874  0.73772221  0.43655555  1
  Se  Se186  1  0.91299463  0.74926052  0.95119016  1
  Se  Se187  1  0.24161131  0.24879284  0.30846864  1
  Se  Se188  1  0.25918716  0.24613084  0.80924653  1
  Se  Se189  1  0.24335563  0.57486631  0.30884558  1
  Se  Se190  1  0.25075874  0.58083482  0.80010842  1
  Se  Se191  1  0.25537836  0.92693444  0.30198408  1
  Se  Se192  1  0.24414148  0.91202768  0.81866529  1
  Se  Se193  1  0.56790642  0.23822302  0.30265202  1
  Se  Se194  1  0.58723835  0.25242559  0.81469394  1
  Se  Se195  1  0.57596573  0.57215157  0.29860470  1
  Se  Se196  1  0.59891193  0.60656722  0.80070828  1
  Se  Se197  1  0.58631543  0.91939656  0.29597570  1
  Se  Se198  1  0.57778893  0.92514516  0.80972557  1
  Se  Se199  1  0.89310815  0.22795741  0.30201759  1
  Se  Se200  1  0.92271875  0.25068383  0.80427778  1
  Se  Se201  1  0.91040914  0.57563234  0.30922461  1
  Se  Se202  1  0.91209591  0.58303026  0.81678971  1
  Se  Se203  1  0.91082906  0.90414512  0.30591337  1
  Se  Se204  1  0.91905832  0.92226438  0.80590654  1
  Se  Se205  1  0.08908562  0.09219322  0.30758969  1
  Se  Se206  1  0.08925756  0.07993313  0.80872819  1
  Se  Se207  1  0.07859420  0.41380542  0.30561232  1
  Se  Se208  1  0.08326223  0.40817631  0.79930263  1
  Se  Se209  1  0.09842578  0.75771010  0.30154289  1
  Se  Se210  1  0.08397772  0.75198777  0.81827373  1
  Se  Se211  1  0.40658232  0.08669906  0.29197317  1
  Se  Se212  1  0.41557808  0.09861207  0.82677994  1
  Se  Se213  1  0.41744680  0.41228151  0.29970040  1
  Se  Se214  1  0.42498269  0.41737564  0.80310709  1
  Se  Se215  1  0.43057410  0.76407177  0.30305373  1
  Se  Se216  1  0.40780604  0.75549380  0.80888524  1
  Se  Se217  1  0.74127711  0.07851757  0.29250636  1
  Se  Se218  1  0.74899262  0.08381129  0.80823575  1
  Se  Se219  1  0.74649049  0.42288740  0.30970852  1
  Se  Se220  1  0.75566838  0.41478172  0.80230999  1
  Se  Se221  1  0.75853955  0.75514266  0.30962124  1
  Se  Se222  1  0.74561629  0.75561716  0.80319153  1
  Se  Se223  1  0.24788106  0.08654972  0.18708206  1
  Se  Se224  1  0.24992890  0.08072755  0.69604564  1
  Se  Se225  1  0.24386703  0.42218613  0.18652864  1
  Se  Se226  1  0.25127048  0.40247586  0.69864365  1
  Se  Se227  1  0.25909189  0.76503684  0.18689539  1
  Se  Se228  1  0.24820903  0.74548327  0.70680331  1
  Se  Se229  1  0.58935047  0.07348110  0.18925462  1
  Se  Se230  1  0.58580796  0.08262713  0.70989524  1
  Se  Se231  1  0.57205860  0.40940642  0.17803132  1
  Se  Se232  1  0.59161054  0.41834128  0.71074536  1
  Se  Se233  1  0.57602258  0.75472888  0.17837893  1
  Se  Se234  1  0.58101191  0.75727657  0.70383453  1
  Se  Se235  1  0.91288799  0.08889404  0.18118590  1
  Se  Se236  1  0.91673203  0.08134289  0.70211794  1
  Se  Se237  1  0.91588091  0.41872143  0.20300300  1
  Se  Se238  1  0.91969858  0.41820628  0.70136596  1
  Se  Se239  1  0.90716263  0.75704789  0.19082214  1
  Se  Se240  1  0.90796993  0.76407497  0.69417396  1
  Se  Se241  1  0.08352965  0.25524891  0.19195093  1
  Se  Se242  1  0.08583113  0.24307462  0.70064521  1
  Se  Se243  1  0.09265490  0.58118753  0.18656858  1
  Se  Se244  1  0.08679803  0.57464261  0.69191091  1
  Se  Se245  1  0.08914893  0.91881411  0.18681211  1
  Se  Se246  1  0.08568441  0.91549130  0.70196829  1
  Se  Se247  1  0.43377591  0.23321402  0.17959053  1
  Se  Se248  1  0.41867444  0.24113640  0.70439652  1
  Se  Se249  1  0.40861567  0.57234768  0.18209625  1
  Se  Se250  1  0.42295003  0.55935891  0.71117704  1
  Se  Se251  1  0.41283302  0.92382494  0.18452395  1
  Se  Se252  1  0.42104670  0.91389148  0.69079986  1
  Se  Se253  1  0.74975678  0.24327962  0.18078613  1
  Se  Se254  1  0.75096528  0.25200351  0.70308126  1
  Se  Se255  1  0.76122755  0.56910843  0.19433670  1
  Se  Se256  1  0.75617947  0.59049163  0.69943478  1
  Se  Se257  1  0.75234218  0.90742596  0.19479238  1
  Se  Se258  1  0.74151756  0.92557288  0.69982611  1
