# generated using pymatgen
data_In86Cu29Se144
_symmetry_space_group_name_H-M   'P 1'
_cell_length_a   17.58953934
_cell_length_b   17.58878877
_cell_length_c   23.45032721
_cell_angle_alpha   90.00864353
_cell_angle_beta   89.98712019
_cell_angle_gamma   90.01209412
_symmetry_Int_Tables_number   1
_chemical_formula_structural   In86Cu29Se144
_chemical_formula_sum   'In86 Cu29 Se144'
_cell_volume   7255.03112962
_cell_formula_units_Z   1
loop_
 _symmetry_equiv_pos_site_id
 _symmetry_equiv_pos_as_xyz
  1  'x, y, z'
loop_
 _atom_site_type_symbol
 _atom_site_label
 _atom_site_symmetry_multiplicity
 _atom_site_fract_x
 _atom_site_fract_y
 _atom_site_fract_z
 _atom_site_occupancy
  In  In0  1  -0.01414910  0.14027900  0.10429072  1
  In  In1  1  -0.01217005  0.15636144  0.61733541  1
  In  In2  1  0.00630511  0.50545528  0.11612611  1
  In  In3  1  -0.00026996  0.49637470  0.61887577  1
  In  In4  1  -0.01066934  0.84485585  0.13108985  1
  In  In5  1  0.00080433  0.83900977  0.62098284  1
  In  In6  1  0.33512161  0.16707554  0.12661829  1
  In  In7  1  0.33369635  0.17815585  0.62526596  1
  In  In8  1  0.32711116  0.49037761  0.12393229  1
  In  In9  1  0.31839229  0.49500151  0.62540630  1
  In  In10  1  0.34889916  0.84104693  0.12961416  1
  In  In11  1  0.32766142  0.84745933  0.62104937  1
  In  In12  1  0.65918829  0.15731771  0.12008374  1
  In  In13  1  0.68360252  0.17084002  0.62579346  1
  In  In14  1  0.66852513  0.49884777  0.11636013  1
  In  In15  1  0.66604389  0.48846966  0.62928792  1
  In  In16  1  0.67596948  0.83694779  0.12356721  1
  In  In17  1  0.67259563  0.83266964  0.62060053  1
  In  In18  1  0.16159874  0.00240728  0.37013395  1
  In  In19  1  0.16590244  0.01046445  0.87805268  1
  In  In20  1  0.17175527  0.32417219  0.37965899  1
  In  In21  1  0.17383287  0.32851623  0.87729412  1
  In  In22  1  0.15404652  0.68113535  0.37939045  1
  In  In23  1  0.14813816  0.65989818  0.88075198  1
  In  In24  1  0.50171805  -0.00059321  0.35829657  1
  In  In25  1  0.50930826  -0.00360118  0.89155632  1
  In  In26  1  0.48643317  0.34092570  0.36546390  1
  In  In27  1  0.50069589  0.33331589  0.87820903  1
  In  In28  1  0.50271391  0.66847734  0.37035109  1
  In  In29  1  0.50475173  0.66504403  0.88992151  1
  In  In30  1  0.83613679  -0.00262921  0.37371434  1
  In  In31  1  0.84792599  -0.00439214  0.88524447  1
  In  In32  1  0.83618117  0.33117995  0.38527957  1
  In  In33  1  0.82190157  0.34135231  0.87671017  1
  In  In34  1  0.84464681  0.66124437  0.37783488  1
  In  In35  1  0.83742244  0.67214993  0.88222892  1
  In  In36  1  0.00744945  0.16107201  0.37736088  1
  In  In37  1  0.00727166  0.15566615  0.88388935  1
  In  In38  1  -0.00714547  0.50824852  0.37945425  1
  In  In39  1  -0.00511774  0.51311407  0.89151337  1
  In  In40  1  -0.00214627  0.83538802  0.37141545  1
  In  In41  1  -0.02208746  0.84412756  0.88319331  1
  In  In42  1  0.32390677  0.15906160  0.36466670  1
  In  In43  1  0.32700748  0.17951564  0.88114274  1
  In  In44  1  0.32908470  0.48525604  0.36725636  1
  In  In45  1  0.34231940  0.49205295  0.88523118  1
  In  In46  1  0.32055635  0.83392826  0.36996623  1
  In  In47  1  0.33491938  0.84632801  0.88251967  1
  In  In48  1  0.68174383  0.16031469  0.37694314  1
  In  In49  1  0.66229051  0.17124849  0.88201979  1
  In  In50  1  0.67354228  0.50808867  0.37243865  1
  In  In51  1  0.67821136  0.48578167  0.87963860  1
  In  In52  1  0.68016884  0.86109547  0.36582519  1
  In  In53  1  0.67203487  0.83165169  0.88516741  1
  In  In54  1  0.15624740  0.01184326  0.13109127  1
  In  In55  1  0.15279004  -0.00969293  0.61205709  1
  In  In56  1  0.17098184  0.33142824  0.12266053  1
  In  In57  1  0.16894035  0.33509585  0.62175419  1
  In  In58  1  0.16180069  0.65421485  0.12711068  1
  In  In59  1  0.15731706  0.66289238  0.61600486  1
  In  In60  1  0.50290687  -0.00230210  0.13190235  1
  In  In61  1  0.50117130  -0.00630196  0.62540389  1
  In  In62  1  0.49609590  0.33077190  0.12127260  1
  In  In63  1  0.49391722  0.33346031  0.63755169  1
  In  In64  1  0.50082478  0.66783372  0.11695604  1
  In  In65  1  0.50730703  0.66834595  0.62692619  1
  In  In66  1  0.83448638  -0.00606230  0.12532579  1
  In  In67  1  0.83587536  0.00944552  0.61884057  1
  In  In68  1  0.83575634  0.33286920  0.11440792  1
  In  In69  1  0.83198686  0.33390099  0.62535392  1
  In  In70  1  0.84872817  0.67632728  0.11140911  1
  In  In71  1  0.83861807  0.67057861  0.61909467  1
  In  In72  1  0.50190347  0.49917693  0.48982474  1
  In  In73  1  -0.00425132  0.66720168  0.75543088  1
  In  In74  1  0.67041621  0.00752787  0.74370090  1
  In  In75  1  0.33141753  0.66271298  0.74935045  1
  In  In76  1  0.50115752  0.16206479  0.49557893  1
  In  In77  1  0.66275670  0.32535433  0.24096684  1
  In  In78  1  0.67572633  0.66073378  0.76354962  1
  In  In79  1  0.32987307  0.01747729  0.75460584  1
  In  In80  1  0.66606188  0.66572359  0.24316569  1
  In  In81  1  0.50229944  0.83079975  0.49768084  1
  In  In82  1  -0.00214470  0.33402307  0.75327120  1
  In  In83  1  0.32849375  0.66765375  0.24619512  1
  In  In84  1  0.00672744  0.32664584  0.24711331  1
  In  In85  1  0.16677710  0.83151543  0.00467813  1
  Cu  Cu86  1  0.16935844  0.49187185  0.75255603  1
  Cu  Cu87  1  0.50050796  0.17502499  0.75867935  1
  Cu  Cu88  1  0.50231187  0.83127371  0.75794756  1
  Cu  Cu89  1  0.49961646  0.16841232  0.24349464  1
  Cu  Cu90  1  0.66410361  0.33411007  -0.00088539  1
  Cu  Cu91  1  0.67831714  0.66673336  0.49642676  1
  Cu  Cu92  1  0.67321949  0.00174778  0.00524018  1
  Cu  Cu93  1  0.16135628  0.83890098  0.25159767  1
  Cu  Cu94  1  0.00148408  0.67218812  0.49801219  1
  Cu  Cu95  1  0.83628359  0.16658778  0.74968463  1
  Cu  Cu96  1  -0.00187073  0.00104439  0.49385735  1
  Cu  Cu97  1  0.32772321  0.33383793  0.49901760  1
  Cu  Cu98  1  0.49594794  0.48901512  0.75657325  1
  Cu  Cu99  1  0.00698949  0.32906460  -0.00288324  1
  Cu  Cu100  1  0.32374284  0.66637302  0.49805606  1
  Cu  Cu101  1  0.00245460  0.33617017  0.50153900  1
  Cu  Cu102  1  0.66528900  0.67101857  0.00221666  1
  Cu  Cu103  1  0.83524822  0.83341360  0.24783939  1
  Cu  Cu104  1  0.32941648  0.66473756  0.00865654  1
  Cu  Cu105  1  0.34212992  0.00441653  0.00668295  1
  Cu  Cu106  1  0.32487353  0.00207949  0.49117454  1
  Cu  Cu107  1  0.15937579  0.83610154  0.74409917  1
  Cu  Cu108  1  0.16728035  0.16855276  0.24741543  1
  Cu  Cu109  1  0.83461173  0.49888809  0.25106480  1
  Cu  Cu110  1  0.66946627  0.32967923  0.50396052  1
  Cu  Cu111  1  0.83874068  0.15442157  0.24792662  1
  Cu  Cu112  1  0.33540841  0.33166786  0.00176081  1
  Cu  Cu113  1  0.16000694  0.16592631  0.75238786  1
  Cu  Cu114  1  0.16122147  0.49886670  0.24616390  1
  Se  Se115  1  0.09764323  0.08446087  0.04659839  1
  Se  Se116  1  0.08078240  0.08658405  0.54797304  1
  Se  Se117  1  0.08643822  0.41269847  0.05420787  1
  Se  Se118  1  0.08869848  0.41908760  0.55266919  1
  Se  Se119  1  0.07597093  0.74735583  0.06595068  1
  Se  Se120  1  0.08432435  0.75647888  0.55183873  1
  Se  Se121  1  0.42517592  0.08540248  0.06139190  1
  Se  Se122  1  0.40656010  0.07297145  0.55749358  1
  Se  Se123  1  0.41728540  0.41858810  0.05341363  1
  Se  Se124  1  0.41421649  0.41189776  0.55677005  1
  Se  Se125  1  0.41337872  0.75365529  0.05431755  1
  Se  Se126  1  0.40779755  0.74127383  0.55995575  1
  Se  Se127  1  0.75681490  0.08562535  0.05711524  1
  Se  Se128  1  0.74082105  0.08109006  0.55308714  1
  Se  Se129  1  0.75182997  0.41742269  0.04861116  1
  Se  Se130  1  0.74933561  0.41821058  0.55518384  1
  Se  Se131  1  0.75270435  0.75437645  0.05110337  1
  Se  Se132  1  0.75472915  0.75349052  0.55134731  1
  Se  Se133  1  0.25280397  0.24686096  0.05452833  1
  Se  Se134  1  0.24799040  0.24748801  0.55237273  1
  Se  Se135  1  0.24628696  0.57842265  0.05687847  1
  Se  Se136  1  0.24721249  0.57984471  0.55317633  1
  Se  Se137  1  0.25634664  0.92386116  0.06337293  1
  Se  Se138  1  0.24621010  0.91481697  0.54568374  1
  Se  Se139  1  0.58406081  0.25079852  0.05505532  1
  Se  Se140  1  0.58055534  0.25674142  0.56135780  1
  Se  Se141  1  0.58308024  0.58272582  0.05075240  1
  Se  Se142  1  0.59116990  0.58902542  0.55437952  1
  Se  Se143  1  0.58740259  0.92033108  0.05911070  1
  Se  Se144  1  0.59254341  0.92667141  0.55313763  1
  Se  Se145  1  0.91853693  0.24853363  0.04812495  1
  Se  Se146  1  0.91555755  0.25512626  0.55513500  1
  Se  Se147  1  0.89923805  0.56214324  0.05429677  1
  Se  Se148  1  0.92118973  0.58585665  0.55297927  1
  Se  Se149  1  0.91406766  0.91393597  0.05299624  1
  Se  Se150  1  0.91689366  0.92062843  0.55275907  1
  Se  Se151  1  0.08166773  0.25000377  0.44711946  1
  Se  Se152  1  0.09204678  0.24539804  0.94567925  1
  Se  Se153  1  0.08388804  0.58550701  0.44598915  1
  Se  Se154  1  0.08935555  0.57945227  0.95950553  1
  Se  Se155  1  0.08221802  0.91795180  0.44020475  1
  Se  Se156  1  0.08012975  0.92294389  0.94422774  1
  Se  Se157  1  0.40911606  0.25477262  0.43892054  1
  Se  Se158  1  0.42090819  0.24881978  0.94877511  1
  Se  Se159  1  0.40550733  0.59146323  0.43670442  1
  Se  Se160  1  0.41503168  0.58392483  0.95283331  1
  Se  Se161  1  0.41307368  0.92259111  0.43703557  1
  Se  Se162  1  0.42073941  0.91376344  0.95559262  1
  Se  Se163  1  0.75159411  0.24591142  0.45026542  1
  Se  Se164  1  0.75082918  0.25190898  0.94777653  1
  Se  Se165  1  0.75756027  0.57770590  0.44522085  1
  Se  Se166  1  0.74329555  0.59043622  0.94174357  1
  Se  Se167  1  0.76153300  0.91171898  0.44623575  1
  Se  Se168  1  0.75442246  0.91794048  0.94963195  1
  Se  Se169  1  0.24333337  0.08827737  0.44062539  1
  Se  Se170  1  0.25967681  0.07912078  0.94544505  1
  Se  Se171  1  0.24809264  0.41949056  0.44507932  1
  Se  Se172  1  0.24923062  0.41448231  0.94874395  1
  Se  Se173  1  0.24744330  0.75593765  0.44595367  1
  Se  Se174  1  0.25561046  0.74110670  0.93991961  1
  Se  Se175  1  0.58777747  0.06999433  0.43735495  1
  Se  Se176  1  0.58721794  0.08703459  0.95507558  1
  Se  Se177  1  0.59309090  0.40306615  0.43551696  1
  Se  Se178  1  0.58077190  0.41980312  0.94690902  1
  Se  Se179  1  0.59554990  0.74465534  0.43707659  1
  Se  Se180  1  0.58020894  0.75912133  0.95294667  1
  Se  Se181  1  0.91432888  0.08677347  0.44291298  1
  Se  Se182  1  0.91106900  0.09259981  0.95244690  1
  Se  Se183  1  0.91743089  0.41954857  0.44873915  1
  Se  Se184  1  0.91889047  0.40926418  0.94487342  1
  Se  Se185  1  0.91709847  0.75413865  0.44437337  1
  Se  Se186  1  0.94384583  0.72887725  0.94510815  1
  Se  Se187  1  0.24855039  0.25478029  0.30033972  1
  Se  Se188  1  0.24814154  0.24729892  0.80196955  1
  Se  Se189  1  0.23776641  0.58200599  0.30949326  1
  Se  Se190  1  0.24297857  0.57788413  0.81350466  1
  Se  Se191  1  0.24836839  0.92220984  0.30051524  1
  Se  Se192  1  0.24375289  0.91183918  0.80572340  1
  Se  Se193  1  0.57860456  0.24098533  0.31196768  1
  Se  Se194  1  0.58883506  0.25486504  0.80840339  1
  Se  Se195  1  0.57460271  0.57172776  0.30266054  1
  Se  Se196  1  0.57241494  0.57557329  0.81387948  1
  Se  Se197  1  0.57667787  0.90380933  0.29724577  1
  Se  Se198  1  0.58459702  0.91567516  0.81119480  1
  Se  Se199  1  0.90899416  0.24432831  0.30805212  1
  Se  Se200  1  0.91368945  0.24247137  0.81508946  1
  Se  Se201  1  0.91895212  0.58354986  0.30130799  1
  Se  Se202  1  0.90637408  0.57339082  0.81069332  1
  Se  Se203  1  0.91796139  0.91872451  0.30101539  1
  Se  Se204  1  0.91806559  0.92462660  0.80447187  1
  Se  Se205  1  0.08057936  0.08646904  0.29964941  1
  Se  Se206  1  0.08053085  0.08009192  0.80432108  1
  Se  Se207  1  0.08584445  0.42013856  0.31225182  1
  Se  Se208  1  0.08308136  0.42510675  0.81629846  1
  Se  Se209  1  0.07877772  0.75035236  0.30030084  1
  Se  Se210  1  0.08629411  0.76149076  0.81170928  1
  Se  Se211  1  0.41489040  0.08586578  0.29736220  1
  Se  Se212  1  0.42982778  0.08732229  0.81883689  1
  Se  Se213  1  0.41627410  0.42350582  0.29329105  1
  Se  Se214  1  0.40937515  0.40954015  0.80836921  1
  Se  Se215  1  0.42088225  0.75762562  0.30537912  1
  Se  Se216  1  0.41846414  0.75277915  0.81412048  1
  Se  Se217  1  0.75033110  0.07777119  0.30190345  1
  Se  Se218  1  0.75476446  0.08883808  0.81247183  1
  Se  Se219  1  0.75544800  0.41346549  0.30596215  1
  Se  Se220  1  0.74945623  0.41694160  0.79927497  1
  Se  Se221  1  0.75533667  0.75008041  0.30869056  1
  Se  Se222  1  0.76320984  0.76458936  0.80934867  1
  Se  Se223  1  0.25239138  0.08369232  0.19640088  1
  Se  Se224  1  0.23719701  0.08823000  0.68526824  1
  Se  Se225  1  0.24565648  0.41375761  0.19741547  1
  Se  Se226  1  0.25035063  0.40868165  0.69861608  1
  Se  Se227  1  0.23935221  0.76046512  0.18724019  1
  Se  Se228  1  0.24288602  0.75580505  0.68842060  1
  Se  Se229  1  0.58912401  0.08333661  0.19951896  1
  Se  Se230  1  0.57108737  0.09736441  0.68952633  1
  Se  Se231  1  0.57843503  0.42574831  0.18947245  1
  Se  Se232  1  0.58425890  0.41327913  0.70142338  1
  Se  Se233  1  0.57513317  0.75799332  0.18906749  1
  Se  Se234  1  0.58478171  0.75506410  0.69828651  1
  Se  Se235  1  0.92357908  0.07669101  0.19255564  1
  Se  Se236  1  0.91610139  0.08136056  0.69616059  1
  Se  Se237  1  0.91323273  0.41686948  0.19048270  1
  Se  Se238  1  0.91163876  0.42769071  0.69409061  1
  Se  Se239  1  0.91554994  0.74638937  0.19533717  1
  Se  Se240  1  0.91190076  0.75813905  0.69309848  1
  Se  Se241  1  0.08208789  0.23412434  0.18116242  1
  Se  Se242  1  0.08186749  0.24409671  0.68851954  1
  Se  Se243  1  0.07403475  0.58094732  0.19774974  1
  Se  Se244  1  0.08965026  0.57547525  0.69477451  1
  Se  Se245  1  0.07883116  0.92246217  0.19785917  1
  Se  Se246  1  0.07914156  0.92240807  0.69314646  1
  Se  Se247  1  0.41601909  0.25485941  0.19554251  1
  Se  Se248  1  0.41016217  0.24879516  0.70349391  1
  Se  Se249  1  0.41971995  0.58028478  0.18738330  1
  Se  Se250  1  0.42570445  0.57132845  0.69014869  1
  Se  Se251  1  0.41544152  0.92446169  0.20351563  1
  Se  Se252  1  0.41973368  0.91139289  0.69992537  1
  Se  Se253  1  0.76235761  0.23924407  0.18805370  1
  Se  Se254  1  0.75353525  0.25372825  0.69980657  1
  Se  Se255  1  0.75983100  0.57771463  0.18665036  1
  Se  Se256  1  0.75585362  0.58188505  0.68967560  1
  Se  Se257  1  0.74969445  0.91754749  0.19847207  1
  Se  Se258  1  0.75838573  0.91137297  0.69046772  1
