# generated using pymatgen
data_In86Cu29Se144
_symmetry_space_group_name_H-M   'P 1'
_cell_length_a   17.58671250
_cell_length_b   17.58399600
_cell_length_c   23.44115633
_cell_angle_alpha   90.04940378
_cell_angle_beta   89.97788591
_cell_angle_gamma   89.98400340
_symmetry_Int_Tables_number   1
_chemical_formula_structural   In86Cu29Se144
_chemical_formula_sum   'In86 Cu29 Se144'
_cell_volume   7249.04941968
_cell_formula_units_Z   1
loop_
 _symmetry_equiv_pos_site_id
 _symmetry_equiv_pos_as_xyz
  1  'x, y, z'
loop_
 _atom_site_type_symbol
 _atom_site_label
 _atom_site_symmetry_multiplicity
 _atom_site_fract_x
 _atom_site_fract_y
 _atom_site_fract_z
 _atom_site_occupancy
  In  In0  1  0.00211130  0.16710501  0.12109053  1
  In  In1  1  -0.01114625  0.15145047  0.62134080  1
  In  In2  1  0.00505834  0.51485183  0.11198388  1
  In  In3  1  -0.00891408  0.50909640  0.62422892  1
  In  In4  1  -0.00665783  0.81987743  0.11077095  1
  In  In5  1  0.00700128  0.83832608  0.62175413  1
  In  In6  1  0.31970459  0.15594867  0.12647020  1
  In  In7  1  0.33389742  0.16394432  0.62391320  1
  In  In8  1  0.33449009  0.50488839  0.12535513  1
  In  In9  1  0.32136827  0.49631175  0.62951619  1
  In  In10  1  0.33757782  0.84215926  0.11597765  1
  In  In11  1  0.33886122  0.84919893  0.62183972  1
  In  In12  1  0.67668888  0.16357157  0.13021022  1
  In  In13  1  0.67222573  0.17957144  0.61090218  1
  In  In14  1  0.67617562  0.48654772  0.13827706  1
  In  In15  1  0.66760476  0.48226781  0.61755753  1
  In  In16  1  0.66094997  0.82585742  0.12368600  1
  In  In17  1  0.67045942  0.83632411  0.61711806  1
  In  In18  1  0.17178074  -0.00003329  0.37492063  1
  In  In19  1  0.16670533  0.00739172  0.87191420  1
  In  In20  1  0.15953292  0.32924408  0.37749048  1
  In  In21  1  0.17093576  0.32018794  0.88245744  1
  In  In22  1  0.16950284  0.68409982  0.36666928  1
  In  In23  1  0.14017048  0.68340767  0.90104291  1
  In  In24  1  0.48309504  0.01526228  0.37842031  1
  In  In25  1  0.48584492  0.00222121  0.87603269  1
  In  In26  1  0.50893432  0.31768720  0.37431607  1
  In  In27  1  0.49592336  0.32692933  0.86487097  1
  In  In28  1  0.51842026  0.66547855  0.37120337  1
  In  In29  1  0.50589812  0.68074591  0.87825715  1
  In  In30  1  0.83115130  0.00051326  0.38428647  1
  In  In31  1  0.84865741  -0.01052861  0.87906988  1
  In  In32  1  0.81983327  0.34558242  0.39243967  1
  In  In33  1  0.82838603  0.33769933  0.87800927  1
  In  In34  1  0.83305789  0.66938041  0.36881715  1
  In  In35  1  0.83300722  0.67141074  0.88499011  1
  In  In36  1  0.00003975  0.16496303  0.38412409  1
  In  In37  1  0.01053208  0.15362690  0.87907590  1
  In  In38  1  -0.01219949  0.49864298  0.36914509  1
  In  In39  1  -0.00864844  0.51073663  0.89323587  1
  In  In40  1  0.00630953  0.83069300  0.37422752  1
  In  In41  1  -0.01091662  0.84743957  0.87877358  1
  In  In42  1  0.34044188  0.15578881  0.37714947  1
  In  In43  1  0.32048238  0.15401602  0.86301805  1
  In  In44  1  0.33522652  0.49506504  0.37415443  1
  In  In45  1  0.32682430  0.48884854  0.87564417  1
  In  In46  1  0.32113348  0.84874585  0.37883840  1
  In  In47  1  0.31085746  0.87038307  0.90093448  1
  In  In48  1  0.65371765  0.18154259  0.38870944  1
  In  In49  1  0.66499261  0.17985856  0.87197996  1
  In  In50  1  0.67216930  0.50826640  0.36342175  1
  In  In51  1  0.67638734  0.49581297  0.87457118  1
  In  In52  1  0.67497938  0.82810065  0.37897379  1
  In  In53  1  0.67046748  0.83283149  0.88430434  1
  In  In54  1  0.18017601  0.00195557  0.11553318  1
  In  In55  1  0.16716904  0.00300934  0.62559838  1
  In  In56  1  0.16260753  0.32564088  0.11887531  1
  In  In57  1  0.18418921  0.32766761  0.63245779  1
  In  In58  1  0.15826905  0.66217619  0.11165034  1
  In  In59  1  0.15092213  0.67346108  0.62590811  1
  In  In60  1  0.49684500  -0.00764598  0.12804182  1
  In  In61  1  0.49431041  -0.00546762  0.61959351  1
  In  In62  1  0.50892685  0.34157692  0.13449539  1
  In  In63  1  0.51022674  0.32059343  0.62623088  1
  In  In64  1  0.50051350  0.67379023  0.13330179  1
  In  In65  1  0.49552054  0.67865272  0.62060484  1
  In  In66  1  0.84009994  0.00409544  0.11698198  1
  In  In67  1  0.83762563  -0.00158371  0.62501469  1
  In  In68  1  0.82878749  0.33134401  0.12052837  1
  In  In69  1  0.82189320  0.32490468  0.61381249  1
  In  In70  1  0.83433042  0.66374468  0.12248247  1
  In  In71  1  0.83759268  0.66424325  0.61617047  1
  In  In72  1  -0.00433936  0.33006313  0.24358429  1
  In  In73  1  0.66916996  0.00392478  0.74193087  1
  In  In74  1  -0.00326492  0.66986362  0.76023424  1
  In  In75  1  0.33570199  0.67084893  0.24278211  1
  In  In76  1  0.34213806  0.32518165  0.25797999  1
  In  In77  1  0.00126523  0.33157425  0.75697317  1
  In  In78  1  0.50108865  0.50016816  0.49238189  1
  In  In79  1  0.66084039  0.00119993  0.25272176  1
  In  In80  1  0.66984885  0.66504714  0.75885243  1
  In  In81  1  0.15718897  0.50559764  0.50656753  1
  In  In82  1  0.33284356  0.66509192  0.75722235  1
  In  In83  1  0.49945145  0.16063357  0.00418746  1
  In  In84  1  0.00203882  -0.00326003  0.24956888  1
  In  In85  1  0.50179247  0.50303062  0.00627639  1
  Cu  Cu86  1  0.17514885  0.84299503  0.74952592  1
  Cu  Cu87  1  0.67380848  0.00052415  0.00290305  1
  Cu  Cu88  1  0.67087111  0.66910556  0.00386548  1
  Cu  Cu89  1  0.66189308  -0.00327379  0.50035629  1
  Cu  Cu90  1  0.49865494  0.49009352  0.74736352  1
  Cu  Cu91  1  0.82423944  0.49010423  0.74833255  1
  Cu  Cu92  1  0.82887418  0.82778461  0.24565902  1
  Cu  Cu93  1  0.32835372  0.00189128  0.50185339  1
  Cu  Cu94  1  0.16810193  0.16463640  0.75014870  1
  Cu  Cu95  1  -0.00384843  0.67047345  0.49422640  1
  Cu  Cu96  1  0.82828865  0.17627527  0.25556923  1
  Cu  Cu97  1  0.16810597  0.49721072  0.76183904  1
  Cu  Cu98  1  0.49845979  0.83876006  0.75168355  1
  Cu  Cu99  1  0.00360751  0.00047868  -0.00050622  1
  Cu  Cu100  1  0.16635593  0.50173836  0.23809248  1
  Cu  Cu101  1  -0.00604515  0.33132958  0.00021607  1
  Cu  Cu102  1  0.00314037  -0.00303341  0.50185191  1
  Cu  Cu103  1  0.67154539  0.33673621  0.00031521  1
  Cu  Cu104  1  0.83137389  0.16467509  0.74465399  1
  Cu  Cu105  1  0.33209711  0.68308515  0.49885991  1
  Cu  Cu106  1  0.33024790  0.32251608  -0.00147094  1
  Cu  Cu107  1  0.33879944  0.66604495  0.00645313  1
  Cu  Cu108  1  0.49663062  0.83588418  0.25223872  1
  Cu  Cu109  1  0.15966827  0.83482773  0.24518772  1
  Cu  Cu110  1  0.33539593  0.32919690  0.50298496  1
  Cu  Cu111  1  0.83497375  0.50574351  0.24968413  1
  Cu  Cu112  1  0.00103995  0.32809789  0.50254443  1
  Cu  Cu113  1  0.67228234  0.66561598  0.49407175  1
  Cu  Cu114  1  0.49786839  0.17126828  0.74524092  1
  Se  Se115  1  0.08509165  0.08335120  0.05464769  1
  Se  Se116  1  0.08501151  0.08372502  0.55412064  1
  Se  Se117  1  0.08041585  0.41172409  0.05419250  1
  Se  Se118  1  0.07807344  0.40653564  0.56813025  1
  Se  Se119  1  0.09470100  0.75894271  0.04472843  1
  Se  Se120  1  0.08173244  0.75071461  0.54896242  1
  Se  Se121  1  0.40589890  0.06898222  0.05598920  1
  Se  Se122  1  0.41644986  0.08413194  0.55279176  1
  Se  Se123  1  0.41064445  0.40298691  0.05863200  1
  Se  Se124  1  0.41129039  0.41712651  0.56016007  1
  Se  Se125  1  0.42389033  0.74798885  0.05774860  1
  Se  Se126  1  0.41825508  0.76228220  0.55211619  1
  Se  Se127  1  0.75305367  0.08996483  0.05361616  1
  Se  Se128  1  0.74778452  0.07472077  0.55693578  1
  Se  Se129  1  0.74978877  0.42334346  0.05455002  1
  Se  Se130  1  0.76166168  0.42507993  0.54673501  1
  Se  Se131  1  0.75346443  0.75493471  0.05553037  1
  Se  Se132  1  0.75209608  0.74877713  0.55168014  1
  Se  Se133  1  0.24754009  0.24116078  0.05340657  1
  Se  Se134  1  0.24890755  0.24750396  0.55428078  1
  Se  Se135  1  0.25431013  0.57798849  0.05254279  1
  Se  Se136  1  0.25648153  0.59845941  0.55987046  1
  Se  Se137  1  0.24433944  0.90658723  0.04617001  1
  Se  Se138  1  0.24438622  0.91652026  0.55372273  1
  Se  Se139  1  0.59003142  0.25709917  0.05976491  1
  Se  Se140  1  0.58174282  0.25543319  0.54484395  1
  Se  Se141  1  0.59320736  0.58877740  0.06642679  1
  Se  Se142  1  0.58891478  0.59065530  0.55788161  1
  Se  Se143  1  0.58839683  0.92224230  0.05869654  1
  Se  Se144  1  0.57871196  0.91152979  0.55216932  1
  Se  Se145  1  0.91358599  0.24641232  0.05531915  1
  Se  Se146  1  0.91651652  0.24408560  0.55381645  1
  Se  Se147  1  0.91267106  0.58727379  0.04747541  1
  Se  Se148  1  0.91765416  0.58099591  0.54583524  1
  Se  Se149  1  0.91590062  0.91670505  0.04879279  1
  Se  Se150  1  0.91722432  0.91472817  0.55418290  1
  Se  Se151  1  0.08730472  0.24734331  0.45078040  1
  Se  Se152  1  0.07931935  0.24646605  0.94899760  1
  Se  Se153  1  0.08055235  0.59074827  0.43420791  1
  Se  Se154  1  0.09710645  0.56595672  0.95612102  1
  Se  Se155  1  0.08404281  0.91866603  0.44140916  1
  Se  Se156  1  0.08567208  0.92130105  0.94139286  1
  Se  Se157  1  0.41498373  0.25099354  0.44331022  1
  Se  Se158  1  0.41272904  0.24716084  0.93781653  1
  Se  Se159  1  0.40660132  0.59702693  0.43909331  1
  Se  Se160  1  0.41428997  0.58753086  0.93962888  1
  Se  Se161  1  0.41340782  0.92044479  0.44678839  1
  Se  Se162  1  0.43773312  0.90511131  0.94867111  1
  Se  Se163  1  0.76646494  0.23182047  0.44777617  1
  Se  Se164  1  0.74944913  0.24889144  0.94655744  1
  Se  Se165  1  0.75256613  0.58328298  0.43829431  1
  Se  Se166  1  0.74595267  0.58342213  0.94610097  1
  Se  Se167  1  0.74957227  0.91406873  0.45009899  1
  Se  Se168  1  0.75635457  0.91705576  0.94832203  1
  Se  Se169  1  0.24746300  0.08574902  0.44640755  1
  Se  Se170  1  0.25344316  0.08289948  0.94271908  1
  Se  Se171  1  0.25272714  0.41441489  0.44752662  1
  Se  Se172  1  0.24863429  0.41170452  0.94929914  1
  Se  Se173  1  0.24208768  0.75729531  0.44502262  1
  Se  Se174  1  0.26023978  0.74504497  0.94577270  1
  Se  Se175  1  0.57933648  0.08110771  0.44746504  1
  Se  Se176  1  0.59291372  0.07726088  0.93961113  1
  Se  Se177  1  0.59444068  0.41394421  0.43591606  1
  Se  Se178  1  0.58222335  0.40853073  0.94095236  1
  Se  Se179  1  0.58380651  0.74983961  0.44689885  1
  Se  Se180  1  0.58526356  0.75289429  0.95324455  1
  Se  Se181  1  0.91749139  0.08108605  0.45080308  1
  Se  Se182  1  0.91663754  0.08432003  0.94778236  1
  Se  Se183  1  0.92596076  0.41797092  0.44867803  1
  Se  Se184  1  0.90841310  0.41588152  0.95062959  1
  Se  Se185  1  0.91412677  0.75345534  0.43951143  1
  Se  Se186  1  0.94278149  0.73281591  0.93957038  1
  Se  Se187  1  0.24199344  0.24196373  0.31121168  1
  Se  Se188  1  0.24798415  0.25431090  0.80126782  1
  Se  Se189  1  0.24566934  0.57603252  0.30443476  1
  Se  Se190  1  0.23689194  0.58827475  0.82092744  1
  Se  Se191  1  0.24338087  0.91608897  0.29934525  1
  Se  Se192  1  0.25728020  0.92327125  0.80602265  1
  Se  Se193  1  0.59107111  0.24426253  0.30164811  1
  Se  Se194  1  0.58547331  0.25220731  0.79627110  1
  Se  Se195  1  0.58378647  0.58445554  0.29585386  1
  Se  Se196  1  0.57122506  0.57292596  0.81142627  1
  Se  Se197  1  0.57463124  0.91303721  0.31643347  1
  Se  Se198  1  0.58518028  0.91524980  0.81008637  1
  Se  Se199  1  0.91233250  0.25145300  0.31560936  1
  Se  Se200  1  0.90997785  0.23900052  0.81229794  1
  Se  Se201  1  0.92096315  0.58978575  0.29908104  1
  Se  Se202  1  0.90247787  0.57116924  0.81013754  1
  Se  Se203  1  0.90488755  0.91131705  0.30724546  1
  Se  Se204  1  0.91696538  0.91625759  0.79913231  1
  Se  Se205  1  0.08592565  0.09160139  0.30810040  1
  Se  Se206  1  0.08062938  0.08076692  0.79864438  1
  Se  Se207  1  0.09090941  0.42278294  0.30325091  1
  Se  Se208  1  0.08197580  0.42373888  0.82139270  1
  Se  Se209  1  0.07686243  0.74977520  0.29618346  1
  Se  Se210  1  0.09490289  0.76147730  0.80959436  1
  Se  Se211  1  0.41068395  0.08215969  0.29776437  1
  Se  Se212  1  0.41962947  0.08393993  0.79869546  1
  Se  Se213  1  0.43208722  0.42299276  0.31022204  1
  Se  Se214  1  0.41089183  0.41525249  0.80279579  1
  Se  Se215  1  0.41577536  0.75557257  0.31384645  1
  Se  Se216  1  0.41698673  0.76305526  0.81305004  1
  Se  Se217  1  0.75341736  0.08781164  0.31240074  1
  Se  Se218  1  0.75470255  0.08673971  0.81073253  1
  Se  Se219  1  0.76097315  0.41592218  0.30521876  1
  Se  Se220  1  0.74299755  0.40640357  0.80168024  1
  Se  Se221  1  0.74389691  0.74888566  0.30069042  1
  Se  Se222  1  0.76187821  0.76053165  0.80948772  1
  Se  Se223  1  0.24933259  0.07063690  0.19820619  1
  Se  Se224  1  0.25255634  0.08268163  0.69531637  1
  Se  Se225  1  0.24962760  0.41295985  0.19050716  1
  Se  Se226  1  0.25047360  0.41734058  0.70594793  1
  Se  Se227  1  0.24175744  0.75516163  0.18393342  1
  Se  Se228  1  0.24680417  0.75381566  0.69005885  1
  Se  Se229  1  0.57292826  0.09235731  0.19242072  1
  Se  Se230  1  0.57879617  0.09318034  0.68293189  1
  Se  Se231  1  0.58973125  0.41199508  0.20761121  1
  Se  Se232  1  0.58562371  0.41357017  0.69327172  1
  Se  Se233  1  0.58435341  0.75412308  0.20245541  1
  Se  Se234  1  0.58022185  0.75636919  0.69538441  1
  Se  Se235  1  0.90806581  0.09405086  0.19588030  1
  Se  Se236  1  0.91660573  0.07691063  0.69973232  1
  Se  Se237  1  0.91405498  0.42767926  0.18539351  1
  Se  Se238  1  0.91206337  0.41596150  0.69057557  1
  Se  Se239  1  0.91670434  0.75135188  0.19081735  1
  Se  Se240  1  0.91490717  0.75054770  0.68926545  1
  Se  Se241  1  0.09368955  0.23719151  0.19598164  1
  Se  Se242  1  0.08388308  0.24276246  0.69039188  1
  Se  Se243  1  0.08321264  0.58740374  0.18982936  1
  Se  Se244  1  0.08809995  0.57411136  0.69925355  1
  Se  Se245  1  0.08190849  0.91111564  0.18048999  1
  Se  Se246  1  0.08520181  0.91745388  0.69486482  1
  Se  Se247  1  0.42045107  0.24088817  0.18628155  1
  Se  Se248  1  0.41233633  0.25398915  0.69252064  1
  Se  Se249  1  0.42904822  0.56926451  0.19727806  1
  Se  Se250  1  0.42447605  0.57845183  0.68987227  1
  Se  Se251  1  0.41161423  0.91328259  0.19704054  1
  Se  Se252  1  0.41647770  0.92239623  0.69821894  1
  Se  Se253  1  0.74948812  0.25682634  0.19717865  1
  Se  Se254  1  0.74940417  0.24817123  0.69157640  1
  Se  Se255  1  0.75078777  0.58835552  0.19621753  1
  Se  Se256  1  0.75210183  0.57837499  0.68903874  1
  Se  Se257  1  0.75591093  0.91834048  0.18905405  1
  Se  Se258  1  0.75795653  0.90289260  0.69360356  1
