# generated using pymatgen
data_In86Cu29Se144
_symmetry_space_group_name_H-M   'P 1'
_cell_length_a   17.57338500
_cell_length_b   17.57078330
_cell_length_c   23.43804272
_cell_angle_alpha   90.01925398
_cell_angle_beta   90.02403551
_cell_angle_gamma   90.00084958
_symmetry_Int_Tables_number   1
_chemical_formula_structural   In86Cu29Se144
_chemical_formula_sum   'In86 Cu29 Se144'
_cell_volume   7237.15418124
_cell_formula_units_Z   1
loop_
 _symmetry_equiv_pos_site_id
 _symmetry_equiv_pos_as_xyz
  1  'x, y, z'
loop_
 _atom_site_type_symbol
 _atom_site_label
 _atom_site_symmetry_multiplicity
 _atom_site_fract_x
 _atom_site_fract_y
 _atom_site_fract_z
 _atom_site_occupancy
  In  In0  1  0.00140823  0.16440239  0.12701308  1
  In  In1  1  -0.01189676  0.16183961  0.62306742  1
  In  In2  1  -0.02228441  0.48204707  0.11356489  1
  In  In3  1  0.00542335  0.49614014  0.62066860  1
  In  In4  1  0.00986887  0.83910764  0.13229196  1
  In  In5  1  0.01216495  0.85205875  0.60339142  1
  In  In6  1  0.32859279  0.17245775  0.13171830  1
  In  In7  1  0.33328857  0.14816880  0.62552060  1
  In  In8  1  0.32023251  0.49923761  0.12717362  1
  In  In9  1  0.33061040  0.50954336  0.62334106  1
  In  In10  1  0.34411709  0.83152924  0.12966408  1
  In  In11  1  0.34480150  0.83833374  0.61469764  1
  In  In12  1  0.68038635  0.15089757  0.12589539  1
  In  In13  1  0.65653871  0.17392177  0.62753863  1
  In  In14  1  0.68749779  0.48250744  0.14350907  1
  In  In15  1  0.66312274  0.50109873  0.64130637  1
  In  In16  1  0.66111710  0.84500246  0.13052205  1
  In  In17  1  0.66560165  0.83593140  0.62459833  1
  In  In18  1  0.15302486  -0.02117606  0.35468720  1
  In  In19  1  0.17451231  0.00423851  0.87165941  1
  In  In20  1  0.16861372  0.34141083  0.36809240  1
  In  In21  1  0.15763426  0.33912998  0.88558960  1
  In  In22  1  0.15096532  0.67207093  0.38905878  1
  In  In23  1  0.15926342  0.65556816  0.87750621  1
  In  In24  1  0.50027779  0.00127316  0.37720782  1
  In  In25  1  0.49753899  -0.00554898  0.87142802  1
  In  In26  1  0.49354412  0.32775404  0.36608361  1
  In  In27  1  0.50467749  0.32595897  0.87334745  1
  In  In28  1  0.51266940  0.67263146  0.37650637  1
  In  In29  1  0.52263018  0.66849407  0.87335574  1
  In  In30  1  0.83303412  -0.00441755  0.37358891  1
  In  In31  1  0.83723046  0.00506059  0.87144390  1
  In  In32  1  0.82803426  0.33305794  0.35730177  1
  In  In33  1  0.83100149  0.33734521  0.88293327  1
  In  In34  1  0.84125254  0.68311020  0.37320352  1
  In  In35  1  0.82273496  0.67007600  0.87938103  1
  In  In36  1  -0.00606475  0.16185941  0.36700697  1
  In  In37  1  0.00499622  0.16064385  0.88324500  1
  In  In38  1  0.00815592  0.50869567  0.36937387  1
  In  In39  1  0.00121632  0.50383775  0.89413234  1
  In  In40  1  -0.00447143  0.83771212  0.38610121  1
  In  In41  1  -0.01089527  0.83847578  0.87404749  1
  In  In42  1  0.33743583  0.16851703  0.37101009  1
  In  In43  1  0.33674188  0.15240249  0.87738945  1
  In  In44  1  0.32348869  0.48944339  0.36862404  1
  In  In45  1  0.33137881  0.49121538  0.87920149  1
  In  In46  1  0.32088102  0.84900827  0.38125170  1
  In  In47  1  0.33351781  0.85044456  0.87465506  1
  In  In48  1  0.65852307  0.15562126  0.36848140  1
  In  In49  1  0.67545950  0.17018725  0.87334443  1
  In  In50  1  0.67127191  0.50257712  0.35803631  1
  In  In51  1  0.67400700  0.51040398  0.86907497  1
  In  In52  1  0.66686416  0.83909554  0.37799750  1
  In  In53  1  0.66264008  0.82775653  0.87049026  1
  In  In54  1  0.15357099  0.00846024  0.13922203  1
  In  In55  1  0.17314198  -0.00565238  0.62909932  1
  In  In56  1  0.16449192  0.33088361  0.12919711  1
  In  In57  1  0.15840414  0.33570182  0.62071906  1
  In  In58  1  0.17027866  0.66468009  0.12379607  1
  In  In59  1  0.16080589  0.67227953  0.61007346  1
  In  In60  1  0.51534994  -0.01317188  0.12870501  1
  In  In61  1  0.49971025  -0.00019887  0.62258118  1
  In  In62  1  0.50078328  0.32811795  0.13220583  1
  In  In63  1  0.51647275  0.33479428  0.62354392  1
  In  In64  1  0.50811395  0.68581586  0.12051269  1
  In  In65  1  0.50114450  0.67380603  0.62450752  1
  In  In66  1  0.82141193  0.01014206  0.12882134  1
  In  In67  1  0.83974970  -0.01079923  0.63158364  1
  In  In68  1  0.83962097  0.32987639  0.12834787  1
  In  In69  1  0.82108291  0.32347571  0.62341230  1
  In  In70  1  0.83285421  0.64124399  0.12869101  1
  In  In71  1  0.82223413  0.67157321  0.62740875  1
  In  In72  1  0.50377525  0.50580935  -0.00122923  1
  In  In73  1  0.82947767  0.16078955  0.49152173  1
  In  In74  1  0.34253586  0.67294459  0.73859925  1
  In  In75  1  0.83744374  0.50725672  0.49709754  1
  In  In76  1  -0.00349839  0.66670261  0.25202261  1
  In  In77  1  0.33874831  0.32606742  0.75991772  1
  In  In78  1  0.17192743  0.16019166  0.49843338  1
  In  In79  1  -0.00730810  0.67245413  0.75021630  1
  In  In80  1  0.49764445  0.50262322  0.49871085  1
  In  In81  1  0.17017215  0.83426931  0.00864510  1
  In  In82  1  0.50264233  0.16373619  -0.00207820  1
  In  In83  1  0.83472740  0.82912858  0.00029752  1
  In  In84  1  -0.00463945  0.33094749  0.74602217  1
  In  In85  1  0.33216732  0.66900287  0.24853548  1
  Cu  Cu86  1  0.16823898  0.17043507  0.25182049  1
  Cu  Cu87  1  0.67062784  0.67522064  0.49961307  1
  Cu  Cu88  1  0.16358936  0.84066506  0.74436869  1
  Cu  Cu89  1  0.49680157  0.50306769  0.25031951  1
  Cu  Cu90  1  0.16872525  0.49869752  0.75069432  1
  Cu  Cu91  1  0.33406176  0.33082864  0.49042782  1
  Cu  Cu92  1  0.50103754  0.16477741  0.24978201  1
  Cu  Cu93  1  0.00513578  0.33970681  0.49269470  1
  Cu  Cu94  1  0.00086833  0.00409633  0.00312475  1
  Cu  Cu95  1  0.83645776  0.16510170  0.24572949  1
  Cu  Cu96  1  0.00129966  0.32463940  0.00746978  1
  Cu  Cu97  1  0.50115271  0.15988882  0.75056489  1
  Cu  Cu98  1  0.16484073  0.15453906  0.75518310  1
  Cu  Cu99  1  0.82979575  0.83466114  0.25310783  1
  Cu  Cu100  1  0.82770508  0.16328362  0.74864513  1
  Cu  Cu101  1  0.67243706  0.66215099  0.00236853  1
  Cu  Cu102  1  0.50229037  0.83983329  0.25392890  1
  Cu  Cu103  1  0.33622333  0.00047837  0.49701591  1
  Cu  Cu104  1  0.82951377  0.83686642  0.74974392  1
  Cu  Cu105  1  0.33279569  0.00534955  0.00140361  1
  Cu  Cu106  1  0.67608964  0.33356600  0.00327185  1
  Cu  Cu107  1  0.16000500  0.49698755  0.24763768  1
  Cu  Cu108  1  0.33482365  0.67266390  0.00400783  1
  Cu  Cu109  1  0.66282326  0.33648267  0.49718588  1
  Cu  Cu110  1  0.32264838  0.33523309  0.00657692  1
  Cu  Cu111  1  0.50217385  0.83659834  0.74428909  1
  Cu  Cu112  1  0.66549250  0.00026776  0.50018166  1
  Cu  Cu113  1  0.33037001  0.66585564  0.49866756  1
  Cu  Cu114  1  0.82729542  0.49802238  0.75698558  1
  Se  Se115  1  0.08795819  0.08291037  0.05718147  1
  Se  Se116  1  0.07860925  0.07739917  0.56009333  1
  Se  Se117  1  0.08471471  0.41290980  0.05722325  1
  Se  Se118  1  0.08785478  0.42057988  0.54780643  1
  Se  Se119  1  0.07233450  0.74267854  0.05852505  1
  Se  Se120  1  0.08044690  0.75227884  0.54216766  1
  Se  Se121  1  0.41551935  0.08046637  0.06449362  1
  Se  Se122  1  0.41907702  0.08416719  0.55049016  1
  Se  Se123  1  0.41389250  0.41292418  0.05948759  1
  Se  Se124  1  0.40931357  0.40855828  0.55851169  1
  Se  Se125  1  0.41922052  0.75901158  0.05059708  1
  Se  Se126  1  0.42032092  0.74462256  0.54936379  1
  Se  Se127  1  0.74801334  0.07506512  0.04739610  1
  Se  Se128  1  0.74462019  0.08185146  0.56198122  1
  Se  Se129  1  0.75596812  0.41717833  0.05908586  1
  Se  Se130  1  0.74128424  0.41805926  0.55717969  1
  Se  Se131  1  0.74764305  0.74388471  0.06585430  1
  Se  Se132  1  0.75275341  0.75699220  0.55394398  1
  Se  Se133  1  0.24553866  0.24628110  0.05820501  1
  Se  Se134  1  0.25936797  0.25501161  0.55991604  1
  Se  Se135  1  0.25273796  0.58566417  0.05281983  1
  Se  Se136  1  0.24770233  0.58079163  0.55079673  1
  Se  Se137  1  0.25648320  0.92751824  0.06691311  1
  Se  Se138  1  0.25175242  0.91967365  0.55322799  1
  Se  Se139  1  0.59056134  0.25468570  0.05950440  1
  Se  Se140  1  0.58211829  0.24917278  0.54841734  1
  Se  Se141  1  0.59379354  0.58333234  0.06594165  1
  Se  Se142  1  0.59573604  0.58607898  0.55819787  1
  Se  Se143  1  0.58438266  0.91092968  0.05065333  1
  Se  Se144  1  0.58188301  0.91582487  0.55393966  1
  Se  Se145  1  0.91405768  0.24215780  0.05721771  1
  Se  Se146  1  0.92134942  0.26052510  0.55113128  1
  Se  Se147  1  0.91895571  0.58761838  0.05074396  1
  Se  Se148  1  0.92303939  0.59380885  0.56229405  1
  Se  Se149  1  0.92258729  0.92053592  0.06175519  1
  Se  Se150  1  0.90699853  0.92332546  0.54809103  1
  Se  Se151  1  0.08020797  0.25002705  0.43772118  1
  Se  Se152  1  0.08603950  0.24550223  0.95119803  1
  Se  Se153  1  0.07899908  0.57440644  0.45053954  1
  Se  Se154  1  0.09549409  0.57879267  0.95593643  1
  Se  Se155  1  0.09429105  0.91803619  0.44343969  1
  Se  Se156  1  0.07958741  0.92069689  0.94354007  1
  Se  Se157  1  0.42078445  0.24837343  0.44271852  1
  Se  Se158  1  0.40530408  0.25931493  0.94430273  1
  Se  Se159  1  0.40726050  0.58748635  0.43431203  1
  Se  Se160  1  0.41278185  0.59615734  0.93751471  1
  Se  Se161  1  0.42101288  0.91429516  0.44692986  1
  Se  Se162  1  0.41633733  0.92174629  0.94865252  1
  Se  Se163  1  0.74277891  0.25852256  0.43588458  1
  Se  Se164  1  0.75373419  0.24565592  0.94910809  1
  Se  Se165  1  0.74158275  0.59052555  0.43704521  1
  Se  Se166  1  0.75343819  0.57702037  0.94866659  1
  Se  Se167  1  0.75212630  0.91957958  0.44768948  1
  Se  Se168  1  0.74849916  0.91683569  0.93781543  1
  Se  Se169  1  0.25276244  0.07184150  0.43293180  1
  Se  Se170  1  0.24610407  0.08505100  0.94878824  1
  Se  Se171  1  0.24634701  0.41617989  0.44555751  1
  Se  Se172  1  0.24523380  0.42191936  0.95098656  1
  Se  Se173  1  0.24925347  0.75219644  0.44652349  1
  Se  Se174  1  0.25465741  0.74771188  0.93811132  1
  Se  Se175  1  0.58312280  0.08567663  0.44768393  1
  Se  Se176  1  0.59104070  0.07545998  0.93847080  1
  Se  Se177  1  0.58769527  0.41846090  0.43442897  1
  Se  Se178  1  0.59213035  0.40991257  0.94212036  1
  Se  Se179  1  0.58300482  0.75711972  0.44963806  1
  Se  Se180  1  0.59084804  0.74863169  0.94986380  1
  Se  Se181  1  0.93034784  0.07223089  0.44401278  1
  Se  Se182  1  0.91383231  0.08156101  0.94806571  1
  Se  Se183  1  0.91589398  0.41012372  0.43408683  1
  Se  Se184  1  0.91945051  0.41041827  0.95292012  1
  Se  Se185  1  0.92431391  0.74098692  0.45079052  1
  Se  Se186  1  0.92968075  0.73742904  0.94327609  1
  Se  Se187  1  0.25239034  0.25337187  0.30496903  1
  Se  Se188  1  0.23704576  0.24315012  0.81512930  1
  Se  Se189  1  0.23430224  0.58427485  0.30836855  1
  Se  Se190  1  0.25280578  0.58178378  0.80443834  1
  Se  Se191  1  0.26340829  0.92088498  0.29640999  1
  Se  Se192  1  0.24990757  0.91850929  0.79971969  1
  Se  Se193  1  0.58564377  0.24954798  0.30169016  1
  Se  Se194  1  0.58308165  0.24436503  0.80405139  1
  Se  Se195  1  0.57917486  0.58956007  0.30042729  1
  Se  Se196  1  0.58458345  0.58186225  0.80005969  1
  Se  Se197  1  0.58709827  0.92277340  0.30731650  1
  Se  Se198  1  0.58427559  0.91606646  0.80273984  1
  Se  Se199  1  0.92008726  0.24997893  0.29743031  1
  Se  Se200  1  0.91087983  0.24271679  0.80989742  1
  Se  Se201  1  0.90146271  0.57521654  0.30655189  1
  Se  Se202  1  0.91463285  0.57424755  0.81380864  1
  Se  Se203  1  0.91865877  0.91114098  0.30765127  1
  Se  Se204  1  0.91681251  0.91924462  0.80067047  1
  Se  Se205  1  0.08118783  0.08418228  0.29889905  1
  Se  Se206  1  0.07612859  0.07737070  0.80797499  1
  Se  Se207  1  0.07546409  0.41415302  0.30043197  1
  Se  Se208  1  0.08117032  0.42486716  0.80878538  1
  Se  Se209  1  0.08619270  0.75671477  0.31050760  1
  Se  Se210  1  0.09234877  0.75845633  0.80922945  1
  Se  Se211  1  0.41906491  0.08177705  0.30457326  1
  Se  Se212  1  0.41427427  0.07889165  0.80240523  1
  Se  Se213  1  0.41303687  0.41766088  0.30024567  1
  Se  Se214  1  0.42906329  0.42712343  0.80879000  1
  Se  Se215  1  0.41963749  0.75717679  0.31184424  1
  Se  Se216  1  0.42291734  0.75826687  0.80961686  1
  Se  Se217  1  0.75614925  0.08379752  0.30510015  1
  Se  Se218  1  0.74605669  0.07896079  0.80263327  1
  Se  Se219  1  0.74419006  0.41352951  0.29111761  1
  Se  Se220  1  0.74865521  0.40939741  0.80833569  1
  Se  Se221  1  0.74623864  0.75300646  0.30713564  1
  Se  Se222  1  0.75160034  0.74776344  0.80281027  1
  Se  Se223  1  0.25153191  0.08462072  0.20051704  1
  Se  Se224  1  0.25209221  0.07784360  0.70079135  1
  Se  Se225  1  0.24945363  0.41424315  0.19935569  1
  Se  Se226  1  0.24795687  0.41541038  0.69353166  1
  Se  Se227  1  0.23853680  0.76118489  0.19364651  1
  Se  Se228  1  0.24152562  0.75745514  0.68449489  1
  Se  Se229  1  0.58540653  0.08309377  0.19509043  1
  Se  Se230  1  0.58370123  0.07968985  0.69368965  1
  Se  Se231  1  0.57922314  0.41506875  0.19976955  1
  Se  Se232  1  0.58710193  0.40660145  0.70164840  1
  Se  Se233  1  0.58358593  0.75515573  0.19965715  1
  Se  Se234  1  0.58538686  0.74904519  0.69512069  1
  Se  Se235  1  0.91930759  0.07787319  0.19502073  1
  Se  Se236  1  0.91619634  0.08305742  0.69796060  1
  Se  Se237  1  0.91170248  0.42081042  0.19837716  1
  Se  Se238  1  0.90369424  0.42487994  0.68841306  1
  Se  Se239  1  0.90593301  0.75516433  0.18849827  1
  Se  Se240  1  0.91437446  0.76477582  0.68626318  1
  Se  Se241  1  0.08055783  0.24977913  0.19780566  1
  Se  Se242  1  0.09138852  0.23707167  0.69160429  1
  Se  Se243  1  0.08178942  0.57725902  0.18684721  1
  Se  Se244  1  0.08951602  0.58183332  0.69221680  1
  Se  Se245  1  0.08357376  0.91507620  0.20648054  1
  Se  Se246  1  0.07522505  0.91757565  0.69126335  1
  Se  Se247  1  0.41473909  0.25109344  0.20086696  1
  Se  Se248  1  0.42126268  0.24236618  0.68964394  1
  Se  Se249  1  0.42360336  0.58323925  0.18468406  1
  Se  Se250  1  0.43224555  0.56959360  0.69186214  1
  Se  Se251  1  0.41917668  0.92014751  0.19814737  1
  Se  Se252  1  0.41458784  0.91697772  0.69245080  1
  Se  Se253  1  0.74963587  0.24599592  0.19317662  1
  Se  Se254  1  0.74462101  0.25064680  0.69877614  1
  Se  Se255  1  0.73430380  0.59792796  0.20196629  1
  Se  Se256  1  0.75240964  0.58706407  0.70163444  1
  Se  Se257  1  0.74870912  0.92103270  0.19986809  1
  Se  Se258  1  0.74367728  0.91945046  0.69740123  1
