# generated using pymatgen
data_In86Cu29Se144
_symmetry_space_group_name_H-M   'P 1'
_cell_length_a   17.58640677
_cell_length_b   17.58644864
_cell_length_c   23.45010205
_cell_angle_alpha   90.02244772
_cell_angle_beta   89.98027061
_cell_angle_gamma   90.03594216
_symmetry_Int_Tables_number   1
_chemical_formula_structural   In86Cu29Se144
_chemical_formula_sum   'In86 Cu29 Se144'
_cell_volume   7252.70235363
_cell_formula_units_Z   1
loop_
 _symmetry_equiv_pos_site_id
 _symmetry_equiv_pos_as_xyz
  1  'x, y, z'
loop_
 _atom_site_type_symbol
 _atom_site_label
 _atom_site_symmetry_multiplicity
 _atom_site_fract_x
 _atom_site_fract_y
 _atom_site_fract_z
 _atom_site_occupancy
  In  In0  1  0.00668567  0.17597564  0.11795088  1
  In  In1  1  0.01201118  0.16080444  0.63324170  1
  In  In2  1  -0.01288744  0.49089699  0.11024151  1
  In  In3  1  0.00868529  0.50287701  0.63190071  1
  In  In4  1  -0.00263348  0.84223636  0.11805759  1
  In  In5  1  -0.00390985  0.83282443  0.62911318  1
  In  In6  1  0.33163545  0.16995733  0.11286416  1
  In  In7  1  0.32452242  0.18650200  0.63593665  1
  In  In8  1  0.33575418  0.50498489  0.12079043  1
  In  In9  1  0.29981158  0.52177962  0.65248293  1
  In  In10  1  0.33156038  0.81478316  0.12345684  1
  In  In11  1  0.32185277  0.83227047  0.62584380  1
  In  In12  1  0.67199566  0.16884545  0.12335698  1
  In  In13  1  0.66816106  0.16259986  0.62522962  1
  In  In14  1  0.67290671  0.48632319  0.12639491  1
  In  In15  1  0.68346604  0.50340964  0.62496740  1
  In  In16  1  0.66845042  0.83828211  0.12148041  1
  In  In17  1  0.66252471  0.82597543  0.62121472  1
  In  In18  1  0.16047211  0.00718675  0.38607671  1
  In  In19  1  0.16095809  0.01279540  0.87482028  1
  In  In20  1  0.14919670  0.34957995  0.39437711  1
  In  In21  1  0.15923895  0.34437718  0.86905968  1
  In  In22  1  0.16864897  0.65829426  0.38298207  1
  In  In23  1  0.14091851  0.63604730  0.84915778  1
  In  In24  1  0.52047540  -0.00531058  0.36697739  1
  In  In25  1  0.49557558  0.00037199  0.88430633  1
  In  In26  1  0.50242513  0.32091290  0.36888143  1
  In  In27  1  0.48563292  0.33206722  0.88328411  1
  In  In28  1  0.49264787  0.68388965  0.36772721  1
  In  In29  1  0.50260830  0.66621091  0.87160975  1
  In  In30  1  0.82135678  -0.00064846  0.37632252  1
  In  In31  1  0.83748332  -0.00403805  0.87786111  1
  In  In32  1  0.84982932  0.34176615  0.35553224  1
  In  In33  1  0.84394836  0.32419327  0.88179276  1
  In  In34  1  0.84387603  0.66075362  0.38606704  1
  In  In35  1  0.83917808  0.66831281  0.87956936  1
  In  In36  1  -0.00398452  0.19406313  0.37638592  1
  In  In37  1  -0.00031352  0.17118253  0.87069578  1
  In  In38  1  0.00170053  0.49073869  0.38599177  1
  In  In39  1  0.00505189  0.49707097  0.87337120  1
  In  In40  1  0.00045807  0.83083221  0.38870009  1
  In  In41  1  -0.01494823  0.82299034  0.86926370  1
  In  In42  1  0.32684924  0.16630577  0.37521980  1
  In  In43  1  0.29667668  0.20554824  0.91206306  1
  In  In44  1  0.31445064  0.49952983  0.37781347  1
  In  In45  1  0.30709298  0.48108297  0.85465594  1
  In  In46  1  0.33602727  0.82104373  0.37595048  1
  In  In47  1  0.34195200  0.82626376  0.87713540  1
  In  In48  1  0.68059333  0.16422520  0.35999478  1
  In  In49  1  0.66926381  0.16410951  0.88639562  1
  In  In50  1  0.68621368  0.50083772  0.37561572  1
  In  In51  1  0.66982125  0.51664294  0.87474187  1
  In  In52  1  0.67383092  0.84942557  0.37177871  1
  In  In53  1  0.67643515  0.82159929  0.88303877  1
  In  In54  1  0.15770628  0.01055505  0.12175000  1
  In  In55  1  0.16183365  -0.01384753  0.61858771  1
  In  In56  1  0.15863403  0.32416966  0.11676595  1
  In  In57  1  0.16252821  0.33935463  0.62917448  1
  In  In58  1  0.17644863  0.66399927  0.12224005  1
  In  In59  1  0.15845585  0.66726548  0.63280414  1
  In  In60  1  0.50812862  0.00691802  0.11975147  1
  In  In61  1  0.50351335  -0.00884193  0.62219871  1
  In  In62  1  0.51559248  0.33782869  0.12282403  1
  In  In63  1  0.48825553  0.32632497  0.62866930  1
  In  In64  1  0.48459283  0.66167824  0.12030828  1
  In  In65  1  0.50281080  0.66915585  0.63449312  1
  In  In66  1  0.82253419  -0.00696083  0.12051949  1
  In  In67  1  0.84751378  0.00799346  0.62312948  1
  In  In68  1  0.83573835  0.33205706  0.12118830  1
  In  In69  1  0.84961593  0.35345851  0.61647775  1
  In  In70  1  0.83414326  0.66444055  0.10719813  1
  In  In71  1  0.83746258  0.66575371  0.63175029  1
  In  In72  1  0.67008878  0.33609525  0.74686323  1
  In  In73  1  0.83910759  0.16755592  0.49886407  1
  In  In74  1  0.16361481  0.82601924  -0.00636451  1
  In  In75  1  0.33663437  -0.00318777  0.24595222  1
  In  In76  1  0.00264503  0.66413761  0.24547728  1
  In  In77  1  0.49208282  0.49833973  0.50007351  1
  In  In78  1  0.33477112  0.33485887  0.24527587  1
  In  In79  1  0.49327986  0.16445516  0.49116007  1
  In  In80  1  0.67145782  -0.00191097  0.74689019  1
  In  In81  1  0.49672648  0.49805191  -0.00154163  1
  In  In82  1  0.66243947  0.66552092  0.24893696  1
  In  In83  1  -0.00712798  0.00618765  0.24741289  1
  In  In84  1  0.50459345  0.83456769  0.49300127  1
  In  In85  1  0.33174698  0.00407553  0.75911842  1
  Cu  Cu86  1  0.16105718  0.17799028  0.24976021  1
  Cu  Cu87  1  0.83642247  0.50397485  0.75182774  1
  Cu  Cu88  1  0.32874699  0.65860929  -0.00761501  1
  Cu  Cu89  1  0.84073294  0.17547986  0.74929958  1
  Cu  Cu90  1  0.49658417  0.50522599  0.24528154  1
  Cu  Cu91  1  0.67828199  0.66279494  0.50204918  1
  Cu  Cu92  1  0.17081409  0.83168699  0.25326783  1
  Cu  Cu93  1  0.33533327  0.00614599  0.50159421  1
  Cu  Cu94  1  0.66877963  0.32970148  0.49670649  1
  Cu  Cu95  1  0.66433445  -0.00025518  0.00275283  1
  Cu  Cu96  1  0.50643697  0.83218836  0.75460751  1
  Cu  Cu97  1  0.83104883  0.83234429  0.24839371  1
  Cu  Cu98  1  0.67351370  0.33255925  0.00362860  1
  Cu  Cu99  1  -0.00009057  0.66669788  0.51178602  1
  Cu  Cu100  1  -0.00020348  -0.00360040  0.50320903  1
  Cu  Cu101  1  0.16137688  0.49757687  0.25615038  1
  Cu  Cu102  1  0.33386037  -0.00785649  0.00065176  1
  Cu  Cu103  1  0.31949165  0.34189236  0.51072831  1
  Cu  Cu104  1  0.32422481  0.66737153  0.50465247  1
  Cu  Cu105  1  0.51209338  0.16231562  0.24505009  1
  Cu  Cu106  1  0.83653230  0.82943468  0.75484304  1
  Cu  Cu107  1  0.50161323  0.50098248  0.75559682  1
  Cu  Cu108  1  0.83751124  0.49270306  0.24550957  1
  Cu  Cu109  1  -0.00535168  0.00802000  -0.00169208  1
  Cu  Cu110  1  0.16203053  0.83405308  0.74638443  1
  Cu  Cu111  1  0.49453275  0.16722385  0.76208491  1
  Cu  Cu112  1  0.16513222  0.17166101  0.75551453  1
  Cu  Cu113  1  0.00364812  0.33656695  -0.00509709  1
  Cu  Cu114  1  0.66581281  0.67112905  -0.00227856  1
  Se  Se115  1  0.08454192  0.08905766  0.04746529  1
  Se  Se116  1  0.08298524  0.08017241  0.55638370  1
  Se  Se117  1  0.08780230  0.41831055  0.04945869  1
  Se  Se118  1  0.08339848  0.42023217  0.55843397  1
  Se  Se119  1  0.07541976  0.74087630  0.05881124  1
  Se  Se120  1  0.08433187  0.75336905  0.56086908  1
  Se  Se121  1  0.41493712  0.07915220  0.05246643  1
  Se  Se122  1  0.41074516  0.08388851  0.56605473  1
  Se  Se123  1  0.40989818  0.40360669  0.05782454  1
  Se  Se124  1  0.40448533  0.41985817  0.56781426  1
  Se  Se125  1  0.41075337  0.74338572  0.04591671  1
  Se  Se126  1  0.41536373  0.74591549  0.55805393  1
  Se  Se127  1  0.75062795  0.08459070  0.05174612  1
  Se  Se128  1  0.74376490  0.07534364  0.55498257  1
  Se  Se129  1  0.75709998  0.42154109  0.05076431  1
  Se  Se130  1  0.74807142  0.41536927  0.55054161  1
  Se  Se131  1  0.74851322  0.75652418  0.05017711  1
  Se  Se132  1  0.75466563  0.74689995  0.55911134  1
  Se  Se133  1  0.24651313  0.24941470  0.04748009  1
  Se  Se134  1  0.24231133  0.24870552  0.55856238  1
  Se  Se135  1  0.24828350  0.57779084  0.04963259  1
  Se  Se136  1  0.24496581  0.58593132  0.56204015  1
  Se  Se137  1  0.24880208  0.91687880  0.06187775  1
  Se  Se138  1  0.25535488  0.91511150  0.55017465  1
  Se  Se139  1  0.58562242  0.24955346  0.05241132  1
  Se  Se140  1  0.58562381  0.25386704  0.55632650  1
  Se  Se141  1  0.59092531  0.58543917  0.06034410  1
  Se  Se142  1  0.58704897  0.58875148  0.55816265  1
  Se  Se143  1  0.57997653  0.91328002  0.05176336  1
  Se  Se144  1  0.59723663  0.92736032  0.54987555  1
  Se  Se145  1  0.91970718  0.25386037  0.04947522  1
  Se  Se146  1  0.93077863  0.25128802  0.56032366  1
  Se  Se147  1  0.92438509  0.58925150  0.04387250  1
  Se  Se148  1  0.91754096  0.58047152  0.56317797  1
  Se  Se149  1  0.91401601  0.92065340  0.05010609  1
  Se  Se150  1  0.91553006  0.91410422  0.55540562  1
  Se  Se151  1  0.09839194  0.23231166  0.44736561  1
  Se  Se152  1  0.08430432  0.25307102  0.93893775  1
  Se  Se153  1  0.07724848  0.58531464  0.44996988  1
  Se  Se154  1  0.09165836  0.57820119  0.94149866  1
  Se  Se155  1  0.08815260  0.91381890  0.45259674  1
  Se  Se156  1  0.07302314  0.92222130  0.93901719  1
  Se  Se157  1  0.40030049  0.26810470  0.44473103  1
  Se  Se158  1  0.42979134  0.23447032  0.95210648  1
  Se  Se159  1  0.40804798  0.59573640  0.43980853  1
  Se  Se160  1  0.40794202  0.57699447  0.93152099  1
  Se  Se161  1  0.41372750  0.93056493  0.43633650  1
  Se  Se162  1  0.41733586  0.90861409  0.94948887  1
  Se  Se163  1  0.74884248  0.25310411  0.43599144  1
  Se  Se164  1  0.75574593  0.24785171  0.95025030  1
  Se  Se165  1  0.76039110  0.57472064  0.45234379  1
  Se  Se166  1  0.75193711  0.58584566  0.94945281  1
  Se  Se167  1  0.76291828  0.90417334  0.44717312  1
  Se  Se168  1  0.74797738  0.92035553  0.94542693  1
  Se  Se169  1  0.25092835  0.08952637  0.44961119  1
  Se  Se170  1  0.24730016  0.07512660  0.95073917  1
  Se  Se171  1  0.24162657  0.42992568  0.45743676  1
  Se  Se172  1  0.26031330  0.40333074  0.93980884  1
  Se  Se173  1  0.24723447  0.75234461  0.44724572  1
  Se  Se174  1  0.24649286  0.73531189  0.93117130  1
  Se  Se175  1  0.59577854  0.08249729  0.43873235  1
  Se  Se176  1  0.58055227  0.08357871  0.95050458  1
  Se  Se177  1  0.58530496  0.41003842  0.43862288  1
  Se  Se178  1  0.59481651  0.41168639  0.93934467  1
  Se  Se179  1  0.59710418  0.73881318  0.43846104  1
  Se  Se180  1  0.57682095  0.74903527  0.94576934  1
  Se  Se181  1  0.92751832  0.07644316  0.43609645  1
  Se  Se182  1  0.91446729  0.09063826  0.94112713  1
  Se  Se183  1  0.91283942  0.40114989  0.44298959  1
  Se  Se184  1  0.91770106  0.42048863  0.94474819  1
  Se  Se185  1  0.91687135  0.74870023  0.45567381  1
  Se  Se186  1  0.90947489  0.76015053  0.94940030  1
  Se  Se187  1  0.24243275  0.25574447  0.31099974  1
  Se  Se188  1  0.24987287  0.24837210  0.81239512  1
  Se  Se189  1  0.24540400  0.58521836  0.30428512  1
  Se  Se190  1  0.26525279  0.59857873  0.79768525  1
  Se  Se191  1  0.24290464  0.91861386  0.31265609  1
  Se  Se192  1  0.24013050  0.90832108  0.81325470  1
  Se  Se193  1  0.58974085  0.25012087  0.29910213  1
  Se  Se194  1  0.58501678  0.24766192  0.81280368  1
  Se  Se195  1  0.57600754  0.57541109  0.31439573  1
  Se  Se196  1  0.58781445  0.58758957  0.80059188  1
  Se  Se197  1  0.57164234  0.89184843  0.30058783  1
  Se  Se198  1  0.58334477  0.91525419  0.81323880  1
  Se  Se199  1  0.90036980  0.22745106  0.29891043  1
  Se  Se200  1  0.92230780  0.26085259  0.80100881  1
  Se  Se201  1  0.91486014  0.57439346  0.30779374  1
  Se  Se202  1  0.91780805  0.58494763  0.80878500  1
  Se  Se203  1  0.91723984  0.90526282  0.30937686  1
  Se  Se204  1  0.91663896  0.92171007  0.80245332  1
  Se  Se205  1  0.08676078  0.09116901  0.30872900  1
  Se  Se206  1  0.07875935  0.08373706  0.80069078  1
  Se  Se207  1  0.08007177  0.41409308  0.30969327  1
  Se  Se208  1  0.09370197  0.43446532  0.79634781  1
  Se  Se209  1  0.08587229  0.75439266  0.31125782  1
  Se  Se210  1  0.07736173  0.75243957  0.80014195  1
  Se  Se211  1  0.42574724  0.09134986  0.30777399  1
  Se  Se212  1  0.41217328  0.09422641  0.82277506  1
  Se  Se213  1  0.41992327  0.42587053  0.31160021  1
  Se  Se214  1  0.42163749  0.41267932  0.80472200  1
  Se  Se215  1  0.41083256  0.75613620  0.29603321  1
  Se  Se216  1  0.41853295  0.74880343  0.80222489  1
  Se  Se217  1  0.74845369  0.06586201  0.29645700  1
  Se  Se218  1  0.75529747  0.09504085  0.80597036  1
  Se  Se219  1  0.74635263  0.41635031  0.29790323  1
  Se  Se220  1  0.75662301  0.42131317  0.81210331  1
  Se  Se221  1  0.76143845  0.74489687  0.31082177  1
  Se  Se222  1  0.75216819  0.74648087  0.80715185  1
  Se  Se223  1  0.24360312  0.09567829  0.19278510  1
  Se  Se224  1  0.24116060  0.08568379  0.69358339  1
  Se  Se225  1  0.24051430  0.42268039  0.18889482  1
  Se  Se226  1  0.26914417  0.39253142  0.69587576  1
  Se  Se227  1  0.24752851  0.74554785  0.19842805  1
  Se  Se228  1  0.25001931  0.75090479  0.69855791  1
  Se  Se229  1  0.59322387  0.07832662  0.19258961  1
  Se  Se230  1  0.56963302  0.09095468  0.69564110  1
  Se  Se231  1  0.58323268  0.41959693  0.19942711  1
  Se  Se232  1  0.57720761  0.42498167  0.68712750  1
  Se  Se233  1  0.57519125  0.74917769  0.18469206  1
  Se  Se234  1  0.59036858  0.75162475  0.69948056  1
  Se  Se235  1  0.91020226  0.09022956  0.18116185  1
  Se  Se236  1  0.91922817  0.08375387  0.69982564  1
  Se  Se237  1  0.92277036  0.41375842  0.19119408  1
  Se  Se238  1  0.91888078  0.41918072  0.69925648  1
  Se  Se239  1  0.91001923  0.75447862  0.18685154  1
  Se  Se240  1  0.92162524  0.74654366  0.70125966  1
  Se  Se241  1  0.07757383  0.25735529  0.19511296  1
  Se  Se242  1  0.08252619  0.25433585  0.70074041  1
  Se  Se243  1  0.08794035  0.57152961  0.18644363  1
  Se  Se244  1  0.09735566  0.57172850  0.70491222  1
  Se  Se245  1  0.09126353  0.91128730  0.19353944  1
  Se  Se246  1  0.08009647  0.92072962  0.69618235  1
  Se  Se247  1  0.42538004  0.24110261  0.18847232  1
  Se  Se248  1  0.41573973  0.25283132  0.70743547  1
  Se  Se249  1  0.40869524  0.58512872  0.19659477  1
  Se  Se250  1  0.42022250  0.58334609  0.69887495  1
  Se  Se251  1  0.42071717  0.90962264  0.18302711  1
  Se  Se252  1  0.42235314  0.91165350  0.69581858  1
  Se  Se253  1  0.73806945  0.26768493  0.18858075  1
  Se  Se254  1  0.76199004  0.24947575  0.68420996  1
  Se  Se255  1  0.76146324  0.58176733  0.18960525  1
  Se  Se256  1  0.74900840  0.58574182  0.70114961  1
  Se  Se257  1  0.74736805  0.91470912  0.19678403  1
  Se  Se258  1  0.76117271  0.90800649  0.68843456  1
