# generated using pymatgen
data_In86Cu29Se144
_symmetry_space_group_name_H-M   'P 1'
_cell_length_a   17.58952858
_cell_length_b   17.59069038
_cell_length_c   23.45503811
_cell_angle_alpha   90.00228066
_cell_angle_beta   89.98033807
_cell_angle_gamma   89.99527374
_symmetry_Int_Tables_number   1
_chemical_formula_structural   In86Cu29Se144
_chemical_formula_sum   'In86 Cu29 Se144'
_cell_volume   7257.26864924
_cell_formula_units_Z   1
loop_
 _symmetry_equiv_pos_site_id
 _symmetry_equiv_pos_as_xyz
  1  'x, y, z'
loop_
 _atom_site_type_symbol
 _atom_site_label
 _atom_site_symmetry_multiplicity
 _atom_site_fract_x
 _atom_site_fract_y
 _atom_site_fract_z
 _atom_site_occupancy
  In  In0  1  0.01158867  0.16286383  0.12620145  1
  In  In1  1  0.00196227  0.18587477  0.62859532  1
  In  In2  1  -0.00077924  0.48736229  0.12442998  1
  In  In3  1  0.00403696  0.48642570  0.62834779  1
  In  In4  1  0.00366424  0.82805385  0.12443753  1
  In  In5  1  -0.00918164  0.83013945  0.62859148  1
  In  In6  1  0.33834189  0.17206425  0.12920522  1
  In  In7  1  0.33775718  0.15661213  0.63004321  1
  In  In8  1  0.33479827  0.49891363  0.12048343  1
  In  In9  1  0.34410272  0.50542669  0.62108431  1
  In  In10  1  0.34933077  0.81581287  0.13018591  1
  In  In11  1  0.32857012  0.83473709  0.63655828  1
  In  In12  1  0.63871025  0.17309263  0.13539117  1
  In  In13  1  0.66037218  0.16968889  0.62487760  1
  In  In14  1  0.66023457  0.50291533  0.12344324  1
  In  In15  1  0.65731551  0.50291477  0.63179041  1
  In  In16  1  0.65481424  0.83636970  0.12456818  1
  In  In17  1  0.66310959  0.83674666  0.63523860  1
  In  In18  1  0.17880296  -0.00104793  0.37436673  1
  In  In19  1  0.19221116  0.00172664  0.87165018  1
  In  In20  1  0.17723004  0.34158936  0.36644944  1
  In  In21  1  0.16464880  0.34091449  0.87901756  1
  In  In22  1  0.17302122  0.65138037  0.37843788  1
  In  In23  1  0.16127158  0.65944281  0.86279234  1
  In  In24  1  0.51987874  0.02178599  0.35244580  1
  In  In25  1  0.50058610  -0.00062302  0.87554792  1
  In  In26  1  0.49847800  0.34534596  0.38364429  1
  In  In27  1  0.51528676  0.33296949  0.89193012  1
  In  In28  1  0.49066482  0.65648028  0.36563179  1
  In  In29  1  0.50404929  0.66821897  0.87910751  1
  In  In30  1  0.82842328  0.02548131  0.37404664  1
  In  In31  1  0.82293507  0.01085881  0.87465865  1
  In  In32  1  0.82544059  0.29487344  0.36627184  1
  In  In33  1  0.83133532  0.33346817  0.86518213  1
  In  In34  1  0.82630389  0.67771262  0.37653631  1
  In  In35  1  0.83119219  0.65991375  0.86679274  1
  In  In36  1  -0.01358432  0.17433755  0.37338197  1
  In  In37  1  0.00162875  0.18318096  0.87184005  1
  In  In38  1  0.01679543  0.49601647  0.38001714  1
  In  In39  1  0.00442934  0.50087360  0.86637378  1
  In  In40  1  -0.00410269  0.83752738  0.37472870  1
  In  In41  1  0.01659521  0.82161375  0.86945815  1
  In  In42  1  0.35294052  0.18585316  0.35654435  1
  In  In43  1  0.34688035  0.16242546  0.88123858  1
  In  In44  1  0.33448652  0.50043081  0.37415276  1
  In  In45  1  0.32859632  0.50369419  0.88085095  1
  In  In46  1  0.34779690  0.84222603  0.36425489  1
  In  In47  1  0.34266471  0.84286983  0.86745660  1
  In  In48  1  0.67142678  0.17079724  0.38175759  1
  In  In49  1  0.66112146  0.16449251  0.87047370  1
  In  In50  1  0.64667276  0.49025748  0.37473097  1
  In  In51  1  0.66052338  0.49837944  0.87433458  1
  In  In52  1  0.65895584  0.82823065  0.36875854  1
  In  In53  1  0.64695124  0.81677100  0.86800268  1
  In  In54  1  0.17458888  0.01876555  0.11864110  1
  In  In55  1  0.17965629  0.01233737  0.63351164  1
  In  In56  1  0.17036102  0.33597218  0.12224397  1
  In  In57  1  0.15194016  0.33215149  0.62749606  1
  In  In58  1  0.18322393  0.66748335  0.12056236  1
  In  In59  1  0.18653842  0.65237177  0.64091912  1
  In  In60  1  0.49956180  0.00308048  0.12749365  1
  In  In61  1  0.49371647  0.00954563  0.62967718  1
  In  In62  1  0.48548316  0.31165089  0.11019579  1
  In  In63  1  0.50849091  0.34262256  0.61353745  1
  In  In64  1  0.50514434  0.65636786  0.11360401  1
  In  In65  1  0.50258195  0.66236286  0.63423522  1
  In  In66  1  0.82680423  -0.00122107  0.12926079  1
  In  In67  1  0.81618066  0.00511544  0.62623181  1
  In  In68  1  0.83384493  0.34257996  0.13385219  1
  In  In69  1  0.83294635  0.32649752  0.62741346  1
  In  In70  1  0.82244312  0.65273717  0.12487554  1
  In  In71  1  0.82710330  0.66752259  0.63447873  1
  In  In72  1  0.82985855  0.83603718  0.50129323  1
  In  In73  1  0.82958193  0.49049508  0.49890349  1
  In  In74  1  0.82427175  0.49603174  -0.00283868  1
  In  In75  1  0.17218106  0.17166210  0.50409035  1
  In  In76  1  0.17818128  0.83335201  -0.00614093  1
  In  In77  1  0.66281304  0.33350995  0.25063786  1
  In  In78  1  0.33647813  0.33112399  0.75729721  1
  In  In79  1  0.17070953  0.82951789  0.50657628  1
  In  In80  1  0.00205944  0.66749879  0.25425388  1
  In  In81  1  0.82864267  0.83531765  0.00509859  1
  In  In82  1  0.00217270  0.00325962  0.25557255  1
  In  In83  1  0.82714091  0.17212494  -0.00013696  1
  In  In84  1  0.00364078  -0.00357711  0.75299194  1
  In  In85  1  0.49649985  0.83449219  0.50736087  1
  Cu  Cu86  1  0.83161060  0.83296256  0.75246072  1
  Cu  Cu87  1  0.00887068  0.00643571  -0.00119087  1
  Cu  Cu88  1  0.17066620  0.17468906  0.24454223  1
  Cu  Cu89  1  0.49758045  0.50130587  0.75191427  1
  Cu  Cu90  1  0.65629880  0.00158287  -0.00043306  1
  Cu  Cu91  1  0.83193698  0.50089600  0.25233153  1
  Cu  Cu92  1  0.49346410  0.49909030  0.24617789  1
  Cu  Cu93  1  0.17241085  0.83524157  0.24532936  1
  Cu  Cu94  1  0.34145847  0.00180681  0.00221568  1
  Cu  Cu95  1  0.33162651  0.33779633  0.49431791  1
  Cu  Cu96  1  0.50201640  0.83353549  0.75273247  1
  Cu  Cu97  1  -0.00023674  0.33540253  0.50019212  1
  Cu  Cu98  1  -0.00186432  0.01132892  0.49666664  1
  Cu  Cu99  1  0.81830954  0.83100601  0.24832908  1
  Cu  Cu100  1  0.49893760  0.82612296  0.24196608  1
  Cu  Cu101  1  0.00566555  0.65715136  0.50847048  1
  Cu  Cu102  1  0.33090792  0.66052781  0.49785028  1
  Cu  Cu103  1  0.00298208  0.65909081  -0.01118529  1
  Cu  Cu104  1  0.33045360  0.33118194  -0.00024012  1
  Cu  Cu105  1  0.50427122  0.16603809  0.75427832  1
  Cu  Cu106  1  0.34441991  0.00907861  0.49802619  1
  Cu  Cu107  1  0.65556887  0.65890454  0.50397600  1
  Cu  Cu108  1  0.33736626  0.66228484  -0.00203904  1
  Cu  Cu109  1  0.66790446  0.01095551  0.49708885  1
  Cu  Cu110  1  0.16473325  0.49182198  0.75042396  1
  Cu  Cu111  1  0.17285944  0.50072318  0.24800850  1
  Cu  Cu112  1  0.83050505  0.49931015  0.74733215  1
  Cu  Cu113  1  0.82763170  0.16786678  0.74877791  1
  Cu  Cu114  1  0.00567763  0.33363642  0.00061323  1
  Se  Se115  1  0.09000266  0.09361004  0.04780699  1
  Se  Se116  1  0.08015722  0.07980554  0.56226365  1
  Se  Se117  1  0.08694663  0.42057464  0.05211177  1
  Se  Se118  1  0.08551186  0.41710158  0.55118811  1
  Se  Se119  1  0.07964945  0.74178932  0.05142137  1
  Se  Se120  1  0.08209024  0.74063637  0.56719894  1
  Se  Se121  1  0.41880179  0.08754078  0.05808175  1
  Se  Se122  1  0.42342753  0.09188114  0.55347856  1
  Se  Se123  1  0.41601365  0.41525844  0.05085357  1
  Se  Se124  1  0.41616828  0.42014460  0.54890323  1
  Se  Se125  1  0.42045462  0.74707174  0.04946112  1
  Se  Se126  1  0.40392393  0.74247581  0.56275750  1
  Se  Se127  1  0.74111326  0.07829562  0.05897955  1
  Se  Se128  1  0.74989380  0.09158678  0.55315545  1
  Se  Se129  1  0.74159763  0.40290175  0.05912724  1
  Se  Se130  1  0.73914331  0.41085435  0.56342341  1
  Se  Se131  1  0.73967579  0.73937732  0.05798171  1
  Se  Se132  1  0.73735536  0.74377623  0.55894412  1
  Se  Se133  1  0.25128855  0.24687242  0.05675652  1
  Se  Se134  1  0.26149190  0.26141973  0.56469226  1
  Se  Se135  1  0.25018959  0.58016580  0.04863909  1
  Se  Se136  1  0.24841903  0.58166606  0.55569124  1
  Se  Se137  1  0.26127497  0.91796332  0.06203074  1
  Se  Se138  1  0.26202340  0.92922444  0.55728427  1
  Se  Se139  1  0.59039898  0.24714291  0.04936921  1
  Se  Se140  1  0.56435643  0.23252883  0.55503181  1
  Se  Se141  1  0.57856586  0.56381957  0.04405607  1
  Se  Se142  1  0.57352498  0.57945729  0.55888968  1
  Se  Se143  1  0.57571392  0.91756736  0.05399030  1
  Se  Se144  1  0.59373406  0.92683365  0.55917192  1
  Se  Se145  1  0.92194214  0.25819485  0.06157934  1
  Se  Se146  1  0.91738998  0.25210256  0.55328971  1
  Se  Se147  1  0.92284864  0.58699371  0.05492216  1
  Se  Se148  1  0.91399760  0.58455717  0.56267066  1
  Se  Se149  1  0.92908496  0.92804704  0.05890939  1
  Se  Se150  1  0.92162907  0.92935459  0.55841033  1
  Se  Se151  1  0.08290336  0.25632264  0.43902597  1
  Se  Se152  1  0.08646709  0.24968400  0.94689458  1
  Se  Se153  1  0.09008300  0.58008717  0.45275867  1
  Se  Se154  1  0.08793128  0.57753444  0.93846083  1
  Se  Se155  1  0.07884602  0.92467079  0.44452803  1
  Se  Se156  1  0.08206958  0.92321371  0.93800914  1
  Se  Se157  1  0.41381527  0.25047592  0.44422642  1
  Se  Se158  1  0.42085871  0.25016868  0.95090007  1
  Se  Se159  1  0.41863081  0.58223705  0.44460161  1
  Se  Se160  1  0.42140247  0.57973527  0.94551469  1
  Se  Se161  1  0.42166190  0.92592586  0.43921561  1
  Se  Se162  1  0.41769942  0.91596655  0.94527460  1
  Se  Se163  1  0.74375741  0.26067374  0.45136600  1
  Se  Se164  1  0.74160978  0.26165415  0.93850327  1
  Se  Se165  1  0.74145774  0.58830778  0.44164404  1
  Se  Se166  1  0.74218774  0.59595900  0.94269533  1
  Se  Se167  1  0.74188410  0.92254843  0.43768609  1
  Se  Se168  1  0.74073658  0.92228297  0.94146879  1
  Se  Se169  1  0.26144056  0.08830166  0.43941988  1
  Se  Se170  1  0.25611723  0.08358689  0.94966339  1
  Se  Se171  1  0.24661775  0.42102180  0.44383154  1
  Se  Se172  1  0.24835116  0.41823475  0.94935694  1
  Se  Se173  1  0.26104838  0.75052997  0.43822492  1
  Se  Se174  1  0.25842588  0.73869423  0.93287977  1
  Se  Se175  1  0.57836981  0.08454760  0.44202920  1
  Se  Se176  1  0.57993843  0.08807381  0.94376965  1
  Se  Se177  1  0.58544647  0.41617745  0.45553031  1
  Se  Se178  1  0.57878914  0.43788343  0.95540870  1
  Se  Se179  1  0.58087534  0.74259490  0.44270082  1
  Se  Se180  1  0.57699179  0.75609863  0.95109278  1
  Se  Se181  1  0.91209793  0.09443552  0.44862452  1
  Se  Se182  1  0.92347228  0.08266003  0.94106025  1
  Se  Se183  1  0.91845849  0.40644477  0.43418474  1
  Se  Se184  1  0.92168297  0.41004775  0.93994418  1
  Se  Se185  1  0.92902049  0.74076955  0.44837435  1
  Se  Se186  1  0.91979232  0.74732839  0.93979840  1
  Se  Se187  1  0.25508232  0.25968082  0.29541331  1
  Se  Se188  1  0.24797473  0.24273750  0.81699800  1
  Se  Se189  1  0.25414721  0.58493514  0.30209161  1
  Se  Se190  1  0.25177250  0.57378079  0.80162859  1
  Se  Se191  1  0.25211789  0.91864679  0.30101250  1
  Se  Se192  1  0.23639928  0.89832317  0.80298715  1
  Se  Se193  1  0.57446880  0.24935884  0.31440783  1
  Se  Se194  1  0.57933158  0.25693611  0.80842214  1
  Se  Se195  1  0.58229141  0.57816001  0.30021595  1
  Se  Se196  1  0.58203562  0.58483359  0.80559255  1
  Se  Se197  1  0.58095199  0.90872817  0.29781992  1
  Se  Se198  1  0.58532489  0.92025552  0.80411278  1
  Se  Se199  1  0.92764561  0.25606446  0.29446289  1
  Se  Se200  1  0.91539255  0.25082283  0.79806127  1
  Se  Se201  1  0.91143563  0.57904466  0.31571425  1
  Se  Se202  1  0.91750006  0.58135493  0.79972007  1
  Se  Se203  1  0.90054090  0.91131602  0.30830338  1
  Se  Se204  1  0.91014421  0.91045170  0.81589590  1
  Se  Se205  1  0.09530427  0.09677601  0.31191916  1
  Se  Se206  1  0.08965723  0.08647288  0.81364627  1
  Se  Se207  1  0.08531667  0.42047994  0.30053145  1
  Se  Se208  1  0.08103604  0.40720334  0.80142977  1
  Se  Se209  1  0.09509623  0.75981728  0.31185936  1
  Se  Se210  1  0.08013286  0.74128243  0.79332556  1
  Se  Se211  1  0.39428636  0.06288817  0.30633942  1
  Se  Se212  1  0.41785708  0.08203026  0.80463149  1
  Se  Se213  1  0.41774774  0.41634837  0.30643290  1
  Se  Se214  1  0.42668208  0.41964682  0.81730850  1
  Se  Se215  1  0.41449443  0.74538409  0.29803090  1
  Se  Se216  1  0.42155362  0.74790194  0.80627205  1
  Se  Se217  1  0.73803385  0.08740417  0.30404537  1
  Se  Se218  1  0.74439499  0.08334427  0.79985911  1
  Se  Se219  1  0.75647138  0.41836528  0.31473498  1
  Se  Se220  1  0.74572856  0.42047507  0.80368510  1
  Se  Se221  1  0.74130771  0.74217986  0.30133240  1
  Se  Se222  1  0.74751064  0.74854536  0.80407718  1
  Se  Se223  1  0.25228101  0.08496273  0.19654560  1
  Se  Se224  1  0.25980669  0.08489187  0.70585729  1
  Se  Se225  1  0.25374389  0.41756080  0.19225566  1
  Se  Se226  1  0.25077750  0.41746958  0.68946804  1
  Se  Se227  1  0.25274672  0.74534582  0.19716399  1
  Se  Se228  1  0.24951551  0.75251718  0.70446997  1
  Se  Se229  1  0.58034892  0.07638043  0.20336579  1
  Se  Se230  1  0.58548419  0.08223249  0.69765988  1
  Se  Se231  1  0.57145348  0.41522074  0.18670788  1
  Se  Se232  1  0.57564805  0.41373049  0.69728304  1
  Se  Se233  1  0.58083515  0.74058038  0.18853271  1
  Se  Se234  1  0.58517337  0.74785111  0.70044766  1
  Se  Se235  1  0.91205948  0.08969712  0.19374616  1
  Se  Se236  1  0.91331593  0.08681997  0.69092259  1
  Se  Se237  1  0.91977732  0.41989881  0.20272009  1
  Se  Se238  1  0.91304849  0.41260256  0.69565412  1
  Se  Se239  1  0.90627272  0.75373010  0.19164885  1
  Se  Se240  1  0.91453900  0.74889826  0.70014691  1
  Se  Se241  1  0.08417673  0.25498475  0.19256769  1
  Se  Se242  1  0.09401776  0.24199802  0.70141821  1
  Se  Se243  1  0.08916207  0.58181117  0.18870906  1
  Se  Se244  1  0.08225706  0.57576751  0.69547226  1
  Se  Se245  1  0.09053289  0.91578968  0.18846824  1
  Se  Se246  1  0.09092189  0.91111305  0.68745682  1
  Se  Se247  1  0.42615554  0.24907278  0.19768733  1
  Se  Se248  1  0.42645365  0.24795468  0.69289282  1
  Se  Se249  1  0.41755287  0.58448070  0.18796452  1
  Se  Se250  1  0.41198061  0.58380587  0.70029586  1
  Se  Se251  1  0.41520976  0.91555125  0.19430845  1
  Se  Se252  1  0.42057684  0.91698973  0.69698896  1
  Se  Se253  1  0.75371985  0.24118703  0.19153721  1
  Se  Se254  1  0.74355318  0.25102017  0.69573947  1
  Se  Se255  1  0.74433410  0.57670353  0.19826144  1
  Se  Se256  1  0.74295343  0.58399928  0.69946704  1
  Se  Se257  1  0.74146507  0.91662103  0.19365372  1
  Se  Se258  1  0.75007901  0.91892854  0.70054064  1
