# generated using pymatgen
data_In86Cu29Se144
_symmetry_space_group_name_H-M   'P 1'
_cell_length_a   17.58081308
_cell_length_b   17.58280315
_cell_length_c   23.45192058
_cell_angle_alpha   89.97270161
_cell_angle_beta   90.03559108
_cell_angle_gamma   90.00509004
_symmetry_Int_Tables_number   1
_chemical_formula_structural   In86Cu29Se144
_chemical_formula_sum   'In86 Cu29 Se144'
_cell_volume   7249.45486883
_cell_formula_units_Z   1
loop_
 _symmetry_equiv_pos_site_id
 _symmetry_equiv_pos_as_xyz
  1  'x, y, z'
loop_
 _atom_site_type_symbol
 _atom_site_label
 _atom_site_symmetry_multiplicity
 _atom_site_fract_x
 _atom_site_fract_y
 _atom_site_fract_z
 _atom_site_occupancy
  In  In0  1  0.00474358  0.15659383  0.12204778  1
  In  In1  1  -0.00448366  0.18762837  0.63411917  1
  In  In2  1  0.00853423  0.50822625  0.11858652  1
  In  In3  1  -0.00968206  0.49960752  0.62556622  1
  In  In4  1  -0.00676415  0.82548475  0.11639492  1
  In  In5  1  0.00074177  0.82369269  0.62115215  1
  In  In6  1  0.33874907  0.17104979  0.12184212  1
  In  In7  1  0.34948492  0.17694794  0.62757590  1
  In  In8  1  0.33563344  0.49797777  0.12664646  1
  In  In9  1  0.34112019  0.48184292  0.62931951  1
  In  In10  1  0.32068768  0.83985386  0.13129462  1
  In  In11  1  0.33308622  0.83277029  0.61472778  1
  In  In12  1  0.66628619  0.18733564  0.12694119  1
  In  In13  1  0.66702814  0.16809066  0.64300722  1
  In  In14  1  0.65215163  0.49090176  0.11102708  1
  In  In15  1  0.66912320  0.49648756  0.62740781  1
  In  In16  1  0.66920866  0.82470220  0.12030732  1
  In  In17  1  0.66074599  0.84033103  0.63660793  1
  In  In18  1  0.17315243  -0.00891519  0.37618851  1
  In  In19  1  0.17400638  -0.00580071  0.88348035  1
  In  In20  1  0.17387587  0.32028882  0.37334928  1
  In  In21  1  0.16406363  0.33795555  0.87829793  1
  In  In22  1  0.17690243  0.67712482  0.36235280  1
  In  In23  1  0.16824053  0.66016192  0.88775665  1
  In  In24  1  0.48499351  0.00689105  0.37474342  1
  In  In25  1  0.51736637  0.00785884  0.87177204  1
  In  In26  1  0.51247430  0.34295700  0.36373767  1
  In  In27  1  0.50274168  0.33449716  0.87337873  1
  In  In28  1  0.49160301  0.66843735  0.38230864  1
  In  In29  1  0.50423900  0.65565158  0.87805643  1
  In  In30  1  0.83479528  0.00509766  0.38359045  1
  In  In31  1  0.82139353  0.00156697  0.86988978  1
  In  In32  1  0.81491849  0.35181132  0.39327990  1
  In  In33  1  0.83947282  0.33167024  0.86253087  1
  In  In34  1  0.82548379  0.65337507  0.37236795  1
  In  In35  1  0.82440755  0.67311415  0.87704947  1
  In  In36  1  -0.00558171  0.15629699  0.37821932  1
  In  In37  1  -0.00236173  0.18894796  0.87096307  1
  In  In38  1  -0.01425351  0.50193574  0.37141548  1
  In  In39  1  0.00573283  0.48596691  0.88263823  1
  In  In40  1  0.01348503  0.84017319  0.37409046  1
  In  In41  1  0.00114781  0.83040428  0.88200867  1
  In  In42  1  0.35981725  0.17785732  0.35001767  1
  In  In43  1  0.32669216  0.17712229  0.88443432  1
  In  In44  1  0.34041633  0.50694089  0.36838566  1
  In  In45  1  0.33528560  0.49344745  0.88263896  1
  In  In46  1  0.33193469  0.83195473  0.37375573  1
  In  In47  1  0.32940445  0.82298861  0.88154007  1
  In  In48  1  0.65136470  0.19790630  0.38646808  1
  In  In49  1  0.66083830  0.16511754  0.85807395  1
  In  In50  1  0.66507445  0.49248516  0.38611395  1
  In  In51  1  0.66769551  0.49938437  0.87348480  1
  In  In52  1  0.66583285  0.82164915  0.38266470  1
  In  In53  1  0.68077587  0.84384756  0.85708539  1
  In  In54  1  0.17516219  0.00860364  0.11469878  1
  In  In55  1  0.17609683  -0.00509527  0.62345389  1
  In  In56  1  0.18056442  0.34531641  0.11488747  1
  In  In57  1  0.17507385  0.33640466  0.64353717  1
  In  In58  1  0.16465784  0.66360552  0.12664808  1
  In  In59  1  0.15679760  0.66903041  0.62050483  1
  In  In60  1  0.48595049  0.00351163  0.12715672  1
  In  In61  1  0.54224135  0.00866284  0.61506665  1
  In  In62  1  0.49796526  0.33412488  0.12313599  1
  In  In63  1  0.49827397  0.33202106  0.63404609  1
  In  In64  1  0.50038912  0.65118563  0.12371719  1
  In  In65  1  0.50831134  0.67598165  0.61681749  1
  In  In66  1  0.84604549  0.00057175  0.12121737  1
  In  In67  1  0.80192696  0.00498319  0.63258914  1
  In  In68  1  0.81483192  0.33493715  0.12532289  1
  In  In69  1  0.82625377  0.33708741  0.62922292  1
  In  In70  1  0.83942007  0.66833645  0.11710548  1
  In  In71  1  0.83613438  0.65165014  0.62602101  1
  In  In72  1  0.00628346  0.00144725  0.24833048  1
  In  In73  1  0.50544149  0.16699723  0.50655905  1
  In  In74  1  0.33564595  0.65894615  0.76021662  1
  In  In75  1  0.66404270  0.65856795  0.24684759  1
  In  In76  1  0.00219098  0.33443119  0.24892521  1
  In  In77  1  0.16810906  0.15676910  0.49711866  1
  In  In78  1  0.83058802  0.83391735  0.50419360  1
  In  In79  1  0.34360055  0.00531918  0.74784668  1
  In  In80  1  0.50194638  0.83411041  0.00059937  1
  In  In81  1  -0.00387338  0.00183093  0.75806224  1
  In  In82  1  0.66210399  0.00382834  0.25568680  1
  In  In83  1  0.16510844  0.50330851  0.50114513  1
  In  In84  1  -0.00368947  0.65844919  0.74645271  1
  In  In85  1  0.83487943  0.16605759  -0.00792147  1
  Cu  Cu86  1  0.50383454  0.83741894  0.74415689  1
  Cu  Cu87  1  0.16682571  0.82635168  0.74997224  1
  Cu  Cu88  1  0.66300216  0.33772451  -0.00525015  1
  Cu  Cu89  1  0.33226234  0.66375006  0.49276553  1
  Cu  Cu90  1  0.17957898  0.16773554  0.24120533  1
  Cu  Cu91  1  -0.00357737  0.00225949  0.50459881  1
  Cu  Cu92  1  0.17191703  0.17455906  0.75766377  1
  Cu  Cu93  1  0.33535396  0.33016326  0.50222749  1
  Cu  Cu94  1  0.66369134  0.65865701  0.50367866  1
  Cu  Cu95  1  0.33333652  -0.00384845  0.49487850  1
  Cu  Cu96  1  0.66991299  0.00496030  -0.00713727  1
  Cu  Cu97  1  -0.00158350  0.33061607  -0.00350825  1
  Cu  Cu98  1  0.16634279  0.83041300  0.24828981  1
  Cu  Cu99  1  -0.00337439  0.65977816  -0.00022929  1
  Cu  Cu100  1  0.67222267  0.66765838  -0.00373960  1
  Cu  Cu101  1  0.82637016  0.17954907  0.25865995  1
  Cu  Cu102  1  0.00473728  0.67340914  0.49509041  1
  Cu  Cu103  1  0.32735627  0.66477971  0.00522322  1
  Cu  Cu104  1  0.33669354  0.33536062  0.00099931  1
  Cu  Cu105  1  0.83221312  0.49692631  0.75042743  1
  Cu  Cu106  1  0.00401756  -0.00591519  -0.00202950  1
  Cu  Cu107  1  0.49827947  0.49469837  0.24643490  1
  Cu  Cu108  1  0.50470773  0.50167895  0.75236318  1
  Cu  Cu109  1  0.33724731  0.00441349  0.00191793  1
  Cu  Cu110  1  0.16723897  0.49975754  0.24308166  1
  Cu  Cu111  1  0.82748285  0.49775874  0.25147792  1
  Cu  Cu112  1  -0.00854344  0.33542310  0.50563936  1
  Cu  Cu113  1  0.83813350  0.83314051  0.24191842  1
  Cu  Cu114  1  0.48963435  0.82904553  0.25594217  1
  Se  Se115  1  0.08378470  0.08431834  0.04731836  1
  Se  Se116  1  0.07589133  0.08194807  0.56688155  1
  Se  Se117  1  0.08019060  0.41381792  0.05216778  1
  Se  Se118  1  0.08429423  0.40673674  0.56300428  1
  Se  Se119  1  0.08185176  0.74282848  0.05377674  1
  Se  Se120  1  0.08808081  0.75644388  0.54719534  1
  Se  Se121  1  0.42270656  0.08830839  0.05078605  1
  Se  Se122  1  0.41155009  0.07103568  0.56165995  1
  Se  Se123  1  0.41902918  0.42118308  0.05410015  1
  Se  Se124  1  0.42166599  0.40936368  0.55531883  1
  Se  Se125  1  0.41158858  0.74669164  0.06250818  1
  Se  Se126  1  0.41462963  0.74710907  0.54874291  1
  Se  Se127  1  0.74578826  0.08220059  0.06067870  1
  Se  Se128  1  0.71707309  0.07637301  0.56272882  1
  Se  Se129  1  0.75062053  0.41750880  0.04771725  1
  Se  Se130  1  0.76259222  0.43007962  0.55745372  1
  Se  Se131  1  0.75405997  0.75230077  0.04969019  1
  Se  Se132  1  0.74473010  0.74031431  0.56306427  1
  Se  Se133  1  0.25174268  0.24812876  0.05111075  1
  Se  Se134  1  0.24951445  0.25377317  0.56035348  1
  Se  Se135  1  0.24742607  0.57882567  0.05891170  1
  Se  Se136  1  0.25995519  0.58745829  0.56245191  1
  Se  Se137  1  0.25379427  0.91562170  0.05042003  1
  Se  Se138  1  0.24619459  0.91511105  0.54759224  1
  Se  Se139  1  0.58325667  0.25369047  0.05128112  1
  Se  Se140  1  0.59324476  0.25841272  0.56475727  1
  Se  Se141  1  0.58124077  0.58744171  0.04509372  1
  Se  Se142  1  0.58052527  0.57500338  0.55673417  1
  Se  Se143  1  0.59197644  0.92818186  0.05937999  1
  Se  Se144  1  0.58087941  0.89645256  0.55385428  1
  Se  Se145  1  0.91882838  0.25418739  0.06168465  1
  Se  Se146  1  0.91063007  0.25134673  0.55869342  1
  Se  Se147  1  0.91180544  0.57458674  0.05049283  1
  Se  Se148  1  0.92619238  0.58879910  0.55126935  1
  Se  Se149  1  0.91429521  0.91498706  0.04861035  1
  Se  Se150  1  0.91541363  0.92634120  0.56737592  1
  Se  Se151  1  0.07340555  0.25633724  0.44499013  1
  Se  Se152  1  0.08521141  0.24698869  0.94767235  1
  Se  Se153  1  0.08113086  0.59013354  0.43400384  1
  Se  Se154  1  0.08260243  0.57496980  0.95073745  1
  Se  Se155  1  0.08173701  0.92491673  0.44877353  1
  Se  Se156  1  0.08978104  0.90875402  0.94844189  1
  Se  Se157  1  0.41242310  0.24890265  0.44151555  1
  Se  Se158  1  0.42162459  0.25449872  0.94689476  1
  Se  Se159  1  0.41702512  0.57373114  0.44846622  1
  Se  Se160  1  0.41192372  0.58838659  0.94746370  1
  Se  Se161  1  0.41797984  0.91239216  0.44339221  1
  Se  Se162  1  0.41514156  0.92588781  0.93735279  1
  Se  Se163  1  0.76680330  0.23400585  0.44679345  1
  Se  Se164  1  0.74260093  0.25481297  0.93570273  1
  Se  Se165  1  0.75102865  0.58088366  0.44938216  1
  Se  Se166  1  0.75233236  0.57982937  0.94458731  1
  Se  Se167  1  0.73859454  0.92403722  0.44601335  1
  Se  Se168  1  0.74745539  0.91571226  0.94153185  1
  Se  Se169  1  0.26689657  0.08588908  0.43232476  1
  Se  Se170  1  0.24952618  0.08456776  0.94964952  1
  Se  Se171  1  0.25450289  0.40985463  0.44188966  1
  Se  Se172  1  0.24683937  0.41686242  0.95086632  1
  Se  Se173  1  0.24694898  0.74915205  0.44324931  1
  Se  Se174  1  0.24546618  0.75154490  0.95384817  1
  Se  Se175  1  0.58727615  0.07768206  0.43869624  1
  Se  Se176  1  0.59120227  0.09363171  0.94248207  1
  Se  Se177  1  0.58453445  0.40066708  0.44761034  1
  Se  Se178  1  0.57934499  0.42366854  0.94386309  1
  Se  Se179  1  0.58184458  0.74350390  0.45060811  1
  Se  Se180  1  0.59277660  0.75226859  0.93665505  1
  Se  Se181  1  0.91326412  0.08726273  0.45477627  1
  Se  Se182  1  0.92740113  0.07541625  0.93392188  1
  Se  Se183  1  0.91823784  0.42546550  0.45087316  1
  Se  Se184  1  0.90867569  0.40704661  0.94361742  1
  Se  Se185  1  0.91752648  0.74898073  0.43582848  1
  Se  Se186  1  0.91578071  0.74611095  0.94635207  1
  Se  Se187  1  0.25560134  0.25569894  0.29643779  1
  Se  Se188  1  0.25382705  0.25860150  0.80998888  1
  Se  Se189  1  0.25074694  0.58116960  0.29977467  1
  Se  Se190  1  0.23783964  0.57234514  0.81278958  1
  Se  Se191  1  0.24944695  0.91441615  0.30190892  1
  Se  Se192  1  0.25055475  0.90857796  0.80564939  1
  Se  Se193  1  0.56572034  0.23244566  0.30262398  1
  Se  Se194  1  0.59291585  0.26871312  0.80038006  1
  Se  Se195  1  0.57618598  0.57489957  0.31142349  1
  Se  Se196  1  0.58749223  0.58726279  0.80349903  1
  Se  Se197  1  0.57772893  0.90363515  0.31280465  1
  Se  Se198  1  0.58500459  0.92412698  0.79680309  1
  Se  Se199  1  0.91422134  0.25369220  0.31674620  1
  Se  Se200  1  0.89861554  0.22765588  0.79684065  1
  Se  Se201  1  0.91243778  0.58589709  0.29813848  1
  Se  Se202  1  0.91256695  0.57402383  0.81386422  1
  Se  Se203  1  0.90886411  0.91492348  0.30745685  1
  Se  Se204  1  0.91010238  0.90201511  0.80962675  1
  Se  Se205  1  0.09798616  0.09424776  0.30695773  1
  Se  Se206  1  0.09522116  0.08784177  0.81416622  1
  Se  Se207  1  0.09269531  0.42352182  0.31167199  1
  Se  Se208  1  0.06910673  0.40146443  0.80691913  1
  Se  Se209  1  0.07720071  0.75184891  0.30030817  1
  Se  Se210  1  0.08897806  0.74653052  0.81005665  1
  Se  Se211  1  0.41544293  0.06856610  0.29123874  1
  Se  Se212  1  0.42037199  0.09513166  0.81447924  1
  Se  Se213  1  0.41332215  0.41414989  0.30120462  1
  Se  Se214  1  0.41851824  0.42392260  0.80766163  1
  Se  Se215  1  0.41083033  0.74067840  0.30683784  1
  Se  Se216  1  0.42810798  0.76061890  0.81004628  1
  Se  Se217  1  0.75147635  0.09278259  0.31641307  1
  Se  Se218  1  0.75596166  0.08688748  0.79699158  1
  Se  Se219  1  0.74587253  0.41883288  0.30925346  1
  Se  Se220  1  0.74643670  0.41524345  0.80259869  1
  Se  Se221  1  0.75509516  0.75658924  0.30324166  1
  Se  Se222  1  0.74361332  0.73699788  0.79881583  1
  Se  Se223  1  0.25692833  0.07955606  0.18907940  1
  Se  Se224  1  0.24419308  0.09451286  0.69190618  1
  Se  Se225  1  0.25231861  0.41369945  0.19617955  1
  Se  Se226  1  0.25371831  0.42640154  0.70562130  1
  Se  Se227  1  0.24958532  0.74450858  0.19678164  1
  Se  Se228  1  0.24976169  0.74914770  0.69136547  1
  Se  Se229  1  0.58116702  0.08980076  0.18814330  1
  Se  Se230  1  0.55519251  0.10091123  0.69700063  1
  Se  Se231  1  0.58567487  0.41687778  0.19232728  1
  Se  Se232  1  0.58572071  0.41680981  0.69843817  1
  Se  Se233  1  0.57265992  0.75651824  0.19189555  1
  Se  Se234  1  0.58262380  0.74331955  0.69793073  1
  Se  Se235  1  0.90594495  0.09774883  0.19837012  1
  Se  Se236  1  0.91441717  0.08113971  0.68661111  1
  Se  Se237  1  0.90995954  0.42178818  0.18858221  1
  Se  Se238  1  0.91871752  0.41567278  0.69785930  1
  Se  Se239  1  0.91816969  0.74642793  0.19188813  1
  Se  Se240  1  0.90814872  0.75588677  0.69240358  1
  Se  Se241  1  0.09116702  0.24585403  0.18626956  1
  Se  Se242  1  0.08393359  0.25489626  0.70608055  1
  Se  Se243  1  0.07855508  0.58373368  0.19747390  1
  Se  Se244  1  0.09435916  0.57151622  0.69152395  1
  Se  Se245  1  0.08946270  0.91230658  0.18450907  1
  Se  Se246  1  0.08793342  0.91041779  0.69331863  1
  Se  Se247  1  0.41529007  0.25432102  0.19275113  1
  Se  Se248  1  0.40357196  0.26462698  0.70327355  1
  Se  Se249  1  0.41609048  0.58345827  0.19785394  1
  Se  Se250  1  0.42458201  0.58248687  0.69071263  1
  Se  Se251  1  0.41557520  0.91338752  0.19648246  1
  Se  Se252  1  0.42303260  0.91379238  0.68287515  1
  Se  Se253  1  0.74334503  0.26030498  0.20434449  1
  Se  Se254  1  0.75623845  0.25163096  0.70373201  1
  Se  Se255  1  0.75169811  0.57358370  0.18330175  1
  Se  Se256  1  0.74988987  0.58233150  0.69855621  1
  Se  Se257  1  0.75398830  0.91613166  0.18911644  1
  Se  Se258  1  0.75210311  0.90938393  0.70550258  1
