# generated using pymatgen
data_In86Cu29Se144
_symmetry_space_group_name_H-M   'P 1'
_cell_length_a   17.58517549
_cell_length_b   17.58671039
_cell_length_c   23.44072190
_cell_angle_alpha   90.00986578
_cell_angle_beta   90.00361696
_cell_angle_gamma   89.99400263
_symmetry_Int_Tables_number   1
_chemical_formula_structural   In86Cu29Se144
_chemical_formula_sum   'In86 Cu29 Se144'
_cell_volume   7249.40380640
_cell_formula_units_Z   1
loop_
 _symmetry_equiv_pos_site_id
 _symmetry_equiv_pos_as_xyz
  1  'x, y, z'
loop_
 _atom_site_type_symbol
 _atom_site_label
 _atom_site_symmetry_multiplicity
 _atom_site_fract_x
 _atom_site_fract_y
 _atom_site_fract_z
 _atom_site_occupancy
  In  In0  1  0.01714891  0.17197080  0.13625505  1
  In  In1  1  0.00472809  0.17096314  0.61159877  1
  In  In2  1  0.01351736  0.48892560  0.13494275  1
  In  In3  1  0.01697864  0.49018616  0.63253637  1
  In  In4  1  -0.00546488  0.82758610  0.12288702  1
  In  In5  1  -0.00527201  0.83048797  0.62153470  1
  In  In6  1  0.33465665  0.16476720  0.13593571  1
  In  In7  1  0.32901281  0.16311489  0.61668460  1
  In  In8  1  0.31851724  0.48401177  0.11578066  1
  In  In9  1  0.32759990  0.49463595  0.61906752  1
  In  In10  1  0.33043857  0.84516665  0.12671356  1
  In  In11  1  0.33769538  0.85077966  0.62286358  1
  In  In12  1  0.64236596  0.18700914  0.15047663  1
  In  In13  1  0.66003784  0.16256143  0.61818438  1
  In  In14  1  0.65193565  0.49357581  0.12329732  1
  In  In15  1  0.65732514  0.49456180  0.61961349  1
  In  In16  1  0.67292493  0.83677475  0.12526104  1
  In  In17  1  0.68321162  0.84047422  0.62104837  1
  In  In18  1  0.17256268  -0.00243886  0.37564005  1
  In  In19  1  0.16266097  -0.01304696  0.87357840  1
  In  In20  1  0.16826466  0.33410366  0.37889209  1
  In  In21  1  0.16608689  0.34228828  0.87715377  1
  In  In22  1  0.15556034  0.67856485  0.37829250  1
  In  In23  1  0.16192688  0.66647346  0.88007530  1
  In  In24  1  0.50875900  0.02623982  0.35362192  1
  In  In25  1  0.50513359  0.00631086  0.86960620  1
  In  In26  1  0.50133398  0.32187654  0.37089211  1
  In  In27  1  0.48888361  0.33278758  0.89086295  1
  In  In28  1  0.48974759  0.65787440  0.37560968  1
  In  In29  1  0.48948843  0.65834910  0.87498779  1
  In  In30  1  0.82976173  0.00830443  0.38511838  1
  In  In31  1  0.81845074  0.00271049  0.87520505  1
  In  In32  1  0.82291993  0.32818292  0.37060448  1
  In  In33  1  0.84048613  0.31652260  0.86693961  1
  In  In34  1  0.84985407  0.66493115  0.37642060  1
  In  In35  1  0.85113118  0.66617122  0.87252956  1
  In  In36  1  -0.00280212  0.17882667  0.38799646  1
  In  In37  1  -0.01068369  0.17383904  0.86649250  1
  In  In38  1  0.00505484  0.50950920  0.37199294  1
  In  In39  1  0.00366687  0.50319738  0.86724286  1
  In  In40  1  0.01324025  0.82262549  0.38048064  1
  In  In41  1  0.00994044  0.82122782  0.88270031  1
  In  In42  1  0.32988426  0.17042457  0.37098750  1
  In  In43  1  0.34688143  0.17291842  0.87733453  1
  In  In44  1  0.34324217  0.48533634  0.38004927  1
  In  In45  1  0.33068249  0.48823956  0.88827680  1
  In  In46  1  0.31015732  0.84540218  0.37440370  1
  In  In47  1  0.32041854  0.83104386  0.87443053  1
  In  In48  1  0.66529882  0.16606399  0.37336043  1
  In  In49  1  0.66353835  0.15503319  0.87415692  1
  In  In50  1  0.66519893  0.48276656  0.37395270  1
  In  In51  1  0.65485857  0.49173273  0.87389295  1
  In  In52  1  0.66538508  0.84938293  0.37489169  1
  In  In53  1  0.66439997  0.85346957  0.87861578  1
  In  In54  1  0.17929421  -0.00125134  0.13225239  1
  In  In55  1  0.17886449  0.00735923  0.61435215  1
  In  In56  1  0.16618613  0.32987522  0.13624816  1
  In  In57  1  0.14833953  0.32496263  0.59936250  1
  In  In58  1  0.16165619  0.65837091  0.12359373  1
  In  In59  1  0.15781097  0.66016019  0.61915330  1
  In  In60  1  0.48281523  0.02271576  0.14684184  1
  In  In61  1  0.49388421  0.01371890  0.63019103  1
  In  In62  1  0.49259669  0.32989148  0.13157507  1
  In  In63  1  0.50167764  0.33044365  0.61821123  1
  In  In64  1  0.50279617  0.64989147  0.12194444  1
  In  In65  1  0.49860839  0.65486587  0.62362531  1
  In  In66  1  0.82775877  -0.00743570  0.12476880  1
  In  In67  1  0.83070809  -0.00042097  0.61725324  1
  In  In68  1  0.83901015  0.32840233  0.13398200  1
  In  In69  1  0.85200757  0.32997669  0.61997573  1
  In  In70  1  0.83534169  0.67929779  0.12179379  1
  In  In71  1  0.83714030  0.68311319  0.62540983  1
  In  In72  1  0.17481238  0.16453815  0.01177461  1
  In  In73  1  0.33119159  0.33550785  0.75630949  1
  In  In74  1  -0.00016738  0.00423480  0.25864301  1
  In  In75  1  0.49398342  0.83550194  0.49291560  1
  In  In76  1  0.32659068  0.66818284  0.25085244  1
  In  In77  1  0.83043649  0.15994976  -0.00184769  1
  In  In78  1  0.67262639  0.67472722  0.74881870  1
  In  In79  1  0.50018353  0.83463510  0.00456745  1
  In  In80  1  0.83554862  0.50000643  -0.00615705  1
  In  In81  1  0.67081730  0.66752437  0.24089138  1
  In  In82  1  -0.00124151  0.00121460  0.74555471  1
  In  In83  1  0.83539186  0.50146725  0.49983422  1
  In  In84  1  0.32884554  0.66909419  0.75189697  1
  In  In85  1  0.66969783  0.33132450  0.74546439  1
  Cu  Cu86  1  0.00302845  0.66285744  0.00059762  1
  Cu  Cu87  1  0.66518768  0.66451646  0.50464629  1
  Cu  Cu88  1  0.16759490  0.16648411  0.73634950  1
  Cu  Cu89  1  0.00718736  0.33136957  0.00423018  1
  Cu  Cu90  1  0.83782660  0.84254721  0.74725357  1
  Cu  Cu91  1  0.50846049  0.84310409  0.74653130  1
  Cu  Cu92  1  0.49227578  0.83968440  0.24990441  1
  Cu  Cu93  1  0.33620949  0.33242626  0.49392234  1
  Cu  Cu94  1  0.00145534  0.67045055  0.50076287  1
  Cu  Cu95  1  0.65973758  0.32949604  0.00783664  1
  Cu  Cu96  1  0.83211005  0.16192258  0.25943517  1
  Cu  Cu97  1  0.49983496  0.49057669  0.25016760  1
  Cu  Cu98  1  0.83973372  0.83095008  0.25077257  1
  Cu  Cu99  1  0.83775394  0.50435829  0.74576947  1
  Cu  Cu100  1  0.17084873  0.49868523  0.25359785  1
  Cu  Cu101  1  0.50167473  0.16596764  0.75111625  1
  Cu  Cu102  1  0.33696846  0.00467438  0.49317829  1
  Cu  Cu103  1  0.32852247  0.66135319  0.00006555  1
  Cu  Cu104  1  0.83795889  0.49812348  0.25222582  1
  Cu  Cu105  1  0.66071643  0.00514884  0.00426751  1
  Cu  Cu106  1  0.66235870  0.00189227  0.49615481  1
  Cu  Cu107  1  0.16622664  0.49448542  0.74853601  1
  Cu  Cu108  1  0.00015024  -0.01297794  0.00162565  1
  Cu  Cu109  1  0.16689293  0.83517064  0.75151287  1
  Cu  Cu110  1  0.66924606  0.66931332  0.00152297  1
  Cu  Cu111  1  0.00313114  -0.00251275  0.49769915  1
  Cu  Cu112  1  0.33003490  0.66088919  0.49532353  1
  Cu  Cu113  1  0.33383222  0.00183523  0.00483527  1
  Cu  Cu114  1  0.66045389  0.32432072  0.49380399  1
  Se  Se115  1  0.07373156  0.07289165  0.06147328  1
  Se  Se116  1  0.08860716  0.08261741  0.54802762  1
  Se  Se117  1  0.08908423  0.41078137  0.06014579  1
  Se  Se118  1  0.08098619  0.43242552  0.54481080  1
  Se  Se119  1  0.08292177  0.74756685  0.05576121  1
  Se  Se120  1  0.08565061  0.75541856  0.55345998  1
  Se  Se121  1  0.41298486  0.08406790  0.06106167  1
  Se  Se122  1  0.42010129  0.08419736  0.55049834  1
  Se  Se123  1  0.43708665  0.43449979  0.06462819  1
  Se  Se124  1  0.41618335  0.41457362  0.55333304  1
  Se  Se125  1  0.40784097  0.74043537  0.06217457  1
  Se  Se126  1  0.40932927  0.74251470  0.55785648  1
  Se  Se127  1  0.73838401  0.08689753  0.06593437  1
  Se  Se128  1  0.74735747  0.08389140  0.54991181  1
  Se  Se129  1  0.75098011  0.40829447  0.05890448  1
  Se  Se130  1  0.74186293  0.40493168  0.55537794  1
  Se  Se131  1  0.74949309  0.75543401  0.05173900  1
  Se  Se132  1  0.75194156  0.75035894  0.54999870  1
  Se  Se133  1  0.26282060  0.26141589  0.06377985  1
  Se  Se134  1  0.25238579  0.24791110  0.54685089  1
  Se  Se135  1  0.24345684  0.57873550  0.05238307  1
  Se  Se136  1  0.24724714  0.58184144  0.55314477  1
  Se  Se137  1  0.24700419  0.91801419  0.05323687  1
  Se  Se138  1  0.25605340  0.91699254  0.54593033  1
  Se  Se139  1  0.57924085  0.24625451  0.06156287  1
  Se  Se140  1  0.57649000  0.24332735  0.54899563  1
  Se  Se141  1  0.58657279  0.58033354  0.04754135  1
  Se  Se142  1  0.57893034  0.57888340  0.55004301  1
  Se  Se143  1  0.57933630  0.92827504  0.06727861  1
  Se  Se144  1  0.58271338  0.92111356  0.55844571  1
  Se  Se145  1  0.92501361  0.24789501  0.05951801  1
  Se  Se146  1  0.92169335  0.25400925  0.54347998  1
  Se  Se147  1  0.92291617  0.58177875  0.06133405  1
  Se  Se148  1  0.92285049  0.58966116  0.56326803  1
  Se  Se149  1  0.91054197  0.91223989  0.05531072  1
  Se  Se150  1  0.91721987  0.91617154  0.55220837  1
  Se  Se151  1  0.08933267  0.25502689  0.45221238  1
  Se  Se152  1  0.07954476  0.24362425  0.94343712  1
  Se  Se153  1  0.08326919  0.58648321  0.44720548  1
  Se  Se154  1  0.08056142  0.57614747  0.94471238  1
  Se  Se155  1  0.08859462  0.91584244  0.44545189  1
  Se  Se156  1  0.08961837  0.90965811  0.94964722  1
  Se  Se157  1  0.41834299  0.24517667  0.44352002  1
  Se  Se158  1  0.41313802  0.24544940  0.95701623  1
  Se  Se159  1  0.41914609  0.57709459  0.44977372  1
  Se  Se160  1  0.41578172  0.58018654  0.94893506  1
  Se  Se161  1  0.41593485  0.92821886  0.42859921  1
  Se  Se162  1  0.41084946  0.92038413  0.94059240  1
  Se  Se163  1  0.75057010  0.24481330  0.44469211  1
  Se  Se164  1  0.74129095  0.25819571  0.94168636  1
  Se  Se165  1  0.74215284  0.58824599  0.43705477  1
  Se  Se166  1  0.74310978  0.59107166  0.93417726  1
  Se  Se167  1  0.74948917  0.91531344  0.45029401  1
  Se  Se168  1  0.74809943  0.92309532  0.95327208  1
  Se  Se169  1  0.24969919  0.08700131  0.44297511  1
  Se  Se170  1  0.25344971  0.07634959  0.93960373  1
  Se  Se171  1  0.24895212  0.42091419  0.44998083  1
  Se  Se172  1  0.25013057  0.40330476  0.95327102  1
  Se  Se173  1  0.25007394  0.75057147  0.44616192  1
  Se  Se174  1  0.24835525  0.74816945  0.94741865  1
  Se  Se175  1  0.57856119  0.08295203  0.44154108  1
  Se  Se176  1  0.57800770  0.08413837  0.94724242  1
  Se  Se177  1  0.57787505  0.41143375  0.44358531  1
  Se  Se178  1  0.58318791  0.41624890  0.95071548  1
  Se  Se179  1  0.58907615  0.74219462  0.43753864  1
  Se  Se180  1  0.58661646  0.74557100  0.93774159  1
  Se  Se181  1  0.91760905  0.08558937  0.45185956  1
  Se  Se182  1  0.92818775  0.07257943  0.93967967  1
  Se  Se183  1  0.91726374  0.41493763  0.43460976  1
  Se  Se184  1  0.92436900  0.40233294  0.93939422  1
  Se  Se185  1  0.91607028  0.75341408  0.44917598  1
  Se  Se186  1  0.91631362  0.74739904  0.95026135  1
  Se  Se187  1  0.26917553  0.27811886  0.30912168  1
  Se  Se188  1  0.23962644  0.23894060  0.80974927  1
  Se  Se189  1  0.24774995  0.57777918  0.31764861  1
  Se  Se190  1  0.24630197  0.57089608  0.81184149  1
  Se  Se191  1  0.23803265  0.91657787  0.29657709  1
  Se  Se192  1  0.25260328  0.91905201  0.80102903  1
  Se  Se193  1  0.58776369  0.24660833  0.30081657  1
  Se  Se194  1  0.57515400  0.25158787  0.81224340  1
  Se  Se195  1  0.57979864  0.57908992  0.30407839  1
  Se  Se196  1  0.57809321  0.58160805  0.80170443  1
  Se  Se197  1  0.58252392  0.91763152  0.30029795  1
  Se  Se198  1  0.59092932  0.92565553  0.80052307  1
  Se  Se199  1  0.91657603  0.24674993  0.30885394  1
  Se  Se200  1  0.92286549  0.25391149  0.79063905  1
  Se  Se201  1  0.91977807  0.58680085  0.29985264  1
  Se  Se202  1  0.92263094  0.58697467  0.79750753  1
  Se  Se203  1  0.91158072  0.91057321  0.31719033  1
  Se  Se204  1  0.91771399  0.91395474  0.81517337  1
  Se  Se205  1  0.08600986  0.09618556  0.31677812  1
  Se  Se206  1  0.09209697  0.09080807  0.80592994  1
  Se  Se207  1  0.08527230  0.41851419  0.30815676  1
  Se  Se208  1  0.08225363  0.41093524  0.80229636  1
  Se  Se209  1  0.07902751  0.74713571  0.30030982  1
  Se  Se210  1  0.08768877  0.74884673  0.80525130  1
  Se  Se211  1  0.39875145  0.08208623  0.29633047  1
  Se  Se212  1  0.41460668  0.08550511  0.80396509  1
  Se  Se213  1  0.41637632  0.40869224  0.30339219  1
  Se  Se214  1  0.42537289  0.42428068  0.81245323  1
  Se  Se215  1  0.41800998  0.75879102  0.31180383  1
  Se  Se216  1  0.42751133  0.76228824  0.80619544  1
  Se  Se217  1  0.74895520  0.07553631  0.30780894  1
  Se  Se218  1  0.76443777  0.10147167  0.80625211  1
  Se  Se219  1  0.74844834  0.41591431  0.29893310  1
  Se  Se220  1  0.75947752  0.42512403  0.80795355  1
  Se  Se221  1  0.75353984  0.75228660  0.31075022  1
  Se  Se222  1  0.75856681  0.76428878  0.81250929  1
  Se  Se223  1  0.21505580  0.11644710  0.19014152  1
  Se  Se224  1  0.25578824  0.08126567  0.69205886  1
  Se  Se225  1  0.25524096  0.41545074  0.20088344  1
  Se  Se226  1  0.24032398  0.41115032  0.68754724  1
  Se  Se227  1  0.24011646  0.75695172  0.18951841  1
  Se  Se228  1  0.24640737  0.75837530  0.68643844  1
  Se  Se229  1  0.60733991  0.05944626  0.19692723  1
  Se  Se230  1  0.58784454  0.08605723  0.69742086  1
  Se  Se231  1  0.58714227  0.40987767  0.19864616  1
  Se  Se232  1  0.57108033  0.42240111  0.69456775  1
  Se  Se233  1  0.56876632  0.75663228  0.18851794  1
  Se  Se234  1  0.57904334  0.75891555  0.68423700  1
  Se  Se235  1  0.90957572  0.08908115  0.19094228  1
  Se  Se236  1  0.91506180  0.09062868  0.68355981  1
  Se  Se237  1  0.92163546  0.41259159  0.20028646  1
  Se  Se238  1  0.91805110  0.41721907  0.69416323  1
  Se  Se239  1  0.91899161  0.74558194  0.19783739  1
  Se  Se240  1  0.92081686  0.75403642  0.69996503  1
  Se  Se241  1  0.07656663  0.26200159  0.20841977  1
  Se  Se242  1  0.08712524  0.25070234  0.68386952  1
  Se  Se243  1  0.08675831  0.58289812  0.20120049  1
  Se  Se244  1  0.08657463  0.58671113  0.69939883  1
  Se  Se245  1  0.08079912  0.91482163  0.19162370  1
  Se  Se246  1  0.09276773  0.91506598  0.68620060  1
  Se  Se247  1  0.43805647  0.22648833  0.20024063  1
  Se  Se248  1  0.41946474  0.24639130  0.69223406  1
  Se  Se249  1  0.41750140  0.57457403  0.19436089  1
  Se  Se250  1  0.41537791  0.57352977  0.69463029  1
  Se  Se251  1  0.40307033  0.92261759  0.20294552  1
  Se  Se252  1  0.41734421  0.92297197  0.69783155  1
  Se  Se253  1  0.75515629  0.25029047  0.20348244  1
  Se  Se254  1  0.75660651  0.24548855  0.68327886  1
  Se  Se255  1  0.75982952  0.57216862  0.18396120  1
  Se  Se256  1  0.75362907  0.57756354  0.68514005  1
  Se  Se257  1  0.75281544  0.91227068  0.19989164  1
  Se  Se258  1  0.75264217  0.92392769  0.69559960  1
