# generated using pymatgen
data_In86Cu29Se144
_symmetry_space_group_name_H-M   'P 1'
_cell_length_a   17.58631663
_cell_length_b   17.58658920
_cell_length_c   23.45200536
_cell_angle_alpha   89.98861260
_cell_angle_beta   90.01151442
_cell_angle_gamma   89.99155493
_symmetry_Int_Tables_number   1
_chemical_formula_structural   In86Cu29Se144
_chemical_formula_sum   'In86 Cu29 Se144'
_cell_volume   7253.31385429
_cell_formula_units_Z   1
loop_
 _symmetry_equiv_pos_site_id
 _symmetry_equiv_pos_as_xyz
  1  'x, y, z'
loop_
 _atom_site_type_symbol
 _atom_site_label
 _atom_site_symmetry_multiplicity
 _atom_site_fract_x
 _atom_site_fract_y
 _atom_site_fract_z
 _atom_site_occupancy
  In  In0  1  0.00701926  0.16064403  0.11885265  1
  In  In1  1  -0.01042672  0.17670311  0.63803353  1
  In  In2  1  0.01853321  0.49878543  0.12249589  1
  In  In3  1  -0.00131298  0.50068143  0.62816708  1
  In  In4  1  -0.00418010  0.83063220  0.12507651  1
  In  In5  1  0.00220184  0.82972758  0.63460483  1
  In  In6  1  0.33721570  0.16582193  0.12557382  1
  In  In7  1  0.33839867  0.16327334  0.63298455  1
  In  In8  1  0.33442463  0.49780914  0.12057901  1
  In  In9  1  0.33564497  0.48788127  0.62416232  1
  In  In10  1  0.34216948  0.82500960  0.12458685  1
  In  In11  1  0.34279054  0.84674723  0.62406276  1
  In  In12  1  0.65167493  0.17075415  0.12783059  1
  In  In13  1  0.66394662  0.17157420  0.62714416  1
  In  In14  1  0.66164077  0.50994363  0.13039734  1
  In  In15  1  0.65328372  0.48601701  0.61595733  1
  In  In16  1  0.65273360  0.84596483  0.13409141  1
  In  In17  1  0.67210643  0.83526854  0.62561386  1
  In  In18  1  0.17132383  -0.00350180  0.37226139  1
  In  In19  1  0.19447357  0.03012747  0.84870782  1
  In  In20  1  0.18087895  0.32348810  0.37572757  1
  In  In21  1  0.16898407  0.32771382  0.87294216  1
  In  In22  1  0.17329590  0.67662730  0.35422088  1
  In  In23  1  0.15903798  0.67034728  0.88186144  1
  In  In24  1  0.50323592  0.00511609  0.36975082  1
  In  In25  1  0.49773684  0.00670138  0.87792342  1
  In  In26  1  0.48663195  0.33318495  0.38484509  1
  In  In27  1  0.49666697  0.33306648  0.87259057  1
  In  In28  1  0.49177722  0.65819668  0.36075457  1
  In  In29  1  0.48513131  0.67553229  0.89480227  1
  In  In30  1  0.82309098  0.01491812  0.37811796  1
  In  In31  1  0.84080816  0.00778589  0.86627741  1
  In  In32  1  0.83694426  0.32990550  0.38827173  1
  In  In33  1  0.83381897  0.33379865  0.86388801  1
  In  In34  1  0.82573595  0.65831010  0.36779193  1
  In  In35  1  0.83830332  0.65728123  0.87212591  1
  In  In36  1  -0.00926086  0.16155960  0.38161489  1
  In  In37  1  0.03170841  0.18809608  0.84857763  1
  In  In38  1  -0.00699672  0.49997134  0.37789125  1
  In  In39  1  0.00275386  0.49803344  0.87106991  1
  In  In40  1  0.01335034  0.82689573  0.36971954  1
  In  In41  1  0.00653056  0.83305626  0.87005104  1
  In  In42  1  0.34633844  0.17661098  0.36149753  1
  In  In43  1  0.32898669  0.17233501  0.87536672  1
  In  In44  1  0.33660594  0.50034944  0.36912200  1
  In  In45  1  0.34589632  0.48949909  0.88518232  1
  In  In46  1  0.33737656  0.84048922  0.35483050  1
  In  In47  1  0.33027449  0.84877201  0.88902127  1
  In  In48  1  0.66850903  0.15864044  0.38064404  1
  In  In49  1  0.65826145  0.16169858  0.86751067  1
  In  In50  1  0.65830917  0.50092574  0.37709259  1
  In  In51  1  0.66015695  0.49171917  0.87042031  1
  In  In52  1  0.66782009  0.83313081  0.36669765  1
  In  In53  1  0.64973260  0.84191295  0.87939867  1
  In  In54  1  0.17599739  0.01692254  0.11578352  1
  In  In55  1  0.16293703  0.01360277  0.64385519  1
  In  In56  1  0.17961439  0.35212404  0.10762794  1
  In  In57  1  0.17810568  0.31544884  0.64819456  1
  In  In58  1  0.18986461  0.65074895  0.13952257  1
  In  In59  1  0.16472434  0.65390990  0.62799700  1
  In  In60  1  0.49736360  0.00364785  0.12157729  1
  In  In61  1  0.48947909  0.01767159  0.63574537  1
  In  In62  1  0.48604402  0.31354226  0.11370614  1
  In  In63  1  0.49966315  0.33762186  0.62716974  1
  In  In64  1  0.49461611  0.66622928  0.12274869  1
  In  In65  1  0.50985989  0.66126350  0.62134194  1
  In  In66  1  0.83793158  -0.00632110  0.12967283  1
  In  In67  1  0.81563227  0.01201078  0.63453606  1
  In  In68  1  0.82795954  0.32926518  0.12706404  1
  In  In69  1  0.83003166  0.33285982  0.62482185  1
  In  In70  1  0.83183571  0.66624978  0.13719582  1
  In  In71  1  0.84624254  0.66136117  0.62258585  1
  In  In72  1  0.66707675  0.66567019  0.75043280  1
  In  In73  1  0.17031047  0.83294768  0.00724510  1
  In  In74  1  0.16879666  0.17079474  0.51439704  1
  In  In75  1  0.00072999  -0.00065058  0.25174177  1
  In  In76  1  0.83151151  0.83168796  0.50024360  1
  In  In77  1  0.83061714  0.83543304  0.00684151  1
  In  In78  1  0.82858368  0.49693148  -0.00876270  1
  In  In79  1  0.16240957  0.49381971  0.49881785  1
  In  In80  1  0.16964076  0.83515183  0.49181663  1
  In  In81  1  0.32651360  0.67039530  0.76034746  1
  In  In82  1  0.00518036  0.33282430  0.25550057  1
  In  In83  1  0.50124633  0.83503540  0.49015618  1
  In  In84  1  0.83676393  0.16901048  -0.00145469  1
  In  In85  1  0.66154040  0.32951497  0.25436479  1
  Cu  Cu86  1  0.66474519  0.00479127  0.00113139  1
  Cu  Cu87  1  0.65634121  0.66784176  0.00799139  1
  Cu  Cu88  1  0.17286445  0.17164363  0.24374079  1
  Cu  Cu89  1  0.49619956  0.15774747  0.24715603  1
  Cu  Cu90  1  0.65746672  0.33617312  -0.00534421  1
  Cu  Cu91  1  0.16711997  0.82832193  0.75589165  1
  Cu  Cu92  1  0.66570137  0.32901316  0.50267704  1
  Cu  Cu93  1  0.00125297  0.33278846  0.51125476  1
  Cu  Cu94  1  -0.01466034  0.00376081  0.50615912  1
  Cu  Cu95  1  0.33184436  0.32995536  -0.00304102  1
  Cu  Cu96  1  0.49704805  0.49494911  0.24690436  1
  Cu  Cu97  1  0.16218199  0.49759661  0.75243650  1
  Cu  Cu98  1  0.01548604  0.00748327  -0.01067227  1
  Cu  Cu99  1  -0.00134846  0.65900091  0.00183094  1
  Cu  Cu100  1  0.32953745  0.00865327  0.50348872  1
  Cu  Cu101  1  0.83167137  0.83114239  0.74653390  1
  Cu  Cu102  1  0.50522734  0.17381475  0.75289693  1
  Cu  Cu103  1  0.00137930  0.66101415  0.49938899  1
  Cu  Cu104  1  0.83300713  0.83135713  0.25089606  1
  Cu  Cu105  1  0.50432943  0.83043720  0.24245966  1
  Cu  Cu106  1  0.83778965  0.50058152  0.25389060  1
  Cu  Cu107  1  0.17450846  0.49854251  0.24397893  1
  Cu  Cu108  1  0.34146666  0.66137319  0.48932169  1
  Cu  Cu109  1  0.83570521  0.49888628  0.74676657  1
  Cu  Cu110  1  0.83065562  0.16577084  0.74657255  1
  Cu  Cu111  1  0.49743804  0.50138581  0.75224580  1
  Cu  Cu112  1  0.65429266  0.00803902  0.50519383  1
  Cu  Cu113  1  0.49708218  0.84972930  0.75413826  1
  Cu  Cu114  1  0.66717803  0.65106710  0.49328180  1
  Se  Se115  1  0.09252015  0.09363498  0.04409427  1
  Se  Se116  1  0.07208552  0.07757530  0.56543727  1
  Se  Se117  1  0.07454101  0.41314514  0.04616622  1
  Se  Se118  1  0.08994347  0.40278512  0.57010636  1
  Se  Se119  1  0.07797921  0.73887635  0.06174909  1
  Se  Se120  1  0.08173413  0.74423091  0.55679805  1
  Se  Se121  1  0.43301059  0.10284766  0.05569200  1
  Se  Se122  1  0.41604671  0.08776047  0.55568129  1
  Se  Se123  1  0.41641692  0.41267732  0.05110811  1
  Se  Se124  1  0.43042172  0.42908981  0.55544348  1
  Se  Se125  1  0.42203280  0.75148810  0.05057816  1
  Se  Se126  1  0.41150388  0.74468780  0.55527453  1
  Se  Se127  1  0.74898017  0.07910696  0.06228014  1
  Se  Se128  1  0.74487326  0.08592273  0.55591501  1
  Se  Se129  1  0.73939910  0.41074056  0.05778314  1
  Se  Se130  1  0.75115497  0.41540119  0.55213593  1
  Se  Se131  1  0.74172347  0.74458367  0.06566566  1
  Se  Se132  1  0.73994589  0.73481727  0.55643174  1
  Se  Se133  1  0.25201353  0.24582973  0.05376601  1
  Se  Se134  1  0.26401146  0.26347072  0.56380456  1
  Se  Se135  1  0.23925323  0.57270648  0.05583741  1
  Se  Se136  1  0.25785971  0.58983215  0.55346611  1
  Se  Se137  1  0.26629596  0.92610989  0.05667027  1
  Se  Se138  1  0.24598670  0.92858853  0.56070265  1
  Se  Se139  1  0.58374570  0.24452441  0.04752707  1
  Se  Se140  1  0.57969406  0.25055444  0.55755391  1
  Se  Se141  1  0.57783302  0.57636344  0.05546077  1
  Se  Se142  1  0.57750426  0.57684185  0.54754586  1
  Se  Se143  1  0.58427692  0.91848677  0.05380764  1
  Se  Se144  1  0.57896534  0.92070456  0.56296022  1
  Se  Se145  1  0.92461774  0.26169039  0.05841989  1
  Se  Se146  1  0.91521514  0.24629932  0.55795919  1
  Se  Se147  1  0.91194355  0.58410540  0.06040434  1
  Se  Se148  1  0.91994570  0.57616792  0.55104541  1
  Se  Se149  1  0.93230318  0.93165314  0.05169814  1
  Se  Se150  1  0.91468103  0.91829781  0.56720908  1
  Se  Se151  1  0.07805673  0.25611379  0.44477661  1
  Se  Se152  1  0.08555010  0.24275526  0.94042262  1
  Se  Se153  1  0.08850570  0.59505684  0.43493808  1
  Se  Se154  1  0.07917454  0.57857023  0.94536014  1
  Se  Se155  1  0.06821965  0.92986452  0.44393849  1
  Se  Se156  1  0.09153523  0.91794649  0.93609142  1
  Se  Se157  1  0.41075240  0.23764618  0.44713110  1
  Se  Se158  1  0.41862060  0.24992692  0.94370601  1
  Se  Se159  1  0.42420224  0.57777357  0.43900142  1
  Se  Se160  1  0.41233268  0.58064235  0.95575094  1
  Se  Se161  1  0.40133497  0.92434065  0.43946622  1
  Se  Se162  1  0.43487910  0.91038787  0.94820384  1
  Se  Se163  1  0.74813143  0.24490583  0.44898463  1
  Se  Se164  1  0.74410077  0.25754264  0.93827202  1
  Se  Se165  1  0.75704267  0.57340480  0.44223350  1
  Se  Se166  1  0.73424869  0.59492415  0.94054987  1
  Se  Se167  1  0.73379080  0.92196717  0.44710904  1
  Se  Se168  1  0.74936135  0.92752725  0.94207217  1
  Se  Se169  1  0.24762514  0.08571701  0.44230852  1
  Se  Se170  1  0.25282595  0.07865345  0.94089388  1
  Se  Se171  1  0.26186361  0.40885869  0.44511966  1
  Se  Se172  1  0.24695576  0.41337684  0.94480694  1
  Se  Se173  1  0.26284319  0.74623331  0.43346688  1
  Se  Se174  1  0.25944883  0.73937410  0.94735548  1
  Se  Se175  1  0.57230650  0.08543269  0.44694663  1
  Se  Se176  1  0.58532543  0.08941262  0.94638304  1
  Se  Se177  1  0.58514136  0.41003470  0.44436960  1
  Se  Se178  1  0.57579536  0.42178360  0.94345013  1
  Se  Se179  1  0.59031091  0.73840328  0.43585471  1
  Se  Se180  1  0.58203682  0.75655235  0.95293832  1
  Se  Se181  1  0.90519097  0.08774291  0.45271330  1
  Se  Se182  1  0.92748645  0.08666175  0.93564079  1
  Se  Se183  1  0.92361166  0.41549466  0.45180827  1
  Se  Se184  1  0.92145788  0.40441024  0.93967257  1
  Se  Se185  1  0.92337836  0.74447807  0.43944391  1
  Se  Se186  1  0.91982010  0.74439074  0.94464328  1
  Se  Se187  1  0.25587703  0.25642328  0.29605483  1
  Se  Se188  1  0.24693532  0.24600411  0.80096689  1
  Se  Se189  1  0.25810418  0.58290840  0.29769637  1
  Se  Se190  1  0.24234837  0.57353485  0.81644490  1
  Se  Se191  1  0.23475255  0.91201465  0.29846670  1
  Se  Se192  1  0.25662877  0.90877287  0.80453917  1
  Se  Se193  1  0.57112396  0.23969292  0.31234800  1
  Se  Se194  1  0.58904033  0.26025694  0.80311798  1
  Se  Se195  1  0.58518816  0.57634040  0.29906920  1
  Se  Se196  1  0.56867203  0.58936083  0.81319614  1
  Se  Se197  1  0.57976186  0.91418063  0.30291632  1
  Se  Se198  1  0.58558480  0.92846416  0.80515807  1
  Se  Se199  1  0.90805706  0.24343608  0.30946311  1
  Se  Se200  1  0.91577524  0.25040853  0.79666138  1
  Se  Se201  1  0.92382090  0.58476217  0.30386740  1
  Se  Se202  1  0.91888179  0.58116137  0.80100172  1
  Se  Se203  1  0.90785991  0.91249686  0.31566370  1
  Se  Se204  1  0.91461099  0.90936089  0.80459810  1
  Se  Se205  1  0.09028248  0.09904398  0.30867072  1
  Se  Se206  1  0.06152031  0.05578741  0.80778423  1
  Se  Se207  1  0.09798715  0.42493758  0.31363411  1
  Se  Se208  1  0.08110053  0.41059978  0.80375922  1
  Se  Se209  1  0.08549731  0.75793010  0.29128781  1
  Se  Se210  1  0.08281135  0.74149730  0.80305196  1
  Se  Se211  1  0.41012671  0.07277684  0.29901395  1
  Se  Se212  1  0.42116815  0.09246187  0.80764340  1
  Se  Se213  1  0.41933042  0.41123428  0.30452934  1
  Se  Se214  1  0.41269735  0.41696034  0.80305729  1
  Se  Se215  1  0.41648057  0.74754798  0.29341172  1
  Se  Se216  1  0.42235272  0.76172969  0.81256489  1
  Se  Se217  1  0.73735099  0.07706504  0.30395022  1
  Se  Se218  1  0.74812822  0.08300903  0.80137528  1
  Se  Se219  1  0.75989415  0.41611186  0.31170689  1
  Se  Se220  1  0.74830767  0.42062257  0.80030043  1
  Se  Se221  1  0.74753408  0.74580477  0.30058985  1
  Se  Se222  1  0.75273926  0.75748549  0.81393332  1
  Se  Se223  1  0.25397516  0.08225570  0.19594577  1
  Se  Se224  1  0.25503243  0.08864437  0.70596049  1
  Se  Se225  1  0.25388793  0.41150895  0.19165739  1
  Se  Se226  1  0.25357744  0.42152251  0.70080091  1
  Se  Se227  1  0.24518688  0.76342423  0.19424376  1
  Se  Se228  1  0.24681539  0.75736493  0.68644034  1
  Se  Se229  1  0.58462633  0.07772412  0.19646602  1
  Se  Se230  1  0.58697584  0.08648687  0.69989540  1
  Se  Se231  1  0.57428780  0.41110812  0.18677456  1
  Se  Se232  1  0.58299372  0.42026940  0.69911134  1
  Se  Se233  1  0.58569875  0.74081336  0.19357736  1
  Se  Se234  1  0.57169834  0.76159103  0.69455712  1
  Se  Se235  1  0.91318701  0.09463117  0.19341645  1
  Se  Se236  1  0.91612245  0.07619973  0.69921326  1
  Se  Se237  1  0.91405740  0.42111255  0.19105181  1
  Se  Se238  1  0.91751373  0.41330384  0.69370690  1
  Se  Se239  1  0.92008738  0.75139608  0.19918362  1
  Se  Se240  1  0.91507002  0.74400497  0.69768160  1
  Se  Se241  1  0.08962637  0.25086027  0.18661025  1
  Se  Se242  1  0.08723326  0.23520815  0.70765118  1
  Se  Se243  1  0.08329706  0.58174925  0.19885651  1
  Se  Se244  1  0.08028187  0.58294344  0.69951366  1
  Se  Se245  1  0.08712049  0.92321740  0.18137805  1
  Se  Se246  1  0.08554547  0.91263957  0.70082260  1
  Se  Se247  1  0.41695438  0.24951072  0.19822976  1
  Se  Se248  1  0.41993489  0.25345642  0.69715912  1
  Se  Se249  1  0.41583081  0.57951280  0.19239801  1
  Se  Se250  1  0.41899520  0.58699494  0.69391479  1
  Se  Se251  1  0.42064642  0.91564566  0.19134481  1
  Se  Se252  1  0.40881985  0.92719649  0.70095792  1
  Se  Se253  1  0.75479538  0.23873938  0.19652030  1
  Se  Se254  1  0.74780139  0.25334433  0.69621640  1
  Se  Se255  1  0.74903239  0.57973742  0.20236069  1
  Se  Se256  1  0.75104419  0.57633080  0.68601850  1
  Se  Se257  1  0.75232519  0.91709586  0.19794891  1
  Se  Se258  1  0.74343615  0.91524259  0.70012779  1
