# generated using pymatgen
data_In86Cu29Se144
_symmetry_space_group_name_H-M   'P 1'
_cell_length_a   17.57943935
_cell_length_b   17.57976044
_cell_length_c   23.44195015
_cell_angle_alpha   90.00467960
_cell_angle_beta   90.00782527
_cell_angle_gamma   89.99552174
_symmetry_Int_Tables_number   1
_chemical_formula_structural   In86Cu29Se144
_chemical_formula_sum   'In86 Cu29 Se144'
_cell_volume   7244.55483948
_cell_formula_units_Z   1
loop_
 _symmetry_equiv_pos_site_id
 _symmetry_equiv_pos_as_xyz
  1  'x, y, z'
loop_
 _atom_site_type_symbol
 _atom_site_label
 _atom_site_symmetry_multiplicity
 _atom_site_fract_x
 _atom_site_fract_y
 _atom_site_fract_z
 _atom_site_occupancy
  In  In0  1  -0.02014057  0.16576460  0.12501243  1
  In  In1  1  -0.01107708  0.16442766  0.62884960  1
  In  In2  1  0.00846842  0.50341478  0.12882230  1
  In  In3  1  -0.01109568  0.51711399  0.62493399  1
  In  In4  1  -0.00023590  0.83274782  0.12328435  1
  In  In5  1  0.00100162  0.83245144  0.63562413  1
  In  In6  1  0.34571582  0.16578807  0.12318743  1
  In  In7  1  0.34428907  0.15131897  0.63456648  1
  In  In8  1  0.31572680  0.51459900  0.14544907  1
  In  In9  1  0.34813101  0.50324428  0.61914388  1
  In  In10  1  0.32467739  0.82321254  0.11368279  1
  In  In11  1  0.34864746  0.81878617  0.63564159  1
  In  In12  1  0.66255939  0.17176608  0.10899165  1
  In  In13  1  0.65896797  0.15126349  0.61958025  1
  In  In14  1  0.67668647  0.51659571  0.12822224  1
  In  In15  1  0.67338509  0.50779266  0.61687015  1
  In  In16  1  0.65766109  0.81247298  0.10560430  1
  In  In17  1  0.65608168  0.84466140  0.63667572  1
  In  In18  1  0.16110580  0.00928789  0.36939080  1
  In  In19  1  0.15456347  -0.01532642  0.86977586  1
  In  In20  1  0.17697595  0.33101992  0.36654401  1
  In  In21  1  0.17645429  0.34219275  0.88156080  1
  In  In22  1  0.17083738  0.66558347  0.36102064  1
  In  In23  1  0.16756459  0.67155431  0.87877308  1
  In  In24  1  0.50448647  -0.00345354  0.38756873  1
  In  In25  1  0.50032991  -0.00154099  0.87007126  1
  In  In26  1  0.49786364  0.34628501  0.38806462  1
  In  In27  1  0.49860803  0.32917808  0.88090532  1
  In  In28  1  0.49772042  0.66366074  0.37552191  1
  In  In29  1  0.51507817  0.68323507  0.86446061  1
  In  In30  1  0.84166698  0.00429164  0.37569180  1
  In  In31  1  0.83148108  -0.00567137  0.87559294  1
  In  In32  1  0.81687454  0.34656031  0.39335829  1
  In  In33  1  0.82088785  0.31930451  0.87943756  1
  In  In34  1  0.82087571  0.65677390  0.35624529  1
  In  In35  1  0.83931326  0.67036850  0.87225355  1
  In  In36  1  -0.00402919  0.16114169  0.37166754  1
  In  In37  1  -0.00706966  0.15100779  0.87478668  1
  In  In38  1  -0.01077868  0.50320680  0.36947215  1
  In  In39  1  -0.00269384  0.51893886  0.87839847  1
  In  In40  1  0.00040777  0.83385710  0.36516120  1
  In  In41  1  -0.00094619  0.83145363  0.87897240  1
  In  In42  1  0.34184128  0.17228510  0.37494824  1
  In  In43  1  0.35217193  0.16036931  0.87447909  1
  In  In44  1  0.35183770  0.51764298  0.35694132  1
  In  In45  1  0.32015932  0.50436504  0.88083410  1
  In  In46  1  0.34777666  0.82465687  0.37821536  1
  In  In47  1  0.33468881  0.83136000  0.87506684  1
  In  In48  1  0.65965574  0.17917806  0.39435407  1
  In  In49  1  0.67570483  0.16099444  0.88259735  1
  In  In50  1  0.66176776  0.50887263  0.38120164  1
  In  In51  1  0.65762794  0.50505114  0.87337399  1
  In  In52  1  0.65995457  0.82242961  0.37347696  1
  In  In53  1  0.66498218  0.82834796  0.87711993  1
  In  In54  1  0.16462505  -0.01621226  0.11852976  1
  In  In55  1  0.17168885  -0.00566579  0.63791175  1
  In  In56  1  0.16490628  0.36050372  0.12843705  1
  In  In57  1  0.17634872  0.33467858  0.62328040  1
  In  In58  1  0.16713082  0.66693819  0.12519887  1
  In  In59  1  0.16292101  0.66856787  0.63217032  1
  In  In60  1  0.50699055  -0.00005696  0.11352002  1
  In  In61  1  0.50362405  -0.00203911  0.62948213  1
  In  In62  1  0.49829835  0.32070584  0.12541990  1
  In  In63  1  0.50966290  0.33088823  0.61426405  1
  In  In64  1  0.49469240  0.66833346  0.12591552  1
  In  In65  1  0.49702717  0.67190126  0.62393324  1
  In  In66  1  0.83540082  0.00307468  0.12143727  1
  In  In67  1  0.82502526  0.00097973  0.63827223  1
  In  In68  1  0.83583647  0.33239631  0.12168542  1
  In  In69  1  0.80871021  0.32018022  0.60253765  1
  In  In70  1  0.82116574  0.67674689  0.13794111  1
  In  In71  1  0.83195894  0.66823493  0.62727493  1
  In  In72  1  -0.00404109  0.33414804  0.24654621  1
  In  In73  1  0.16688952  0.16559610  -0.00485035  1
  In  In74  1  0.67295199  -0.00324313  0.24790354  1
  In  In75  1  0.16813093  0.16680108  0.49231665  1
  In  In76  1  0.66446347  0.34009181  0.25679604  1
  In  In77  1  0.17291660  0.83039419  0.49294388  1
  In  In78  1  0.82980238  0.83499537  0.49876828  1
  In  In79  1  0.66487344  0.33221388  0.74977514  1
  In  In80  1  -0.00080157  0.34359038  0.73828293  1
  In  In81  1  0.32710571  -0.00934666  0.24484427  1
  In  In82  1  0.49625080  0.49765585  0.00392339  1
  In  In83  1  0.33926342  0.33687955  0.74391183  1
  In  In84  1  0.83510635  0.50129846  0.00441549  1
  In  In85  1  0.17027303  0.49934598  0.49735878  1
  Cu  Cu86  1  0.17057974  0.16291843  0.75687715  1
  Cu  Cu87  1  0.49667564  0.50969322  0.74832491  1
  Cu  Cu88  1  0.16382871  0.83158248  0.24208622  1
  Cu  Cu89  1  0.00644480  0.67169265  0.00190733  1
  Cu  Cu90  1  -0.00444527  0.33220026  0.00507988  1
  Cu  Cu91  1  0.33989863  -0.00321268  -0.00442013  1
  Cu  Cu92  1  -0.00668456  0.66871492  0.49685055  1
  Cu  Cu93  1  -0.00262912  0.00546889  0.50411296  1
  Cu  Cu94  1  -0.00467295  0.33907043  0.50021749  1
  Cu  Cu95  1  0.66698075  0.00056951  0.50980831  1
  Cu  Cu96  1  0.83497103  0.82914422  0.75680072  1
  Cu  Cu97  1  0.49792417  0.16399766  0.25009604  1
  Cu  Cu98  1  0.33686794  0.66703828  0.00082404  1
  Cu  Cu99  1  0.49764308  0.83433539  0.75212378  1
  Cu  Cu100  1  0.82910159  0.16895006  0.25171400  1
  Cu  Cu101  1  0.16517833  0.83317126  0.75721830  1
  Cu  Cu102  1  0.65816198  0.67009021  0.49847878  1
  Cu  Cu103  1  0.83480813  0.16012753  0.75353821  1
  Cu  Cu104  1  0.83638421  0.83653751  0.24666497  1
  Cu  Cu105  1  0.34063245  0.33040154  0.49813405  1
  Cu  Cu106  1  0.83090182  0.50627148  0.74462254  1
  Cu  Cu107  1  0.32967440  0.33823898  0.00491221  1
  Cu  Cu108  1  0.49672614  0.82519533  0.24489863  1
  Cu  Cu109  1  0.50348719  0.49888273  0.25613808  1
  Cu  Cu110  1  0.66822315  -0.00597867  -0.00645614  1
  Cu  Cu111  1  0.16059232  0.16541123  0.24783863  1
  Cu  Cu112  1  -0.00677310  -0.00384312  -0.00273744  1
  Cu  Cu113  1  0.16297279  0.51254068  0.75514539  1
  Cu  Cu114  1  0.34160337  -0.00506766  0.50915414  1
  Se  Se115  1  0.07338057  0.08036694  0.05738208  1
  Se  Se116  1  0.08619459  0.07906861  0.56219981  1
  Se  Se117  1  0.07821944  0.42063412  0.05162990  1
  Se  Se118  1  0.07658721  0.41392400  0.56215889  1
  Se  Se119  1  0.08999899  0.75441701  0.05588936  1
  Se  Se120  1  0.07479381  0.74751923  0.55599038  1
  Se  Se121  1  0.41813289  0.08355067  0.04973738  1
  Se  Se122  1  0.42334602  0.08391524  0.55729427  1
  Se  Se123  1  0.40582493  0.41697312  0.06896680  1
  Se  Se124  1  0.42254634  0.41583052  0.55058431  1
  Se  Se125  1  0.42286432  0.75104600  0.05069462  1
  Se  Se126  1  0.41377387  0.75122970  0.55312741  1
  Se  Se127  1  0.74707537  0.07858827  0.05180997  1
  Se  Se128  1  0.76032397  0.07822237  0.55753485  1
  Se  Se129  1  0.73751444  0.41192506  0.05983891  1
  Se  Se130  1  0.75159996  0.42823939  0.54457911  1
  Se  Se131  1  0.76484959  0.74454344  0.05066701  1
  Se  Se132  1  0.73716283  0.75160399  0.56063755  1
  Se  Se133  1  0.24783563  0.25437753  0.06298618  1
  Se  Se134  1  0.26200308  0.24808144  0.55803630  1
  Se  Se135  1  0.25656421  0.58411324  0.05814681  1
  Se  Se136  1  0.25261925  0.59200086  0.55967648  1
  Se  Se137  1  0.25150846  0.91604703  0.04613554  1
  Se  Se138  1  0.25397653  0.91658343  0.56262564  1
  Se  Se139  1  0.57024932  0.24875612  0.04714991  1
  Se  Se140  1  0.60648081  0.25748655  0.55434088  1
  Se  Se141  1  0.59075811  0.59160271  0.05545448  1
  Se  Se142  1  0.57853741  0.58574554  0.55443765  1
  Se  Se143  1  0.58228109  0.91167302  0.04578778  1
  Se  Se144  1  0.58156154  0.91368856  0.55654581  1
  Se  Se145  1  0.90837434  0.24645259  0.04935914  1
  Se  Se146  1  0.92185220  0.24859073  0.55396159  1
  Se  Se147  1  0.92367075  0.59301413  0.06287222  1
  Se  Se148  1  0.90748251  0.58923731  0.55036526  1
  Se  Se149  1  0.91357092  0.91378787  0.05463316  1
  Se  Se150  1  0.92141937  0.91989291  0.56232637  1
  Se  Se151  1  0.07595251  0.26248141  0.43770343  1
  Se  Se152  1  0.07251896  0.25663268  0.93735746  1
  Se  Se153  1  0.07976843  0.59188394  0.43911288  1
  Se  Se154  1  0.08769720  0.58459881  0.94968999  1
  Se  Se155  1  0.07505325  0.92618217  0.44218415  1
  Se  Se156  1  0.08277392  0.91372225  0.94990288  1
  Se  Se157  1  0.42451671  0.24359529  0.44836234  1
  Se  Se158  1  0.40885148  0.25469368  0.94908256  1
  Se  Se159  1  0.42248492  0.57198975  0.44270780  1
  Se  Se160  1  0.41746872  0.59032731  0.93795229  1
  Se  Se161  1  0.41821038  0.91091971  0.45057806  1
  Se  Se162  1  0.42187733  0.91335093  0.94172270  1
  Se  Se163  1  0.77285900  0.23110776  0.45088342  1
  Se  Se164  1  0.74386954  0.25060410  0.95494973  1
  Se  Se165  1  0.74962000  0.59757016  0.44294569  1
  Se  Se166  1  0.74671544  0.58691760  0.94053630  1
  Se  Se167  1  0.73854987  0.92594953  0.43811968  1
  Se  Se168  1  0.75370900  0.90852220  0.94529757  1
  Se  Se169  1  0.26349310  0.06933865  0.44159054  1
  Se  Se170  1  0.25440626  0.07459879  0.93554990  1
  Se  Se171  1  0.26043333  0.40963332  0.43862844  1
  Se  Se172  1  0.24568374  0.42475842  0.95641292  1
  Se  Se173  1  0.25894975  0.73165908  0.44027580  1
  Se  Se174  1  0.25238404  0.75170620  0.94786401  1
  Se  Se175  1  0.58160418  0.08331185  0.45519184  1
  Se  Se176  1  0.58232261  0.07859126  0.94320464  1
  Se  Se177  1  0.61234291  0.39804184  0.44340847  1
  Se  Se178  1  0.59272871  0.40960345  0.94529808  1
  Se  Se179  1  0.57451644  0.75344099  0.44601492  1
  Se  Se180  1  0.58257951  0.74708855  0.94757167  1
  Se  Se181  1  0.91735872  0.08745628  0.44839651  1
  Se  Se182  1  0.90886614  0.08236759  0.94807647  1
  Se  Se183  1  0.91775489  0.42726516  0.44781072  1
  Se  Se184  1  0.92000467  0.41054884  0.93723406  1
  Se  Se185  1  0.91571860  0.74790879  0.43454993  1
  Se  Se186  1  0.91687259  0.74700332  0.94765682  1
  Se  Se187  1  0.25140213  0.23745126  0.30190407  1
  Se  Se188  1  0.24882156  0.25052246  0.81029499  1
  Se  Se189  1  0.24343389  0.57220451  0.29657749  1
  Se  Se190  1  0.25153514  0.58956516  0.80721193  1
  Se  Se191  1  0.24139496  0.90424835  0.31231773  1
  Se  Se192  1  0.25340215  0.91716961  0.80533915  1
  Se  Se193  1  0.57587088  0.24326458  0.31200900  1
  Se  Se194  1  0.57983616  0.24284691  0.81228198  1
  Se  Se195  1  0.58603899  0.58602668  0.30573366  1
  Se  Se196  1  0.58784510  0.58684379  0.79878981  1
  Se  Se197  1  0.57151139  0.91266152  0.30444607  1
  Se  Se198  1  0.58630903  0.91225866  0.80542941  1
  Se  Se199  1  0.90399788  0.25375089  0.31241756  1
  Se  Se200  1  0.91530916  0.25081399  0.80491864  1
  Se  Se201  1  0.92999971  0.59695531  0.29865620  1
  Se  Se202  1  0.91680549  0.58397244  0.80043600  1
  Se  Se203  1  0.91476501  0.92170891  0.30233627  1
  Se  Se204  1  0.91915913  0.91476048  0.80780014  1
  Se  Se205  1  0.07565223  0.08239236  0.29821256  1
  Se  Se206  1  0.08128975  0.08121079  0.80447760  1
  Se  Se207  1  0.08818483  0.42077349  0.30666906  1
  Se  Se208  1  0.08700664  0.42277376  0.80995465  1
  Se  Se209  1  0.08216739  0.74939052  0.29858578  1
  Se  Se210  1  0.08087858  0.74828757  0.80854196  1
  Se  Se211  1  0.42238479  0.07548889  0.30717891  1
  Se  Se212  1  0.42118753  0.08310720  0.79920954  1
  Se  Se213  1  0.42312414  0.40734101  0.30444097  1
  Se  Se214  1  0.42283706  0.42626372  0.81144813  1
  Se  Se215  1  0.41535875  0.74437052  0.30141365  1
  Se  Se216  1  0.41216864  0.74789745  0.80174846  1
  Se  Se217  1  0.74618626  0.09378402  0.31419843  1
  Se  Se218  1  0.74909656  0.08094534  0.80720813  1
  Se  Se219  1  0.75962628  0.42914588  0.30991122  1
  Se  Se220  1  0.75887840  0.42320583  0.80889853  1
  Se  Se221  1  0.74593879  0.75850757  0.29841931  1
  Se  Se222  1  0.74756778  0.74565508  0.80561370  1
  Se  Se223  1  0.24093682  0.08634834  0.18498828  1
  Se  Se224  1  0.25476924  0.08051212  0.70362849  1
  Se  Se225  1  0.26309461  0.39966755  0.20255430  1
  Se  Se226  1  0.24233765  0.43275924  0.69257520  1
  Se  Se227  1  0.25424809  0.75116853  0.19386651  1
  Se  Se228  1  0.24549043  0.75239152  0.69854586  1
  Se  Se229  1  0.58111782  0.09008526  0.18926096  1
  Se  Se230  1  0.59222198  0.07558087  0.69745621  1
  Se  Se231  1  0.57857070  0.42407389  0.18805027  1
  Se  Se232  1  0.57716531  0.42595131  0.69000686  1
  Se  Se233  1  0.58653235  0.74948299  0.19108403  1
  Se  Se234  1  0.57942916  0.74841293  0.69787234  1
  Se  Se235  1  0.90957514  0.08243917  0.19944639  1
  Se  Se236  1  0.92143240  0.07803274  0.70184563  1
  Se  Se237  1  0.90381255  0.42744277  0.19122289  1
  Se  Se238  1  0.89681873  0.41912321  0.67998602  1
  Se  Se239  1  0.92208176  0.75122885  0.19684619  1
  Se  Se240  1  0.91530627  0.74700668  0.69816286  1
  Se  Se241  1  0.08606240  0.24527327  0.18339101  1
  Se  Se242  1  0.09660393  0.24250598  0.69134600  1
  Se  Se243  1  0.09999987  0.57350676  0.19556811  1
  Se  Se244  1  0.07549660  0.58664418  0.69777716  1
  Se  Se245  1  0.08052478  0.91962185  0.19454669  1
  Se  Se246  1  0.08106925  0.91728823  0.70321643  1
  Se  Se247  1  0.41415382  0.24840942  0.19978231  1
  Se  Se248  1  0.43508039  0.24643781  0.69230112  1
  Se  Se249  1  0.42289287  0.58461441  0.20039311  1
  Se  Se250  1  0.41131136  0.58901823  0.69462848  1
  Se  Se251  1  0.42324341  0.91025500  0.18368230  1
  Se  Se252  1  0.41526909  0.91977574  0.69884700  1
  Se  Se253  1  0.74752566  0.24526491  0.19075359  1
  Se  Se254  1  0.75703086  0.24201335  0.69149670  1
  Se  Se255  1  0.75087265  0.58458760  0.20609297  1
  Se  Se256  1  0.74317009  0.58808835  0.69434435  1
  Se  Se257  1  0.75023437  0.90510895  0.18277078  1
  Se  Se258  1  0.74930805  0.91360673  0.70569538  1
