# generated using pymatgen
data_In86Cu29Se144
_symmetry_space_group_name_H-M   'P 1'
_cell_length_a   17.56811745
_cell_length_b   17.57012166
_cell_length_c   23.43120887
_cell_angle_alpha   90.00122304
_cell_angle_beta   89.99343056
_cell_angle_gamma   89.99881295
_symmetry_Int_Tables_number   1
_chemical_formula_structural   In86Cu29Se144
_chemical_formula_sum   'In86 Cu29 Se144'
_cell_volume   7232.60399917
_cell_formula_units_Z   1
loop_
 _symmetry_equiv_pos_site_id
 _symmetry_equiv_pos_as_xyz
  1  'x, y, z'
loop_
 _atom_site_type_symbol
 _atom_site_label
 _atom_site_symmetry_multiplicity
 _atom_site_fract_x
 _atom_site_fract_y
 _atom_site_fract_z
 _atom_site_occupancy
  In  In0  1  0.00520830  0.16099692  0.13650209  1
  In  In1  1  -0.00305504  0.16148192  0.63041255  1
  In  In2  1  -0.00766302  0.49675504  0.13001049  1
  In  In3  1  -0.01697161  0.51384517  0.62666828  1
  In  In4  1  0.00920871  0.84073282  0.11518044  1
  In  In5  1  -0.00510810  0.83952241  0.63995202  1
  In  In6  1  0.32580497  0.14891308  0.12055259  1
  In  In7  1  0.34452361  0.17302889  0.61349821  1
  In  In8  1  0.34532155  0.50312937  0.13230396  1
  In  In9  1  0.33421459  0.49743162  0.62571005  1
  In  In10  1  0.32875798  0.83361073  0.12384262  1
  In  In11  1  0.33350152  0.81183208  0.62468362  1
  In  In12  1  0.65327652  0.17412067  0.12469462  1
  In  In13  1  0.68156622  0.18012693  0.61966288  1
  In  In14  1  0.66738190  0.49856561  0.12533516  1
  In  In15  1  0.66552998  0.50020984  0.62549162  1
  In  In16  1  0.67020904  0.83890301  0.11475105  1
  In  In17  1  0.66103756  0.83076712  0.62566871  1
  In  In18  1  0.17587152  0.00604887  0.37056659  1
  In  In19  1  0.16101035  -0.00050182  0.87617558  1
  In  In20  1  0.14016338  0.34273194  0.37785083  1
  In  In21  1  0.16703230  0.32550031  0.86243827  1
  In  In22  1  0.17800042  0.65415615  0.37667400  1
  In  In23  1  0.17473861  0.68930744  0.84948771  1
  In  In24  1  0.49099781  0.00517615  0.38060057  1
  In  In25  1  0.49651240  0.00089446  0.88499003  1
  In  In26  1  0.50415303  0.33012049  0.38391922  1
  In  In27  1  0.49789850  0.33110916  0.86238524  1
  In  In28  1  0.47388469  0.68843856  0.40010212  1
  In  In29  1  0.51153629  0.67347928  0.86506367  1
  In  In30  1  0.84559309  -0.00835040  0.38310711  1
  In  In31  1  0.83697337  -0.01207257  0.86631279  1
  In  In32  1  0.84390631  0.32193654  0.39070765  1
  In  In33  1  0.83854006  0.33532026  0.85438196  1
  In  In34  1  0.84093595  0.66990283  0.39995079  1
  In  In35  1  0.86045377  0.70789442  0.83265104  1
  In  In36  1  0.00067416  0.16695595  0.38174896  1
  In  In37  1  -0.00580157  0.16167164  0.85431790  1
  In  In38  1  0.00805752  0.49086183  0.38327489  1
  In  In39  1  -0.00022594  0.49677872  0.86759682  1
  In  In40  1  -0.01127858  0.83277520  0.37973137  1
  In  In41  1  0.00241088  0.84069005  0.86581823  1
  In  In42  1  0.33807208  0.16026602  0.38226689  1
  In  In43  1  0.33250058  0.16808273  0.87281165  1
  In  In44  1  0.32570299  0.52143099  0.38108603  1
  In  In45  1  0.33486031  0.50440556  0.86561980  1
  In  In46  1  0.33037422  0.83702883  0.37297130  1
  In  In47  1  0.34295510  0.82875661  0.88147462  1
  In  In48  1  0.66333954  0.17125459  0.38558655  1
  In  In49  1  0.65820096  0.16092862  0.86537693  1
  In  In50  1  0.66548424  0.50251010  0.38887831  1
  In  In51  1  0.67667493  0.51010571  0.86268145  1
  In  In52  1  0.67289035  0.82809326  0.38239270  1
  In  In53  1  0.66975416  0.83138437  0.87437938  1
  In  In54  1  0.17643088  -0.01313614  0.14073397  1
  In  In55  1  0.14362112  -0.00489624  0.63182384  1
  In  In56  1  0.16154696  0.31994861  0.12684298  1
  In  In57  1  0.17610729  0.32602939  0.62597005  1
  In  In58  1  0.16374994  0.68556990  0.12199222  1
  In  In59  1  0.16626168  0.67173800  0.63762045  1
  In  In60  1  0.47651945  -0.02153866  0.10295573  1
  In  In61  1  0.49968652  -0.00314924  0.61482740  1
  In  In62  1  0.50784834  0.33070476  0.12250206  1
  In  In63  1  0.49921214  0.33481174  0.62358773  1
  In  In64  1  0.48425036  0.67033068  0.12748154  1
  In  In65  1  0.49445778  0.66805374  0.62188650  1
  In  In66  1  0.84463479  -0.00239113  0.12757491  1
  In  In67  1  0.83949695  0.00348642  0.62724555  1
  In  In68  1  0.84046213  0.34277521  0.12935759  1
  In  In69  1  0.82996615  0.32914875  0.63044142  1
  In  In70  1  0.82823614  0.66973395  0.12229113  1
  In  In71  1  0.84331282  0.67087041  0.62605672  1
  In  In72  1  0.82940280  0.50966163  -0.00290933  1
  In  In73  1  0.50323499  0.50621995  0.00473959  1
  In  In74  1  0.16580815  0.15282159  -0.00736584  1
  In  In75  1  0.67342790  0.00137735  0.74671615  1
  In  In76  1  0.66521093  0.66577922  0.25306067  1
  In  In77  1  0.16203826  0.83333279  0.50842000  1
  In  In78  1  0.33076736  -0.00010973  0.75313448  1
  In  In79  1  0.00807206  0.66282247  0.25585180  1
  In  In80  1  0.32397952  0.33452074  0.25270651  1
  In  In81  1  0.66229878  0.00399533  0.25718966  1
  In  In82  1  0.16513610  0.50326208  0.50660788  1
  In  In83  1  0.16176311  0.50756311  -0.00417530  1
  In  In84  1  0.67001559  0.33118695  0.24827489  1
  In  In85  1  0.82653199  0.15925639  -0.00457992  1
  Cu  Cu86  1  0.15731112  0.17230859  0.25643818  1
  Cu  Cu87  1  0.49296515  0.51062457  0.26403953  1
  Cu  Cu88  1  0.16884768  0.83772672  0.24901414  1
  Cu  Cu89  1  0.84497710  0.16719191  0.26017625  1
  Cu  Cu90  1  0.32758646  -0.00411699  0.50058106  1
  Cu  Cu91  1  0.49768686  0.83142832  0.74951899  1
  Cu  Cu92  1  -0.00430476  0.68052925  -0.01618892  1
  Cu  Cu93  1  0.67025674  -0.00409598  0.50282011  1
  Cu  Cu94  1  0.67299021  0.67874997  -0.00919875  1
  Cu  Cu95  1  0.49733409  0.50030125  0.74256300  1
  Cu  Cu96  1  0.32986930  0.67178121  -0.00214203  1
  Cu  Cu97  1  0.50529161  0.17184348  0.74062469  1
  Cu  Cu98  1  0.66674095  0.00068465  -0.00872694  1
  Cu  Cu99  1  0.33441685  0.33211209  0.50074049  1
  Cu  Cu100  1  -0.00340035  0.32481433  -0.00290135  1
  Cu  Cu101  1  0.16504203  0.49251124  0.74508203  1
  Cu  Cu102  1  -0.00017671  0.00444794  0.50586192  1
  Cu  Cu103  1  0.33646616  0.32700767  -0.01222485  1
  Cu  Cu104  1  0.49031936  0.83088306  0.25114548  1
  Cu  Cu105  1  0.82214674  0.49586282  0.73900294  1
  Cu  Cu106  1  0.84203616  0.49000096  0.26079162  1
  Cu  Cu107  1  -0.00038633  -0.01024551  -0.00099234  1
  Cu  Cu108  1  0.65876656  0.32844489  -0.01144588  1
  Cu  Cu109  1  0.84166684  0.83357956  0.25271432  1
  Cu  Cu110  1  0.48851630  0.15754318  0.24866538  1
  Cu  Cu111  1  0.17505103  0.16896373  0.74293646  1
  Cu  Cu112  1  0.66740183  0.33269897  0.50855352  1
  Cu  Cu113  1  0.66821857  0.66216881  0.51094624  1
  Cu  Cu114  1  -0.00600026  0.33029734  0.50815799  1
  Se  Se115  1  0.07503477  0.07409102  0.06036640  1
  Se  Se116  1  0.08560294  0.08694607  0.55717899  1
  Se  Se117  1  0.07496964  0.40836176  0.05584977  1
  Se  Se118  1  0.07604818  0.41250949  0.56620026  1
  Se  Se119  1  0.08298612  0.75225327  0.04473579  1
  Se  Se120  1  0.07290294  0.74525257  0.56723152  1
  Se  Se121  1  0.43288822  0.10323932  0.05562509  1
  Se  Se122  1  0.41831131  0.08059379  0.54687355  1
  Se  Se123  1  0.40711579  0.40705656  0.05539802  1
  Se  Se124  1  0.41519305  0.41729133  0.55403704  1
  Se  Se125  1  0.41500028  0.75208902  0.05293759  1
  Se  Se126  1  0.42408989  0.75730985  0.54953413  1
  Se  Se127  1  0.73884969  0.07493360  0.06339983  1
  Se  Se128  1  0.75193023  0.07880526  0.55764724  1
  Se  Se129  1  0.74111394  0.40462963  0.05399012  1
  Se  Se130  1  0.75238446  0.41527509  0.55958206  1
  Se  Se131  1  0.75767183  0.75523357  0.05022244  1
  Se  Se132  1  0.75058441  0.75074360  0.55981977  1
  Se  Se133  1  0.25297387  0.25331297  0.05101245  1
  Se  Se134  1  0.24780593  0.24715856  0.54875121  1
  Se  Se135  1  0.25888234  0.58607000  0.06016785  1
  Se  Se136  1  0.25479987  0.59724161  0.56179880  1
  Se  Se137  1  0.24459809  0.92055384  0.05948793  1
  Se  Se138  1  0.25375682  0.92215091  0.56856195  1
  Se  Se139  1  0.57797738  0.24878396  0.04682708  1
  Se  Se140  1  0.58002636  0.24649709  0.55584906  1
  Se  Se141  1  0.59838825  0.60096421  0.06026800  1
  Se  Se142  1  0.57832205  0.57905725  0.55693752  1
  Se  Se143  1  0.58491321  0.91419999  0.04488878  1
  Se  Se144  1  0.58392812  0.91103959  0.55100294  1
  Se  Se145  1  0.91801103  0.24752954  0.06052809  1
  Se  Se146  1  0.91325849  0.24437941  0.56097439  1
  Se  Se147  1  0.93083668  0.59553884  0.05397582  1
  Se  Se148  1  0.91204368  0.58729750  0.54919328  1
  Se  Se149  1  0.90906095  0.91229805  0.05163529  1
  Se  Se150  1  0.92295379  0.91634381  0.56081996  1
  Se  Se151  1  0.08071498  0.25241467  0.45267850  1
  Se  Se152  1  0.07558841  0.24747963  0.93554948  1
  Se  Se153  1  0.07588576  0.59712700  0.44747930  1
  Se  Se154  1  0.07936249  0.59554375  0.93002191  1
  Se  Se155  1  0.08115405  0.92560578  0.44241913  1
  Se  Se156  1  0.08440860  0.91112782  0.94399716  1
  Se  Se157  1  0.41884424  0.24666604  0.44884271  1
  Se  Se158  1  0.42385796  0.24803961  0.93706283  1
  Se  Se159  1  0.42524250  0.56870284  0.45206109  1
  Se  Se160  1  0.41333321  0.59032297  0.94022251  1
  Se  Se161  1  0.41191077  0.91453330  0.44604588  1
  Se  Se162  1  0.41834704  0.91511010  0.95035603  1
  Se  Se163  1  0.74995635  0.24658595  0.45479071  1
  Se  Se164  1  0.74869007  0.25671457  0.93122310  1
  Se  Se165  1  0.75295932  0.57941737  0.45702481  1
  Se  Se166  1  0.75346368  0.60032182  0.93162154  1
  Se  Se167  1  0.75467837  0.91395488  0.44810180  1
  Se  Se168  1  0.75260726  0.91877140  0.94042032  1
  Se  Se169  1  0.24671307  0.08281393  0.44904465  1
  Se  Se170  1  0.26723386  0.06718045  0.94155957  1
  Se  Se171  1  0.25126563  0.41210636  0.44083269  1
  Se  Se172  1  0.25153416  0.41140704  0.93633208  1
  Se  Se173  1  0.25343546  0.74645019  0.44613088  1
  Se  Se174  1  0.24361156  0.74551610  0.93895550  1
  Se  Se175  1  0.58512226  0.07752774  0.44718107  1
  Se  Se176  1  0.58501397  0.09050135  0.94477306  1
  Se  Se177  1  0.58322121  0.41397525  0.45264492  1
  Se  Se178  1  0.58657052  0.42235517  0.93436099  1
  Se  Se179  1  0.59108373  0.74635012  0.45119871  1
  Se  Se180  1  0.57859628  0.75536193  0.94297223  1
  Se  Se181  1  0.91541561  0.08609238  0.45057015  1
  Se  Se182  1  0.92670652  0.07786970  0.93768535  1
  Se  Se183  1  0.91837977  0.41952166  0.45329145  1
  Se  Se184  1  0.91518772  0.40863348  0.94124951  1
  Se  Se185  1  0.91823610  0.76381014  0.46002808  1
  Se  Se186  1  0.90799779  0.75986429  0.93134420  1
  Se  Se187  1  0.23873306  0.24860813  0.31878800  1
  Se  Se188  1  0.26000819  0.24832977  0.79778534  1
  Se  Se189  1  0.24405393  0.57502388  0.29931319  1
  Se  Se190  1  0.24674561  0.58045525  0.79745737  1
  Se  Se191  1  0.25436099  0.92085806  0.30098849  1
  Se  Se192  1  0.24656542  0.90781681  0.81274615  1
  Se  Se193  1  0.57443025  0.23920930  0.30472293  1
  Se  Se194  1  0.58857223  0.25251592  0.79626217  1
  Se  Se195  1  0.57778105  0.58753715  0.32119820  1
  Se  Se196  1  0.58254511  0.58289532  0.79619609  1
  Se  Se197  1  0.57589021  0.90477413  0.31276284  1
  Se  Se198  1  0.57336437  0.91875293  0.80666647  1
  Se  Se199  1  0.92309128  0.25659947  0.31091375  1
  Se  Se200  1  0.92877117  0.25927258  0.79077724  1
  Se  Se201  1  0.90974776  0.58277708  0.31841186  1
  Se  Se202  1  0.89831806  0.56837569  0.80730769  1
  Se  Se203  1  0.92262777  0.92004618  0.30445225  1
  Se  Se204  1  0.93316939  0.93442551  0.79437198  1
  Se  Se205  1  0.07916484  0.08409812  0.30948416  1
  Se  Se206  1  0.09702703  0.08475498  0.80009399  1
  Se  Se207  1  0.09026446  0.43623454  0.30247662  1
  Se  Se208  1  0.08100944  0.41147611  0.80023921  1
  Se  Se209  1  0.09455116  0.75916379  0.31548842  1
  Se  Se210  1  0.05099979  0.73069215  0.79856472  1
  Se  Se211  1  0.40798603  0.07748387  0.30541507  1
  Se  Se212  1  0.43133140  0.08961672  0.80401136  1
  Se  Se213  1  0.41779659  0.41769318  0.31602323  1
  Se  Se214  1  0.41390899  0.41765362  0.79848772  1
  Se  Se215  1  0.41368223  0.74628692  0.30864245  1
  Se  Se216  1  0.41355914  0.74906318  0.80370439  1
  Se  Se217  1  0.75696845  0.09165227  0.31611042  1
  Se  Se218  1  0.76457189  0.09301201  0.80446528  1
  Se  Se219  1  0.75252159  0.41522745  0.31759475  1
  Se  Se220  1  0.74033245  0.41201295  0.79492673  1
  Se  Se221  1  0.76509222  0.74833239  0.31169750  1
  Se  Se222  1  0.72698108  0.74512303  0.79721980  1
  Se  Se223  1  0.24311584  0.09204088  0.20135597  1
  Se  Se224  1  0.25192767  0.08633746  0.68251352  1
  Se  Se225  1  0.23991381  0.42243007  0.18671603  1
  Se  Se226  1  0.25370276  0.41273156  0.69470805  1
  Se  Se227  1  0.24984184  0.75091679  0.19692797  1
  Se  Se228  1  0.25039641  0.75474338  0.70414026  1
  Se  Se229  1  0.57237136  0.08103933  0.18865654  1
  Se  Se230  1  0.58136007  0.08627910  0.68334616  1
  Se  Se231  1  0.57081176  0.43004930  0.19847699  1
  Se  Se232  1  0.58259635  0.41484015  0.69378544  1
  Se  Se233  1  0.58050223  0.75980559  0.19011189  1
  Se  Se234  1  0.57795716  0.74864979  0.69422000  1
  Se  Se235  1  0.91757006  0.07889758  0.20180044  1
  Se  Se236  1  0.93458215  0.06292164  0.70025941  1
  Se  Se237  1  0.92485220  0.41000154  0.20466672  1
  Se  Se238  1  0.91718371  0.41653063  0.69447548  1
  Se  Se239  1  0.91742203  0.75048604  0.19107289  1
  Se  Se240  1  0.92664864  0.73773329  0.70502381  1
  Se  Se241  1  0.07554493  0.25696879  0.20289868  1
  Se  Se242  1  0.08590992  0.24909860  0.69350372  1
  Se  Se243  1  0.09207338  0.58023585  0.18565381  1
  Se  Se244  1  0.08156633  0.57778346  0.69524628  1
  Se  Se245  1  0.07402504  0.91298391  0.19910526  1
  Se  Se246  1  0.09934585  0.89831013  0.70559379  1
  Se  Se247  1  0.41639188  0.24771478  0.18962970  1
  Se  Se248  1  0.41374232  0.25079949  0.69223579  1
  Se  Se249  1  0.41431773  0.59101592  0.20493241  1
  Se  Se250  1  0.41246464  0.58601887  0.69365847  1
  Se  Se251  1  0.41611712  0.91691328  0.19227269  1
  Se  Se252  1  0.42066824  0.91358994  0.68954108  1
  Se  Se253  1  0.76298832  0.23689327  0.19146527  1
  Se  Se254  1  0.75222351  0.24475882  0.70139236  1
  Se  Se255  1  0.76315951  0.56987058  0.19698152  1
  Se  Se256  1  0.74877547  0.59021666  0.68939482  1
  Se  Se257  1  0.75281602  0.91007587  0.19636142  1
  Se  Se258  1  0.76032544  0.90478444  0.69300745  1
