# generated using pymatgen
data_In86Cu29Se144
_symmetry_space_group_name_H-M   'P 1'
_cell_length_a   17.62212658
_cell_length_b   17.63214392
_cell_length_c   23.49355455
_cell_angle_alpha   89.95853696
_cell_angle_beta   89.99333890
_cell_angle_gamma   90.01842701
_symmetry_Int_Tables_number   1
_chemical_formula_structural   In86Cu29Se144
_chemical_formula_sum   'In86 Cu29 Se144'
_cell_volume   7299.81795447
_cell_formula_units_Z   1
loop_
 _symmetry_equiv_pos_site_id
 _symmetry_equiv_pos_as_xyz
  1  'x, y, z'
loop_
 _atom_site_type_symbol
 _atom_site_label
 _atom_site_symmetry_multiplicity
 _atom_site_fract_x
 _atom_site_fract_y
 _atom_site_fract_z
 _atom_site_occupancy
  In  In0  1  -0.00496263  0.17756617  0.12303252  1
  In  In1  1  0.00689932  0.15503255  0.63011019  1
  In  In2  1  0.00645437  0.50555300  0.11714854  1
  In  In3  1  0.01295704  0.50638178  0.61749870  1
  In  In4  1  0.00368120  0.83588200  0.11477984  1
  In  In5  1  0.01423598  0.82648391  0.62679683  1
  In  In6  1  0.34528375  0.16793705  0.12354289  1
  In  In7  1  0.33596937  0.17094219  0.63308763  1
  In  In8  1  0.32467409  0.50266973  0.13554574  1
  In  In9  1  0.33534914  0.50593854  0.62061538  1
  In  In10  1  0.32684359  0.82684183  0.11591913  1
  In  In11  1  0.34159092  0.83322478  0.62409488  1
  In  In12  1  0.66564327  0.17241619  0.11670841  1
  In  In13  1  0.65860531  0.18538950  0.63840992  1
  In  In14  1  0.67180731  0.49488655  0.13128768  1
  In  In15  1  0.64776470  0.51827685  0.63729439  1
  In  In16  1  0.65560932  0.82230908  0.11623472  1
  In  In17  1  0.64722654  0.82730285  0.61948410  1
  In  In18  1  0.18183810  -0.01308373  0.38325860  1
  In  In19  1  0.17293567  -0.00720827  0.87071359  1
  In  In20  1  0.17714907  0.32819768  0.38120474  1
  In  In21  1  0.18052937  0.33653074  0.87091481  1
  In  In22  1  0.21251811  0.62647521  0.43100857  1
  In  In23  1  0.17256518  0.66460586  0.87808544  1
  In  In24  1  0.49322101  0.00511809  0.38489609  1
  In  In25  1  0.48511492  0.00729193  0.87304897  1
  In  In26  1  0.50097463  0.33769122  0.37603577  1
  In  In27  1  0.49622626  0.32422128  0.86131670  1
  In  In28  1  0.50072899  0.66057280  0.37932071  1
  In  In29  1  0.50391249  0.67305889  0.86864144  1
  In  In30  1  0.83394515  -0.00640739  0.37018264  1
  In  In31  1  0.84226026  -0.00331122  0.89095144  1
  In  In32  1  0.82508498  0.34477529  0.37312912  1
  In  In33  1  0.82331065  0.34311100  0.88451604  1
  In  In34  1  0.82705508  0.66844536  0.36444077  1
  In  In35  1  0.82782458  0.67283133  0.88195947  1
  In  In36  1  0.00595609  0.17026499  0.37550354  1
  In  In37  1  -0.00286821  0.15380872  0.88011607  1
  In  In38  1  0.02370392  0.51049181  0.37702769  1
  In  In39  1  0.00181734  0.49832743  0.88251373  1
  In  In40  1  0.01007016  0.82830640  0.37309177  1
  In  In41  1  0.00831985  0.83533339  0.88590906  1
  In  In42  1  0.32969507  0.17352141  0.38543041  1
  In  In43  1  0.34888943  0.18202898  0.84918569  1
  In  In44  1  0.33986129  0.49710512  0.37700116  1
  In  In45  1  0.32506223  0.49624943  0.86929181  1
  In  In46  1  0.36366754  0.79519796  0.41290554  1
  In  In47  1  0.33657651  0.83023481  0.87330919  1
  In  In48  1  0.64968454  0.17526198  0.37918534  1
  In  In49  1  0.65241414  0.17680527  0.87928827  1
  In  In50  1  0.66133536  0.49736133  0.36899311  1
  In  In51  1  0.66684877  0.50671622  0.87070951  1
  In  In52  1  0.66116174  0.81974531  0.37212631  1
  In  In53  1  0.67119632  0.82517112  0.88040898  1
  In  In54  1  0.17786492  -0.00711220  0.12181406  1
  In  In55  1  0.19477401  0.02431568  0.61853651  1
  In  In56  1  0.16699849  0.33988575  0.12632724  1
  In  In57  1  0.18044892  0.34078747  0.62100325  1
  In  In58  1  0.17307390  0.66623393  0.12309260  1
  In  In59  1  0.20032214  0.70598879  0.58255958  1
  In  In60  1  0.50340622  0.00118431  0.11511917  1
  In  In61  1  0.48792925  -0.00551347  0.62487800  1
  In  In62  1  0.50167363  0.33393022  0.12913075  1
  In  In63  1  0.49455825  0.33561169  0.62757280  1
  In  In64  1  0.48805320  0.67221362  0.13226162  1
  In  In65  1  0.49895142  0.66530920  0.61556912  1
  In  In66  1  0.83632976  0.00073925  0.10679920  1
  In  In67  1  0.82966661  0.00009275  0.63056138  1
  In  In68  1  0.82034696  0.32673965  0.11564979  1
  In  In69  1  0.82884718  0.32936059  0.62935206  1
  In  In70  1  0.82759043  0.65632711  0.11700805  1
  In  In71  1  0.82085883  0.66069886  0.62642601  1
  In  In72  1  0.00702748  -0.00623752  0.75985962  1
  In  In73  1  0.33429807  -0.00521892  0.24801482  1
  In  In74  1  0.66428440  -0.00396244  0.24241311  1
  In  In75  1  0.83190165  0.83877603  0.50004297  1
  In  In76  1  0.00622462  0.66534554  0.24738719  1
  In  In77  1  0.00368299  0.66323543  0.75115235  1
  In  In78  1  0.66536049  -0.00066109  0.75754922  1
  In  In79  1  0.16567054  0.15848506  -0.00630380  1
  In  In80  1  0.00290602  0.33492447  0.74464192  1
  In  In81  1  0.83290898  0.49546135  0.49274923  1
  In  In82  1  0.83571359  0.16455213  0.50756639  1
  In  In83  1  0.00237057  0.00076987  0.23510085  1
  In  In84  1  0.49669976  0.50102593  0.00216050  1
  In  In85  1  -0.00583662  0.33598174  0.25597299  1
  Cu  Cu86  1  0.66202075  -0.00287673  -0.00689962  1
  Cu  Cu87  1  0.81576021  0.17061507  0.24563095  1
  Cu  Cu88  1  0.18126801  0.82058543  0.25411549  1
  Cu  Cu89  1  0.83029397  0.17112225  0.76097854  1
  Cu  Cu90  1  0.65841981  0.33240754  0.00102131  1
  Cu  Cu91  1  -0.00414771  0.33520597  0.00043681  1
  Cu  Cu92  1  0.49762176  0.50460414  0.25406948  1
  Cu  Cu93  1  0.49693132  0.50044423  0.74556210  1
  Cu  Cu94  1  0.16781119  0.16458709  0.26160681  1
  Cu  Cu95  1  0.33176529  0.66895666  0.00178954  1
  Cu  Cu96  1  0.01292921  0.32958129  0.50035082  1
  Cu  Cu97  1  0.82550834  0.82526412  0.75450251  1
  Cu  Cu98  1  0.49566936  0.17844502  0.25147328  1
  Cu  Cu99  1  0.17232407  0.51018577  0.74385548  1
  Cu  Cu100  1  0.49757864  0.82419311  0.74779968  1
  Cu  Cu101  1  0.32930050  0.00455392  0.50692247  1
  Cu  Cu102  1  0.00591274  0.66507095  0.00005209  1
  Cu  Cu103  1  0.33379620  0.33106480  -0.01070616  1
  Cu  Cu104  1  0.65998702  0.00428516  0.50311560  1
  Cu  Cu105  1  0.33434433  -0.00222896  -0.00461064  1
  Cu  Cu106  1  0.66616079  0.66354377  -0.00225663  1
  Cu  Cu107  1  0.49508247  0.82643506  0.25451863  1
  Cu  Cu108  1  0.34207772  0.32942631  0.50446156  1
  Cu  Cu109  1  0.82584730  0.49650784  0.75213307  1
  Cu  Cu110  1  0.00874384  0.00023246  0.50225705  1
  Cu  Cu111  1  0.17554501  0.83151779  0.74168807  1
  Cu  Cu112  1  0.65993603  0.33873239  0.50401036  1
  Cu  Cu113  1  0.82927410  0.49741938  0.24326721  1
  Cu  Cu114  1  0.83051783  0.83042789  0.24317758  1
  Se  Se115  1  0.07931512  0.07900801  0.06475313  1
  Se  Se116  1  0.08780146  0.08605885  0.55528611  1
  Se  Se117  1  0.08454031  0.41262406  0.05329171  1
  Se  Se118  1  0.09069320  0.41742903  0.55267083  1
  Se  Se119  1  0.08949355  0.74744356  0.05423073  1
  Se  Se120  1  0.06430856  0.73939687  0.54978864  1
  Se  Se121  1  0.41453033  0.08275231  0.05071194  1
  Se  Se122  1  0.41459317  0.08802499  0.55911003  1
  Se  Se123  1  0.40523309  0.40918628  0.05783206  1
  Se  Se124  1  0.42061241  0.42017288  0.55484509  1
  Se  Se125  1  0.42067048  0.74955885  0.05240610  1
  Se  Se126  1  0.41155068  0.74817434  0.55041872  1
  Se  Se127  1  0.74109648  0.08289967  0.04935114  1
  Se  Se128  1  0.73793189  0.08087413  0.56568791  1
  Se  Se129  1  0.74230037  0.41949504  0.05184012  1
  Se  Se130  1  0.74602788  0.41488454  0.56181457  1
  Se  Se131  1  0.75005738  0.74774859  0.05173158  1
  Se  Se132  1  0.74080827  0.74491117  0.55368444  1
  Se  Se133  1  0.25362540  0.25127895  0.05429457  1
  Se  Se134  1  0.25510664  0.24712662  0.55660604  1
  Se  Se135  1  0.25501218  0.58002377  0.05594892  1
  Se  Se136  1  0.24347577  0.57383910  0.54744445  1
  Se  Se137  1  0.24945544  0.91438719  0.04680417  1
  Se  Se138  1  0.24917036  0.91524026  0.55827662  1
  Se  Se139  1  0.57231978  0.25092638  0.05352567  1
  Se  Se140  1  0.58276158  0.25232764  0.55931059  1
  Se  Se141  1  0.58673194  0.58905717  0.06309809  1
  Se  Se142  1  0.58821377  0.58228465  0.55192391  1
  Se  Se143  1  0.58113297  0.91365454  0.04913112  1
  Se  Se144  1  0.57608786  0.91993768  0.55374297  1
  Se  Se145  1  0.91266008  0.24983382  0.05070682  1
  Se  Se146  1  0.93042008  0.25713276  0.56263300  1
  Se  Se147  1  0.91849576  0.58191772  0.04999812  1
  Se  Se148  1  0.91376777  0.58853976  0.55717788  1
  Se  Se149  1  0.92251477  0.91589567  0.04696547  1
  Se  Se150  1  0.92513195  0.92695171  0.56284158  1
  Se  Se151  1  0.08984626  0.24297115  0.44606006  1
  Se  Se152  1  0.07884563  0.25969261  0.93791062  1
  Se  Se153  1  0.07178807  0.59172358  0.45815344  1
  Se  Se154  1  0.08853767  0.58214142  0.94587786  1
  Se  Se155  1  0.08123167  0.91505362  0.44396935  1
  Se  Se156  1  0.07633560  0.93969402  0.94260177  1
  Se  Se157  1  0.42531101  0.24957421  0.44698754  1
  Se  Se158  1  0.41470982  0.24797105  0.93531401  1
  Se  Se159  1  0.40440170  0.59391986  0.44683538  1
  Se  Se160  1  0.40987794  0.58877087  0.93883677  1
  Se  Se161  1  0.41474506  0.92276596  0.45436631  1
  Se  Se162  1  0.41858561  0.91350421  0.94319279  1
  Se  Se163  1  0.74683024  0.25780397  0.44783131  1
  Se  Se164  1  0.74378943  0.25025870  0.94712488  1
  Se  Se165  1  0.74449666  0.59053404  0.43751535  1
  Se  Se166  1  0.74891797  0.57921764  0.94547112  1
  Se  Se167  1  0.73778340  0.92737205  0.44033177  1
  Se  Se168  1  0.75001776  0.91097488  0.94871899  1
  Se  Se169  1  0.24696792  0.08481017  0.44917591  1
  Se  Se170  1  0.26445539  0.08379859  0.93227597  1
  Se  Se171  1  0.25918413  0.41060350  0.44816542  1
  Se  Se172  1  0.24787113  0.42036429  0.94614954  1
  Se  Se173  1  0.23187790  0.76890177  0.45705994  1
  Se  Se174  1  0.25079635  0.75256450  0.94494336  1
  Se  Se175  1  0.57922857  0.08905661  0.44993916  1
  Se  Se176  1  0.57724709  0.08018692  0.94136972  1
  Se  Se177  1  0.58399256  0.42177499  0.44482514  1
  Se  Se178  1  0.58114546  0.41164761  0.93778097  1
  Se  Se179  1  0.57407627  0.75856820  0.44429127  1
  Se  Se180  1  0.58036995  0.74586576  0.94609429  1
  Se  Se181  1  0.92237214  0.07348431  0.44206364  1
  Se  Se182  1  0.91616846  0.08902298  0.95575772  1
  Se  Se183  1  0.93150396  0.40520119  0.43795183  1
  Se  Se184  1  0.91306404  0.42199305  0.94980524  1
  Se  Se185  1  0.91425195  0.74649825  0.43657156  1
  Se  Se186  1  0.92195005  0.74735593  0.94648746  1
  Se  Se187  1  0.25444514  0.24799375  0.30779208  1
  Se  Se188  1  0.24818728  0.26010743  0.79469512  1
  Se  Se189  1  0.23918781  0.58537202  0.32828318  1
  Se  Se190  1  0.25191707  0.59104088  0.80299054  1
  Se  Se191  1  0.25864587  0.90156644  0.31320914  1
  Se  Se192  1  0.25351789  0.91140351  0.80199879  1
  Se  Se193  1  0.58462067  0.25696133  0.30308841  1
  Se  Se194  1  0.58410432  0.24289786  0.79714510  1
  Se  Se195  1  0.58364494  0.58880837  0.30367951  1
  Se  Se196  1  0.58007187  0.58252520  0.80194922  1
  Se  Se197  1  0.57147323  0.91737514  0.30915171  1
  Se  Se198  1  0.57545383  0.90418162  0.81162315  1
  Se  Se199  1  0.90112340  0.23773942  0.31029019  1
  Se  Se200  1  0.91699320  0.25177820  0.81454657  1
  Se  Se201  1  0.91452559  0.56974665  0.30649375  1
  Se  Se202  1  0.90993505  0.57562882  0.81026721  1
  Se  Se203  1  0.91442907  0.90952211  0.29980777  1
  Se  Se204  1  0.90777133  0.90409552  0.81166547  1
  Se  Se205  1  0.08743130  0.07531313  0.31029794  1
  Se  Se206  1  0.09486654  0.09638502  0.80713021  1
  Se  Se207  1  0.09559624  0.41856605  0.30761107  1
  Se  Se208  1  0.08898123  0.43118500  0.80301045  1
  Se  Se209  1  0.09791759  0.74297288  0.31177583  1
  Se  Se210  1  0.09048782  0.76192236  0.80646330  1
  Se  Se211  1  0.41864079  0.09069128  0.30823814  1
  Se  Se212  1  0.40968477  0.07217605  0.79249726  1
  Se  Se213  1  0.41703916  0.41507809  0.30446919  1
  Se  Se214  1  0.41460960  0.41967052  0.80273456  1
  Se  Se215  1  0.41327112  0.74974402  0.31410186  1
  Se  Se216  1  0.41063837  0.74349469  0.80092356  1
  Se  Se217  1  0.74681586  0.08717652  0.31056747  1
  Se  Se218  1  0.75833120  0.08370403  0.81934048  1
  Se  Se219  1  0.74596006  0.41587156  0.29854430  1
  Se  Se220  1  0.74567502  0.41288775  0.80650401  1
  Se  Se221  1  0.74574141  0.75245045  0.29697048  1
  Se  Se222  1  0.74386196  0.74133214  0.80623760  1
  Se  Se223  1  0.24293699  0.09155373  0.19251072  1
  Se  Se224  1  0.26062301  0.08213861  0.70417286  1
  Se  Se225  1  0.25647761  0.40189140  0.19748388  1
  Se  Se226  1  0.25426600  0.42401165  0.69308451  1
  Se  Se227  1  0.25976168  0.74397575  0.19273401  1
  Se  Se228  1  0.24805821  0.74490462  0.68332599  1
  Se  Se229  1  0.57177440  0.09291577  0.19202627  1
  Se  Se230  1  0.57750822  0.08267054  0.69361277  1
  Se  Se231  1  0.57846528  0.42177323  0.19693182  1
  Se  Se232  1  0.58368079  0.41431264  0.69729530  1
  Se  Se233  1  0.58099519  0.75200442  0.19613613  1
  Se  Se234  1  0.57998545  0.74287714  0.69301967  1
  Se  Se235  1  0.89964486  0.09290784  0.18882965  1
  Se  Se236  1  0.90748133  0.08773285  0.70205784  1
  Se  Se237  1  0.91218159  0.41939122  0.18460343  1
  Se  Se238  1  0.91222163  0.43108663  0.68798419  1
  Se  Se239  1  0.91528892  0.75323207  0.18544301  1
  Se  Se240  1  0.90940679  0.75461922  0.69131605  1
  Se  Se241  1  0.08565913  0.24073095  0.19900106  1
  Se  Se242  1  0.09461646  0.24525774  0.68959621  1
  Se  Se243  1  0.09628001  0.57038357  0.19296996  1
  Se  Se244  1  0.09621888  0.59159018  0.68396940  1
  Se  Se245  1  0.09983837  0.90111201  0.19367910  1
  Se  Se246  1  0.09536599  0.91968638  0.68817108  1
  Se  Se247  1  0.41038139  0.25624639  0.19622947  1
  Se  Se248  1  0.41223784  0.26064530  0.69967218  1
  Se  Se249  1  0.41155439  0.58551287  0.20034396  1
  Se  Se250  1  0.41871141  0.58626424  0.69009376  1
  Se  Se251  1  0.42618447  0.90851192  0.18721344  1
  Se  Se252  1  0.41533909  0.91340113  0.69973545  1
  Se  Se253  1  0.73816990  0.25535093  0.19145837  1
  Se  Se254  1  0.75258991  0.25547617  0.70557488  1
  Se  Se255  1  0.74883301  0.58904652  0.19593158  1
  Se  Se256  1  0.74635667  0.58718015  0.70287076  1
  Se  Se257  1  0.75687769  0.91287391  0.18144806  1
  Se  Se258  1  0.74880027  0.90459399  0.69218065  1
