# generated using pymatgen
data_In86Cu29Se144
_symmetry_space_group_name_H-M   'P 1'
_cell_length_a   17.57062331
_cell_length_b   17.56910645
_cell_length_c   23.42480144
_cell_angle_alpha   90.00556486
_cell_angle_beta   90.00654413
_cell_angle_gamma   89.99327386
_symmetry_Int_Tables_number   1
_chemical_formula_structural   In86Cu29Se144
_chemical_formula_sum   'In86 Cu29 Se144'
_cell_volume   7231.23961989
_cell_formula_units_Z   1
loop_
 _symmetry_equiv_pos_site_id
 _symmetry_equiv_pos_as_xyz
  1  'x, y, z'
loop_
 _atom_site_type_symbol
 _atom_site_label
 _atom_site_symmetry_multiplicity
 _atom_site_fract_x
 _atom_site_fract_y
 _atom_site_fract_z
 _atom_site_occupancy
  In  In0  1  -0.01346408  0.14573229  0.09958094  1
  In  In1  1  0.00807844  0.15719392  0.63794448  1
  In  In2  1  0.00330173  0.48579230  0.11798246  1
  In  In3  1  0.01013365  0.48803073  0.63631335  1
  In  In4  1  -0.01857385  0.84420851  0.11754871  1
  In  In5  1  -0.00121233  0.83361696  0.63005128  1
  In  In6  1  0.33914545  0.17017871  0.12085057  1
  In  In7  1  0.33449250  0.16718449  0.62681206  1
  In  In8  1  0.32579182  0.49953916  0.12915310  1
  In  In9  1  0.31408668  0.49558780  0.61718719  1
  In  In10  1  0.33615124  0.81372335  0.13224226  1
  In  In11  1  0.33832579  0.84966745  0.62320813  1
  In  In12  1  0.66773836  0.16264022  0.12258173  1
  In  In13  1  0.66803108  0.17518139  0.61823377  1
  In  In14  1  0.65363672  0.50407436  0.13365237  1
  In  In15  1  0.65862138  0.48404108  0.62054901  1
  In  In16  1  0.66381092  0.83156914  0.12015768  1
  In  In17  1  0.66972315  0.82394231  0.61812505  1
  In  In18  1  0.16533801  0.00274451  0.38575996  1
  In  In19  1  0.17469782  0.00844930  0.86807668  1
  In  In20  1  0.17750059  0.32941361  0.38632017  1
  In  In21  1  0.17149418  0.33368331  0.87108311  1
  In  In22  1  0.18525746  0.65488668  0.39530813  1
  In  In23  1  0.15285043  0.67219014  0.87425699  1
  In  In24  1  0.52021097  0.00307790  0.37479191  1
  In  In25  1  0.49476844  0.00933489  0.89064792  1
  In  In26  1  0.49642865  0.32973157  0.37248013  1
  In  In27  1  0.49027706  0.32235878  0.86797738  1
  In  In28  1  0.49531227  0.67207446  0.35921224  1
  In  In29  1  0.51091843  0.67817277  0.87895632  1
  In  In30  1  0.80933327  -0.00412584  0.37589879  1
  In  In31  1  0.85123907  -0.00063654  0.88670595  1
  In  In32  1  0.83300604  0.33676577  0.37195575  1
  In  In33  1  0.82645977  0.32470569  0.86899249  1
  In  In34  1  0.82986559  0.68714281  0.37249413  1
  In  In35  1  0.84061414  0.67127810  0.87761782  1
  In  In36  1  0.00360291  0.17496585  0.38061457  1
  In  In37  1  0.00228013  0.16832004  0.87207326  1
  In  In38  1  0.00562039  0.50964531  0.38129567  1
  In  In39  1  0.00793507  0.51217249  0.86844647  1
  In  In40  1  -0.00181728  0.83690551  0.38387160  1
  In  In41  1  -0.00233943  0.82706255  0.86851704  1
  In  In42  1  0.32564040  0.17634522  0.37735898  1
  In  In43  1  0.33275541  0.16406231  0.87562573  1
  In  In44  1  0.33172596  0.49700699  0.37331639  1
  In  In45  1  0.33621461  0.48145357  0.87124037  1
  In  In46  1  0.33456779  0.82201206  0.37389815  1
  In  In47  1  0.32638359  0.84671109  0.87387954  1
  In  In48  1  0.65787159  0.16117762  0.37001471  1
  In  In49  1  0.65753622  0.16763207  0.89095778  1
  In  In50  1  0.65599698  0.49403867  0.36619549  1
  In  In51  1  0.67588009  0.50016765  0.87688938  1
  In  In52  1  0.66609197  0.84442677  0.36275538  1
  In  In53  1  0.66167729  0.85215706  0.90646451  1
  In  In54  1  0.15280410  0.00344243  0.11978848  1
  In  In55  1  0.16522256  0.00377190  0.62639893  1
  In  In56  1  0.16934258  0.33158251  0.11996172  1
  In  In57  1  0.17076872  0.33044018  0.62908735  1
  In  In58  1  0.17862962  0.66394051  0.12732839  1
  In  In59  1  0.16227787  0.65649770  0.61799540  1
  In  In60  1  0.51280821  0.00566469  0.11413858  1
  In  In61  1  0.48721048  0.00047051  0.62708675  1
  In  In62  1  0.50445727  0.31903591  0.13288620  1
  In  In63  1  0.51100217  0.31424437  0.63152211  1
  In  In64  1  0.49910008  0.67062437  0.12881451  1
  In  In65  1  0.49719171  0.67817080  0.62096672  1
  In  In66  1  0.80031438  -0.02526574  0.07933567  1
  In  In67  1  0.84585722  0.00442489  0.62877371  1
  In  In68  1  0.82433895  0.31679200  0.11932932  1
  In  In69  1  0.83336173  0.33168709  0.63542642  1
  In  In70  1  0.81127598  0.66819097  0.12472682  1
  In  In71  1  0.83259244  0.68063412  0.62690274  1
  In  In72  1  0.00020328  0.66731948  0.25588147  1
  In  In73  1  0.49532435  0.49768550  0.48960549  1
  In  In74  1  0.33149758  0.66113156  0.73771456  1
  In  In75  1  0.00055871  0.33019825  0.24557254  1
  In  In76  1  0.16771425  0.83671209  0.00133726  1
  In  In77  1  0.34217669  -0.00097554  0.24415114  1
  In  In78  1  0.83737482  0.50030756  0.50387726  1
  In  In79  1  0.66770407  0.00218399  0.75920845  1
  In  In80  1  0.68044870  0.66469099  0.75778134  1
  In  In81  1  0.83665400  0.15976899  0.50144285  1
  In  In82  1  0.49786108  0.84078007  0.49338238  1
  In  In83  1  0.49199660  0.50050953  0.00771891  1
  In  In84  1  0.83607152  0.50200007  -0.00568091  1
  In  In85  1  -0.00799437  0.00260250  0.24242042  1
  Cu  Cu86  1  0.65756642  0.33766963  0.00254279  1
  Cu  Cu87  1  0.17062351  0.16938172  0.75045389  1
  Cu  Cu88  1  0.49953157  0.16899192  0.24629988  1
  Cu  Cu89  1  0.66887174  0.66468286  0.49387323  1
  Cu  Cu90  1  0.82349730  0.49657945  0.25018829  1
  Cu  Cu91  1  0.49121720  0.49730628  0.24835945  1
  Cu  Cu92  1  0.16860934  0.49885592  0.74910701  1
  Cu  Cu93  1  0.16305654  0.83930104  0.74872669  1
  Cu  Cu94  1  0.83441185  0.16652780  0.75393833  1
  Cu  Cu95  1  0.33605076  0.33355735  0.50209687  1
  Cu  Cu96  1  0.01215796  0.33064661  0.50993222  1
  Cu  Cu97  1  0.49875657  0.83602309  0.75452797  1
  Cu  Cu98  1  0.16948336  0.49814758  0.25333734  1
  Cu  Cu99  1  0.49951007  0.16209656  0.75711871  1
  Cu  Cu100  1  0.16810086  0.82927730  0.25526260  1
  Cu  Cu101  1  0.83359488  0.49878540  0.75330835  1
  Cu  Cu102  1  -0.00089892  -0.00210799  0.50926611  1
  Cu  Cu103  1  0.01489236  0.33499768  -0.00861964  1
  Cu  Cu104  1  -0.00041788  0.66912428  -0.00363653  1
  Cu  Cu105  1  0.00394813  0.66935711  0.50335974  1
  Cu  Cu106  1  0.33905295  -0.00278101  0.00111782  1
  Cu  Cu107  1  0.33060199  0.32385651  -0.00522791  1
  Cu  Cu108  1  0.82197583  0.84154327  0.24254421  1
  Cu  Cu109  1  0.83302082  0.83696338  0.75554951  1
  Cu  Cu110  1  0.82042263  0.16093505  0.24345538  1
  Cu  Cu111  1  0.50375980  0.48965614  0.74556465  1
  Cu  Cu112  1  0.16386718  0.17208139  0.24946089  1
  Cu  Cu113  1  0.33517084  0.65950463  0.00487438  1
  Cu  Cu114  1  0.33071320  0.01055823  0.50208507  1
  Se  Se115  1  0.09535327  0.08541430  0.04118180  1
  Se  Se116  1  0.08107562  0.08783569  0.55675621  1
  Se  Se117  1  0.09340967  0.41878508  0.04800270  1
  Se  Se118  1  0.09181478  0.42022417  0.55947309  1
  Se  Se119  1  0.07672789  0.74543193  0.06362058  1
  Se  Se120  1  0.08316403  0.75433728  0.55877991  1
  Se  Se121  1  0.41898418  0.08616198  0.05211783  1
  Se  Se122  1  0.41937444  0.08812736  0.55445402  1
  Se  Se123  1  0.40686682  0.40142063  0.06213949  1
  Se  Se124  1  0.41880701  0.41165938  0.56259018  1
  Se  Se125  1  0.41653610  0.74617819  0.05437362  1
  Se  Se126  1  0.40507313  0.74896993  0.55159992  1
  Se  Se127  1  0.77225226  0.11538134  0.05283118  1
  Se  Se128  1  0.74514286  0.06960052  0.55983678  1
  Se  Se129  1  0.74089723  0.41969144  0.05952687  1
  Se  Se130  1  0.74806916  0.40057336  0.55415753  1
  Se  Se131  1  0.76801227  0.76699840  0.05310863  1
  Se  Se132  1  0.75297958  0.74672703  0.54743861  1
  Se  Se133  1  0.24737799  0.24313022  0.05219836  1
  Se  Se134  1  0.25216168  0.25092897  0.55716928  1
  Se  Se135  1  0.24737583  0.57797357  0.05362018  1
  Se  Se136  1  0.26163256  0.59639663  0.54986212  1
  Se  Se137  1  0.26078229  0.91916975  0.06606018  1
  Se  Se138  1  0.25005903  0.92407215  0.55459141  1
  Se  Se139  1  0.58039316  0.24814799  0.05498063  1
  Se  Se140  1  0.58022382  0.24682688  0.54931416  1
  Se  Se141  1  0.59117251  0.59086446  0.05523035  1
  Se  Se142  1  0.58808765  0.58948625  0.55575601  1
  Se  Se143  1  0.58346852  0.91217904  0.04749556  1
  Se  Se144  1  0.58626083  0.92257157  0.56084789  1
  Se  Se145  1  0.92686690  0.26494896  0.05115342  1
  Se  Se146  1  0.92412591  0.25156791  0.56414183  1
  Se  Se147  1  0.92202664  0.59053316  0.06152997  1
  Se  Se148  1  0.92517013  0.58823114  0.56612667  1
  Se  Se149  1  0.94309953  0.95061695  0.05050318  1
  Se  Se150  1  0.91350493  0.91327582  0.55822059  1
  Se  Se151  1  0.08915924  0.24653616  0.45160595  1
  Se  Se152  1  0.09336131  0.24669497  0.93978673  1
  Se  Se153  1  0.08655766  0.57914183  0.45629708  1
  Se  Se154  1  0.08480580  0.58440353  0.94765150  1
  Se  Se155  1  0.08237752  0.91799749  0.45163262  1
  Se  Se156  1  0.08436092  0.91914674  0.93361307  1
  Se  Se157  1  0.41675586  0.25107800  0.44565640  1
  Se  Se158  1  0.42064912  0.24375832  0.94563735  1
  Se  Se159  1  0.41132200  0.59816080  0.43708856  1
  Se  Se160  1  0.41101553  0.58692812  0.93549484  1
  Se  Se161  1  0.40635527  0.93267328  0.43504482  1
  Se  Se162  1  0.41581550  0.90768657  0.94804127  1
  Se  Se163  1  0.75120821  0.24917166  0.43843894  1
  Se  Se164  1  0.74617953  0.26052269  0.94841410  1
  Se  Se165  1  0.74802620  0.58227954  0.43514873  1
  Se  Se166  1  0.74061595  0.59895133  0.94591878  1
  Se  Se167  1  0.74843881  0.90069487  0.44409491  1
  Se  Se168  1  0.76362442  0.92810076  0.95999933  1
  Se  Se169  1  0.24601548  0.09323359  0.44837073  1
  Se  Se170  1  0.25420809  0.07760565  0.94618995  1
  Se  Se171  1  0.25424604  0.42208664  0.45104760  1
  Se  Se172  1  0.25164750  0.41523630  0.94575179  1
  Se  Se173  1  0.23550508  0.77414342  0.44595043  1
  Se  Se174  1  0.25687009  0.74168111  0.94174445  1
  Se  Se175  1  0.59279048  0.08117448  0.44875408  1
  Se  Se176  1  0.59623290  0.06757567  0.95666506  1
  Se  Se177  1  0.59422544  0.40466758  0.44379914  1
  Se  Se178  1  0.58004779  0.41581060  0.93946551  1
  Se  Se179  1  0.58513619  0.74379946  0.43599402  1
  Se  Se180  1  0.58435628  0.74724866  0.95634161  1
  Se  Se181  1  0.92372453  0.06922348  0.43683902  1
  Se  Se182  1  0.90963799  0.10818628  0.94649238  1
  Se  Se183  1  0.93021726  0.40498675  0.44553639  1
  Se  Se184  1  0.92572262  0.41272829  0.93440770  1
  Se  Se185  1  0.91697102  0.74758156  0.44907113  1
  Se  Se186  1  0.91828123  0.75703262  0.94728486  1
  Se  Se187  1  0.24435342  0.25497702  0.30413465  1
  Se  Se188  1  0.25691645  0.25018444  0.80411389  1
  Se  Se189  1  0.24649225  0.58518519  0.30860207  1
  Se  Se190  1  0.24745734  0.58138124  0.81018918  1
  Se  Se191  1  0.24309487  0.92114102  0.30822844  1
  Se  Se192  1  0.25192087  0.92073457  0.79749423  1
  Se  Se193  1  0.58235019  0.25171595  0.30227131  1
  Se  Se194  1  0.58800374  0.24200856  0.80953360  1
  Se  Se195  1  0.57906074  0.58105318  0.29849702  1
  Se  Se196  1  0.57523673  0.57553462  0.80725513  1
  Se  Se197  1  0.57698624  0.91976677  0.29643283  1
  Se  Se198  1  0.57875576  0.91032863  0.81822116  1
  Se  Se199  1  0.90722021  0.23552578  0.30392955  1
  Se  Se200  1  0.92032783  0.25381075  0.80181419  1
  Se  Se201  1  0.90446958  0.57447753  0.31144488  1
  Se  Se202  1  0.91300739  0.58876504  0.80357648  1
  Se  Se203  1  0.90862000  0.91081392  0.30695097  1
  Se  Se204  1  0.91837416  0.92199436  0.80575467  1
  Se  Se205  1  0.08488366  0.08860598  0.30772670  1
  Se  Se206  1  0.08448635  0.08540868  0.80133211  1
  Se  Se207  1  0.08554450  0.41943374  0.31200049  1
  Se  Se208  1  0.08457816  0.41831799  0.80453824  1
  Se  Se209  1  0.08983719  0.75183003  0.31811333  1
  Se  Se210  1  0.08209643  0.74902225  0.79716082  1
  Se  Se211  1  0.42024696  0.09184437  0.31053341  1
  Se  Se212  1  0.41869885  0.07652989  0.81001357  1
  Se  Se213  1  0.41222346  0.41350683  0.30502880  1
  Se  Se214  1  0.41596904  0.40912897  0.79641598  1
  Se  Se215  1  0.41983709  0.76613644  0.29605508  1
  Se  Se216  1  0.41555199  0.74947730  0.80704064  1
  Se  Se217  1  0.74138716  0.07809076  0.30018061  1
  Se  Se218  1  0.75746723  0.09004010  0.81906907  1
  Se  Se219  1  0.74477411  0.40921112  0.30269768  1
  Se  Se220  1  0.74639607  0.41680262  0.80352073  1
  Se  Se221  1  0.74539441  0.75217755  0.29675610  1
  Se  Se222  1  0.74776463  0.76858100  0.82021837  1
  Se  Se223  1  0.24028922  0.08619545  0.19029595  1
  Se  Se224  1  0.25141297  0.08381305  0.69543845  1
  Se  Se225  1  0.24441749  0.41165565  0.19589939  1
  Se  Se226  1  0.25434277  0.41579946  0.69829046  1
  Se  Se227  1  0.24934687  0.74184579  0.20468393  1
  Se  Se228  1  0.24354049  0.76023362  0.68578738  1
  Se  Se229  1  0.58157255  0.08431563  0.19320199  1
  Se  Se230  1  0.58052521  0.08680779  0.69304703  1
  Se  Se231  1  0.57848198  0.41271406  0.19908410  1
  Se  Se232  1  0.59133248  0.40528911  0.69797312  1
  Se  Se233  1  0.59999162  0.73687719  0.19070695  1
  Se  Se234  1  0.58126545  0.75465118  0.69764203  1
  Se  Se235  1  0.90303149  0.08749676  0.18191610  1
  Se  Se236  1  0.91844035  0.07948637  0.70544879  1
  Se  Se237  1  0.90409297  0.42023523  0.18860976  1
  Se  Se238  1  0.91787746  0.41372559  0.70226018  1
  Se  Se239  1  0.91020399  0.75525482  0.19246072  1
  Se  Se240  1  0.91413732  0.75147824  0.70145105  1
  Se  Se241  1  0.07883185  0.23613242  0.18235733  1
  Se  Se242  1  0.08439015  0.25367808  0.69972850  1
  Se  Se243  1  0.08404831  0.57270904  0.19254894  1
  Se  Se244  1  0.08645332  0.58626040  0.69771780  1
  Se  Se245  1  0.08727431  0.90333898  0.19180518  1
  Se  Se246  1  0.07927582  0.92316904  0.69578645  1
  Se  Se247  1  0.40694537  0.24994845  0.19968623  1
  Se  Se248  1  0.41804687  0.24534268  0.70009430  1
  Se  Se249  1  0.41280332  0.58332827  0.19308105  1
  Se  Se250  1  0.42854017  0.57095872  0.68255923  1
  Se  Se251  1  0.42898854  0.91099180  0.18345991  1
  Se  Se252  1  0.41545292  0.91914768  0.70237973  1
  Se  Se253  1  0.74065166  0.25341303  0.19623997  1
  Se  Se254  1  0.74808641  0.24231343  0.69700985  1
  Se  Se255  1  0.74315645  0.58411741  0.19948964  1
  Se  Se256  1  0.75373633  0.57228866  0.68585419  1
  Se  Se257  1  0.75298470  0.92568200  0.17869740  1
  Se  Se258  1  0.74980648  0.90986078  0.69252407  1
