# generated using pymatgen
data_In86Cu29Se144
_symmetry_space_group_name_H-M   'P 1'
_cell_length_a   17.60165115
_cell_length_b   17.59252945
_cell_length_c   23.46344841
_cell_angle_alpha   89.98944823
_cell_angle_beta   90.00658306
_cell_angle_gamma   90.01006710
_symmetry_Int_Tables_number   1
_chemical_formula_structural   In86Cu29Se144
_chemical_formula_sum   'In86 Cu29 Se144'
_cell_volume   7265.63404570
_cell_formula_units_Z   1
loop_
 _symmetry_equiv_pos_site_id
 _symmetry_equiv_pos_as_xyz
  1  'x, y, z'
loop_
 _atom_site_type_symbol
 _atom_site_label
 _atom_site_symmetry_multiplicity
 _atom_site_fract_x
 _atom_site_fract_y
 _atom_site_fract_z
 _atom_site_occupancy
  In  In0  1  -0.00246864  0.16993752  0.12278484  1
  In  In1  1  0.00296151  0.15921477  0.62760081  1
  In  In2  1  0.00700967  0.48522283  0.13551322  1
  In  In3  1  -0.00100142  0.50033714  0.61419798  1
  In  In4  1  -0.00900697  0.83357910  0.12709562  1
  In  In5  1  0.00789785  0.83417656  0.62041619  1
  In  In6  1  0.33404087  0.15829874  0.11887468  1
  In  In7  1  0.33009360  0.16668323  0.62266389  1
  In  In8  1  0.33114411  0.48735766  0.11964247  1
  In  In9  1  0.31804388  0.49386534  0.61924844  1
  In  In10  1  0.33958673  0.84693326  0.12422171  1
  In  In11  1  0.32926251  0.85155077  0.62865004  1
  In  In12  1  0.67161062  0.17120920  0.11987795  1
  In  In13  1  0.67864684  0.19372252  0.60605132  1
  In  In14  1  0.66630371  0.49922334  0.12864975  1
  In  In15  1  0.63302380  0.45191427  0.58344847  1
  In  In16  1  0.67029979  0.81480164  0.12836737  1
  In  In17  1  0.66800323  0.83125107  0.62215971  1
  In  In18  1  0.16644303  -0.00174398  0.37952731  1
  In  In19  1  0.18763527  0.04094439  0.84251346  1
  In  In20  1  0.16040012  0.34222722  0.38336355  1
  In  In21  1  0.18389778  0.31326726  0.88531893  1
  In  In22  1  0.16360735  0.67102357  0.37524870  1
  In  In23  1  0.15468347  0.66433843  0.87896282  1
  In  In24  1  0.49763154  0.02983620  0.36897022  1
  In  In25  1  0.48756173  0.04122950  0.89849913  1
  In  In26  1  0.51976165  0.31639672  0.38952508  1
  In  In27  1  0.49746842  0.33101693  0.87590176  1
  In  In28  1  0.50585690  0.65244013  0.37456036  1
  In  In29  1  0.49303903  0.65972531  0.87932848  1
  In  In30  1  0.84200082  0.00913552  0.37718759  1
  In  In31  1  0.83093107  0.00105400  0.88658373  1
  In  In32  1  0.83680650  0.32656417  0.37622987  1
  In  In33  1  0.81686723  0.33613637  0.86868029  1
  In  In34  1  0.81933020  0.65223017  0.36020806  1
  In  In35  1  0.84439407  0.67482507  0.87759286  1
  In  In36  1  -0.01288319  0.18423011  0.38755845  1
  In  In37  1  0.00366156  0.16312770  0.87588283  1
  In  In38  1  -0.00438394  0.49654777  0.37253984  1
  In  In39  1  -0.00039428  0.50989488  0.87401102  1
  In  In40  1  0.01461643  0.83515295  0.37219481  1
  In  In41  1  -0.01653356  0.84517415  0.88447797  1
  In  In42  1  0.33953296  0.15796919  0.37657787  1
  In  In43  1  0.33265821  0.17307903  0.87016286  1
  In  In44  1  0.34298095  0.49169523  0.38528448  1
  In  In45  1  0.34669102  0.48426235  0.88171564  1
  In  In46  1  0.32152678  0.84109020  0.37764245  1
  In  In47  1  0.31879356  0.84453648  0.87593710  1
  In  In48  1  0.66669835  0.18325119  0.38029235  1
  In  In49  1  0.66080785  0.16944590  0.88505297  1
  In  In50  1  0.66907038  0.49048678  0.37505858  1
  In  In51  1  0.66378062  0.48159035  0.86907534  1
  In  In52  1  0.67742566  0.83177208  0.37050672  1
  In  In53  1  0.67101275  0.86004847  0.88654520  1
  In  In54  1  0.17105535  0.01572118  0.12032407  1
  In  In55  1  0.16894476  -0.00032526  0.62240591  1
  In  In56  1  0.15975128  0.32080388  0.12092543  1
  In  In57  1  0.16960678  0.33584877  0.62493499  1
  In  In58  1  0.17498480  0.64821760  0.13157766  1
  In  In59  1  0.15284122  0.66512585  0.61635795  1
  In  In60  1  0.48992693  0.00104678  0.12471212  1
  In  In61  1  0.48179277  0.01617448  0.63323128  1
  In  In62  1  0.50624902  0.33385182  0.11947698  1
  In  In63  1  0.48856582  0.32495367  0.62091252  1
  In  In64  1  0.51444125  0.66036927  0.12724072  1
  In  In65  1  0.51276894  0.65984335  0.62431652  1
  In  In66  1  0.83754965  0.00833386  0.10999852  1
  In  In67  1  0.82827411  0.03177231  0.63821612  1
  In  In68  1  0.83529233  0.31895821  0.13934304  1
  In  In69  1  0.82396804  0.32367666  0.61501182  1
  In  In70  1  0.83115956  0.66472194  0.13210033  1
  In  In71  1  0.84403935  0.65776094  0.62309011  1
  In  In72  1  0.50384005  0.83025466  0.00071818  1
  In  In73  1  0.66784480  0.00135768  0.24824385  1
  In  In74  1  0.84471167  0.83695346  0.49574808  1
  In  In75  1  0.32762765  0.66196903  0.74457618  1
  In  In76  1  0.00831513  0.32807691  0.74909339  1
  In  In77  1  0.00194642  0.00802755  0.24317358  1
  In  In78  1  -0.00155329  0.67027552  0.74931638  1
  In  In79  1  0.83172812  0.49579365  -0.00212492  1
  In  In80  1  0.15732707  0.83580407  0.00024702  1
  In  In81  1  0.33761300  0.66580816  0.25484330  1
  In  In82  1  0.49581544  0.83499435  0.50760629  1
  In  In83  1  0.65846613  0.01207250  0.75809942  1
  In  In84  1  0.33646981  0.32758174  0.25106097  1
  In  In85  1  0.67603397  0.66188283  0.74667627  1
  Cu  Cu86  1  0.67193998  0.65971946  0.00399246  1
  Cu  Cu87  1  0.82926126  0.84449402  0.75679358  1
  Cu  Cu88  1  0.33371606  0.65655189  0.00364597  1
  Cu  Cu89  1  -0.00102333  0.33275712  0.00498887  1
  Cu  Cu90  1  0.66136921  0.01019429  0.50201766  1
  Cu  Cu91  1  0.17371838  0.49300064  0.75329551  1
  Cu  Cu92  1  0.66140917  0.33335755  -0.00085530  1
  Cu  Cu93  1  0.00304639  0.65738612  0.00499020  1
  Cu  Cu94  1  0.32786404  0.67082937  0.49823611  1
  Cu  Cu95  1  0.49984823  0.17210915  0.75089588  1
  Cu  Cu96  1  0.50597090  0.49381227  0.25119470  1
  Cu  Cu97  1  0.33237358  0.00418955  0.50094706  1
  Cu  Cu98  1  0.32900748  0.33310050  0.50114035  1
  Cu  Cu99  1  0.17193026  0.83613605  0.25284791  1
  Cu  Cu100  1  0.49776025  0.83703804  0.75845711  1
  Cu  Cu101  1  0.49972067  0.83607709  0.24773368  1
  Cu  Cu102  1  0.83245587  0.49638108  0.25236781  1
  Cu  Cu103  1  0.67023646  0.65947567  0.49260216  1
  Cu  Cu104  1  0.16245729  0.16739099  0.24842499  1
  Cu  Cu105  1  0.50375840  0.48588691  0.74432230  1
  Cu  Cu106  1  0.33748833  0.32944180  0.00031837  1
  Cu  Cu107  1  0.16047191  0.49881886  0.25585236  1
  Cu  Cu108  1  0.00223565  0.00513183  0.50347467  1
  Cu  Cu109  1  0.00719735  0.00635528  -0.00346867  1
  Cu  Cu110  1  0.15884425  0.84322555  0.74800624  1
  Cu  Cu111  1  0.83470755  0.83002307  0.24784146  1
  Cu  Cu112  1  -0.00121452  0.66478331  0.49113064  1
  Cu  Cu113  1  0.00711327  0.33420981  0.50196029  1
  Cu  Cu114  1  0.82226968  0.49046345  0.73972281  1
  Se  Se115  1  0.08371979  0.09181181  0.05333776  1
  Se  Se116  1  0.08877410  0.08657879  0.55434237  1
  Se  Se117  1  0.08358383  0.41624954  0.05615909  1
  Se  Se118  1  0.09063036  0.41963632  0.55353121  1
  Se  Se119  1  0.08279164  0.73818347  0.06597883  1
  Se  Se120  1  0.07733567  0.75110795  0.54571283  1
  Se  Se121  1  0.41743799  0.07767920  0.04925702  1
  Se  Se122  1  0.41842640  0.08863310  0.55071343  1
  Se  Se123  1  0.42089291  0.41560849  0.05129522  1
  Se  Se124  1  0.41056305  0.41896138  0.55412546  1
  Se  Se125  1  0.41210045  0.73929345  0.06304499  1
  Se  Se126  1  0.40575160  0.74200989  0.56743882  1
  Se  Se127  1  0.74387208  0.08346946  0.04904363  1
  Se  Se128  1  0.75352577  0.08629198  0.55251693  1
  Se  Se129  1  0.74651926  0.40778064  0.06018574  1
  Se  Se130  1  0.77235580  0.43635907  0.55564831  1
  Se  Se131  1  0.75555634  0.74264186  0.05542129  1
  Se  Se132  1  0.74925975  0.74297810  0.55291290  1
  Se  Se133  1  0.25272382  0.24858729  0.05442942  1
  Se  Se134  1  0.24630424  0.24944775  0.55439241  1
  Se  Se135  1  0.24790266  0.57467433  0.05420278  1
  Se  Se136  1  0.24466781  0.58746220  0.55300351  1
  Se  Se137  1  0.25584804  0.92488177  0.05220797  1
  Se  Se138  1  0.24989982  0.91457413  0.54964931  1
  Se  Se139  1  0.58044441  0.24489901  0.04969254  1
  Se  Se140  1  0.58236396  0.26643058  0.54570926  1
  Se  Se141  1  0.58548657  0.57730016  0.05340116  1
  Se  Se142  1  0.58028046  0.58369326  0.54600191  1
  Se  Se143  1  0.58993658  0.91294997  0.06687998  1
  Se  Se144  1  0.58596138  0.93034757  0.56486527  1
  Se  Se145  1  0.91072512  0.25420746  0.05707219  1
  Se  Se146  1  0.92857710  0.25039804  0.55907452  1
  Se  Se147  1  0.92098889  0.57822516  0.06372950  1
  Se  Se148  1  0.91663381  0.58323637  0.54575502  1
  Se  Se149  1  0.92830383  0.92014231  0.05216065  1
  Se  Se150  1  0.91510928  0.93010358  0.56502136  1
  Se  Se151  1  0.09000176  0.24728552  0.45108249  1
  Se  Se152  1  0.07915960  0.25025616  0.94698606  1
  Se  Se153  1  0.08294620  0.58130451  0.43934865  1
  Se  Se154  1  0.08429768  0.57640908  0.95017182  1
  Se  Se155  1  0.08016004  0.91785021  0.44878565  1
  Se  Se156  1  0.08733450  0.93094430  0.93360103  1
  Se  Se157  1  0.40984423  0.25086450  0.44525497  1
  Se  Se158  1  0.41817068  0.24579463  0.94524302  1
  Se  Se159  1  0.41602191  0.59023370  0.44811751  1
  Se  Se160  1  0.42015266  0.57662976  0.95082643  1
  Se  Se161  1  0.41772852  0.92580935  0.44018258  1
  Se  Se162  1  0.41216201  0.92100427  0.94311855  1
  Se  Se163  1  0.75416499  0.25399603  0.45061930  1
  Se  Se164  1  0.75117474  0.25598656  0.94676695  1
  Se  Se165  1  0.75522078  0.57773811  0.44167983  1
  Se  Se166  1  0.74388190  0.58587126  0.93281319  1
  Se  Se167  1  0.74200205  0.92783483  0.44367991  1
  Se  Se168  1  0.77269320  0.90023355  0.95645704  1
  Se  Se169  1  0.24862507  0.08480853  0.44548201  1
  Se  Se170  1  0.24401567  0.08914320  0.93532001  1
  Se  Se171  1  0.24758289  0.42208340  0.45075112  1
  Se  Se172  1  0.25120291  0.41460070  0.94887154  1
  Se  Se173  1  0.24592536  0.75355667  0.44501559  1
  Se  Se174  1  0.25539901  0.74036218  0.94516615  1
  Se  Se175  1  0.58219000  0.09207046  0.44509538  1
  Se  Se176  1  0.61620552  0.05368015  0.94683049  1
  Se  Se177  1  0.57539332  0.42826717  0.44769329  1
  Se  Se178  1  0.57984629  0.41827153  0.94524702  1
  Se  Se179  1  0.58964965  0.75085557  0.44265804  1
  Se  Se180  1  0.59548961  0.74014997  0.93858032  1
  Se  Se181  1  0.91485653  0.08672696  0.45253537  1
  Se  Se182  1  0.91780445  0.08905160  0.94859519  1
  Se  Se183  1  0.92200185  0.41144927  0.44490298  1
  Se  Se184  1  0.92314563  0.40795156  0.93742333  1
  Se  Se185  1  0.91827155  0.74274052  0.42874806  1
  Se  Se186  1  0.92270883  0.74575509  0.95399062  1
  Se  Se187  1  0.24010386  0.24684393  0.31243632  1
  Se  Se188  1  0.24839694  0.25137831  0.79993539  1
  Se  Se189  1  0.25059423  0.57125260  0.31203646  1
  Se  Se190  1  0.24692534  0.57764722  0.81551330  1
  Se  Se191  1  0.24979261  0.92426679  0.30412512  1
  Se  Se192  1  0.25116648  0.92000754  0.79741006  1
  Se  Se193  1  0.58126193  0.24902932  0.30478712  1
  Se  Se194  1  0.58425525  0.24809571  0.80953391  1
  Se  Se195  1  0.58910789  0.57853190  0.30353580  1
  Se  Se196  1  0.57466395  0.57671158  0.80400397  1
  Se  Se197  1  0.57611047  0.91427247  0.31309298  1
  Se  Se198  1  0.56992303  0.92154010  0.81901623  1
  Se  Se199  1  0.91891279  0.24684026  0.30432968  1
  Se  Se200  1  0.91054993  0.24903162  0.80929923  1
  Se  Se201  1  0.92037037  0.58251750  0.29928244  1
  Se  Se202  1  0.89987540  0.57393625  0.80078691  1
  Se  Se203  1  0.91373993  0.91254033  0.30621236  1
  Se  Se204  1  0.91181655  0.92510740  0.80953634  1
  Se  Se205  1  0.08282547  0.09171455  0.31280225  1
  Se  Se206  1  0.05908057  0.07411411  0.79680213  1
  Se  Se207  1  0.08023628  0.41011654  0.30547371  1
  Se  Se208  1  0.08968763  0.42044359  0.81445383  1
  Se  Se209  1  0.08687874  0.74990559  0.29968613  1
  Se  Se210  1  0.08359662  0.76347801  0.81127783  1
  Se  Se211  1  0.40617966  0.08499740  0.29508539  1
  Se  Se212  1  0.42169091  0.08464923  0.80653459  1
  Se  Se213  1  0.42649879  0.41547097  0.31151909  1
  Se  Se214  1  0.41761472  0.41205444  0.80170914  1
  Se  Se215  1  0.42436262  0.75872926  0.31535482  1
  Se  Se216  1  0.41386661  0.75310789  0.81136143  1
  Se  Se217  1  0.75392863  0.09021445  0.31087495  1
  Se  Se218  1  0.75701573  0.09365395  0.81398618  1
  Se  Se219  1  0.75280687  0.41065899  0.30618499  1
  Se  Se220  1  0.73860612  0.40867045  0.79184329  1
  Se  Se221  1  0.74537093  0.74895046  0.29596390  1
  Se  Se222  1  0.75083411  0.75880060  0.81282837  1
  Se  Se223  1  0.24949609  0.08740219  0.19619993  1
  Se  Se224  1  0.26929150  0.06332431  0.68812806  1
  Se  Se225  1  0.24036327  0.41885141  0.19427190  1
  Se  Se226  1  0.25452543  0.41249682  0.69805426  1
  Se  Se227  1  0.25123310  0.75746058  0.19077658  1
  Se  Se228  1  0.23366678  0.75426756  0.68938628  1
  Se  Se229  1  0.57742091  0.08782694  0.18934342  1
  Se  Se230  1  0.58306691  0.10078545  0.68691849  1
  Se  Se231  1  0.58471221  0.41158161  0.19406437  1
  Se  Se232  1  0.58323680  0.40956258  0.68317827  1
  Se  Se233  1  0.58176025  0.74622973  0.20146407  1
  Se  Se234  1  0.57644132  0.76053180  0.69717082  1
  Se  Se235  1  0.90100082  0.09275661  0.19137930  1
  Se  Se236  1  0.92747226  0.08652357  0.70662679  1
  Se  Se237  1  0.91611274  0.41102112  0.20151181  1
  Se  Se238  1  0.91907073  0.41965712  0.68833071  1
  Se  Se239  1  0.92038655  0.74649044  0.19807050  1
  Se  Se240  1  0.90445525  0.76302845  0.69288209  1
  Se  Se241  1  0.07748948  0.24959957  0.19621388  1
  Se  Se242  1  0.10109538  0.23734642  0.69415060  1
  Se  Se243  1  0.08128679  0.58305407  0.20029738  1
  Se  Se244  1  0.08949706  0.57298990  0.69560588  1
  Se  Se245  1  0.09478757  0.91325218  0.18690077  1
  Se  Se246  1  0.07702279  0.92185647  0.69137332  1
  Se  Se247  1  0.42281050  0.24306394  0.18693553  1
  Se  Se248  1  0.41123861  0.24815663  0.69602191  1
  Se  Se249  1  0.41999859  0.57131787  0.19234868  1
  Se  Se250  1  0.42437302  0.57357378  0.68901503  1
  Se  Se251  1  0.41408963  0.92067128  0.20058661  1
  Se  Se252  1  0.41808907  0.91815832  0.70114988  1
  Se  Se253  1  0.72697249  0.25917164  0.19815236  1
  Se  Se254  1  0.75403794  0.24527386  0.69138201  1
  Se  Se255  1  0.74916766  0.57988837  0.19836864  1
  Se  Se256  1  0.74679074  0.57117110  0.67790392  1
  Se  Se257  1  0.75978526  0.91367237  0.18610201  1
  Se  Se258  1  0.74759179  0.91763414  0.69304784  1
