# generated using pymatgen
data_In86Cu29Se144
_symmetry_space_group_name_H-M   'P 1'
_cell_length_a   17.57819224
_cell_length_b   17.57483436
_cell_length_c   23.43397655
_cell_angle_alpha   89.97172897
_cell_angle_beta   89.99121225
_cell_angle_gamma   90.00940425
_symmetry_Int_Tables_number   1
_chemical_formula_structural   In86Cu29Se144
_chemical_formula_sum   'In86 Cu29 Se144'
_cell_volume   7239.54676126
_cell_formula_units_Z   1
loop_
 _symmetry_equiv_pos_site_id
 _symmetry_equiv_pos_as_xyz
  1  'x, y, z'
loop_
 _atom_site_type_symbol
 _atom_site_label
 _atom_site_symmetry_multiplicity
 _atom_site_fract_x
 _atom_site_fract_y
 _atom_site_fract_z
 _atom_site_occupancy
  In  In0  1  0.01390125  0.16689557  0.12146511  1
  In  In1  1  -0.00222684  0.17805143  0.64165444  1
  In  In2  1  -0.01844200  0.49684782  0.12225054  1
  In  In3  1  -0.00387776  0.49872103  0.63198192  1
  In  In4  1  -0.00675336  0.84712713  0.11912652  1
  In  In5  1  -0.00279730  0.83296763  0.62434787  1
  In  In6  1  0.32892717  0.16466649  0.12169882  1
  In  In7  1  0.33480069  0.15661682  0.63442850  1
  In  In8  1  0.34709270  0.48183272  0.12909686  1
  In  In9  1  0.32023288  0.49697826  0.61735088  1
  In  In10  1  0.34633535  0.83986782  0.12436509  1
  In  In11  1  0.33911866  0.85773293  0.62190197  1
  In  In12  1  0.65710505  0.17798390  0.13159275  1
  In  In13  1  0.66589166  0.18100735  0.60554278  1
  In  In14  1  0.66476027  0.48445435  0.11065696  1
  In  In15  1  0.68168515  0.50018726  0.61301607  1
  In  In16  1  0.67988617  0.83037996  0.12733375  1
  In  In17  1  0.66116868  0.81258610  0.63080976  1
  In  In18  1  0.16836855  -0.00979910  0.38008248  1
  In  In19  1  0.18337177  0.02514753  0.84711321  1
  In  In20  1  0.16290726  0.34506392  0.37857275  1
  In  In21  1  0.16496217  0.31905048  0.86116229  1
  In  In22  1  0.17281856  0.66480015  0.39922419  1
  In  In23  1  0.16100440  0.67770962  0.86748061  1
  In  In24  1  0.50920247  0.01032828  0.36779564  1
  In  In25  1  0.50081430  0.01312383  0.87478415  1
  In  In26  1  0.52494079  0.31657538  0.40561073  1
  In  In27  1  0.49954343  0.33953651  0.87464955  1
  In  In28  1  0.49872639  0.64722343  0.38138462  1
  In  In29  1  0.49862149  0.64545275  0.87033819  1
  In  In30  1  0.82520889  0.00912182  0.38787421  1
  In  In31  1  0.82924907  -0.01067241  0.87371252  1
  In  In32  1  0.83465180  0.32966666  0.37644166  1
  In  In33  1  0.83870945  0.34002917  0.87402605  1
  In  In34  1  0.83403364  0.66119461  0.38556585  1
  In  In35  1  0.83548803  0.66691416  0.86666184  1
  In  In36  1  -0.01544842  0.16736200  0.37748001  1
  In  In37  1  0.01117294  0.18112690  0.86107936  1
  In  In38  1  0.00292175  0.49279347  0.38153039  1
  In  In39  1  -0.01133395  0.49118086  0.85838009  1
  In  In40  1  0.00392902  0.82868121  0.38788931  1
  In  In41  1  -0.00709118  0.82953250  0.86215084  1
  In  In42  1  0.34708551  0.16333270  0.37807942  1
  In  In43  1  0.33591346  0.16726382  0.86695533  1
  In  In44  1  0.34309245  0.49353097  0.39557368  1
  In  In45  1  0.35286570  0.49255069  0.87089772  1
  In  In46  1  0.32426033  0.84132533  0.38396907  1
  In  In47  1  0.31854571  0.83287047  0.87104269  1
  In  In48  1  0.67197136  0.16800274  0.37612515  1
  In  In49  1  0.65795888  0.16735628  0.88466961  1
  In  In50  1  0.68584283  0.47112124  0.40087207  1
  In  In51  1  0.66452307  0.50240164  0.87247480  1
  In  In52  1  0.66139376  0.84846749  0.37638005  1
  In  In53  1  0.68068800  0.83755895  0.87208704  1
  In  In54  1  0.16014370  0.01390092  0.12306815  1
  In  In55  1  0.18005348  -0.00464197  0.63371094  1
  In  In56  1  0.17469878  0.32084294  0.12668175  1
  In  In57  1  0.15345674  0.33895488  0.64025645  1
  In  In58  1  0.16750977  0.66860657  0.12315320  1
  In  In59  1  0.15774287  0.65653913  0.61593236  1
  In  In60  1  0.49143441  0.01416498  0.13236279  1
  In  In61  1  0.48183932  -0.00086569  0.62301217  1
  In  In62  1  0.51088753  0.33398570  0.11295886  1
  In  In63  1  0.49629655  0.32270731  0.61229463  1
  In  In64  1  0.51298846  0.64988552  0.12641021  1
  In  In65  1  0.52017339  0.67183461  0.63461303  1
  In  In66  1  0.83867605  -0.01081183  0.12215719  1
  In  In67  1  0.84003092  0.01080565  0.61730205  1
  In  In68  1  0.82800568  0.33494258  0.13149066  1
  In  In69  1  0.84100710  0.35078822  0.60957505  1
  In  In70  1  0.82731888  0.66386727  0.11448291  1
  In  In71  1  0.83050690  0.66188224  0.63011825  1
  In  In72  1  0.16740160  0.16325152  0.50930178  1
  In  In73  1  0.50296579  0.82980453  0.50191267  1
  In  In74  1  0.33182874  0.66994007  0.27248813  1
  In  In75  1  -0.00436486  0.00275659  0.25042300  1
  In  In76  1  -0.00284956  0.66873924  0.25873346  1
  In  In77  1  0.33073831  0.66855871  0.74496053  1
  In  In78  1  0.66754619  0.66831415  0.25177001  1
  In  In79  1  0.50410167  0.83272852  -0.00143441  1
  In  In80  1  0.33754089  0.32814547  0.25911084  1
  In  In81  1  0.66209341  0.00059916  0.74825184  1
  In  In82  1  0.83188802  0.17130096  -0.00275556  1
  In  In83  1  0.67301817  0.33756467  0.74699225  1
  In  In84  1  0.16401293  0.49358584  -0.01204023  1
  In  In85  1  0.15659175  0.83876885  -0.01062427  1
  Cu  Cu86  1  -0.00770903  0.66519796  0.50846357  1
  Cu  Cu87  1  0.00580879  0.33465293  -0.00960801  1
  Cu  Cu88  1  0.16602889  0.50134922  0.74534568  1
  Cu  Cu89  1  -0.00072601  0.00165084  -0.00799249  1
  Cu  Cu90  1  0.15628030  0.49902461  0.25851972  1
  Cu  Cu91  1  0.33681368  0.65045494  0.00082230  1
  Cu  Cu92  1  0.82987466  0.83213121  0.74436491  1
  Cu  Cu93  1  0.49612462  0.84715354  0.25296334  1
  Cu  Cu94  1  0.32576078  0.00509718  -0.00489686  1
  Cu  Cu95  1  0.50589653  0.17213138  0.25426463  1
  Cu  Cu96  1  0.16590469  0.83548787  0.74175388  1
  Cu  Cu97  1  0.32549378  0.33593070  0.50540604  1
  Cu  Cu98  1  0.50060498  0.16349955  0.74317977  1
  Cu  Cu99  1  -0.01379189  0.66915743  -0.01098536  1
  Cu  Cu100  1  0.67181023  0.66416227  -0.00513218  1
  Cu  Cu101  1  0.50353364  0.49499373  0.25129773  1
  Cu  Cu102  1  -0.00055730  0.33462359  0.50881775  1
  Cu  Cu103  1  0.83102589  0.16808826  0.74901057  1
  Cu  Cu104  1  0.00297804  -0.00244468  0.50549013  1
  Cu  Cu105  1  0.33780521  0.32219874  -0.00265398  1
  Cu  Cu106  1  0.17798963  0.83701493  0.25687447  1
  Cu  Cu107  1  0.82673015  0.17015989  0.25322214  1
  Cu  Cu108  1  0.66831749  -0.00145843  0.50032750  1
  Cu  Cu109  1  0.16654536  0.16440210  0.24865203  1
  Cu  Cu110  1  0.50199469  0.49084690  0.74398779  1
  Cu  Cu111  1  0.67283084  0.66185536  0.50668226  1
  Cu  Cu112  1  0.83568802  0.83901005  0.25122721  1
  Cu  Cu113  1  0.82378568  0.48759046  0.24932815  1
  Cu  Cu114  1  0.66490356  0.00210376  0.00265709  1
  Se  Se115  1  0.08271306  0.08361977  0.04539141  1
  Se  Se116  1  0.07513465  0.07887622  0.56998245  1
  Se  Se117  1  0.08095856  0.41046918  0.06026945  1
  Se  Se118  1  0.08297467  0.41713642  0.56215288  1
  Se  Se119  1  0.07039636  0.74366185  0.05377171  1
  Se  Se120  1  0.08023265  0.75188415  0.55324518  1
  Se  Se121  1  0.41150349  0.08057363  0.05327164  1
  Se  Se122  1  0.41542631  0.09214064  0.55548556  1
  Se  Se123  1  0.41705277  0.41248082  0.04842249  1
  Se  Se124  1  0.41411446  0.41938061  0.55313297  1
  Se  Se125  1  0.41535029  0.73557301  0.05991398  1
  Se  Se126  1  0.41812266  0.74700513  0.56962633  1
  Se  Se127  1  0.74801394  0.08064401  0.06229609  1
  Se  Se128  1  0.75135606  0.08669071  0.54885169  1
  Se  Se129  1  0.77501266  0.42501695  0.05415836  1
  Se  Se130  1  0.73131216  0.39535019  0.54431006  1
  Se  Se131  1  0.74866493  0.75337103  0.04830081  1
  Se  Se132  1  0.75265388  0.74955558  0.55818323  1
  Se  Se133  1  0.24812192  0.24602885  0.04985453  1
  Se  Se134  1  0.24942429  0.25773304  0.56977864  1
  Se  Se135  1  0.25334649  0.57446969  0.06102735  1
  Se  Se136  1  0.25184752  0.58912948  0.54842760  1
  Se  Se137  1  0.25110044  0.91900736  0.05677044  1
  Se  Se138  1  0.25383429  0.93021671  0.55193048  1
  Se  Se139  1  0.58509670  0.24087549  0.04923966  1
  Se  Se140  1  0.58099614  0.25700207  0.53543633  1
  Se  Se141  1  0.58675548  0.58048589  0.04780997  1
  Se  Se142  1  0.58211159  0.58484668  0.55802594  1
  Se  Se143  1  0.58613085  0.92092761  0.06559809  1
  Se  Se144  1  0.59137814  0.92005208  0.56443208  1
  Se  Se145  1  0.92720058  0.25678413  0.05667632  1
  Se  Se146  1  0.92110766  0.24436766  0.56028054  1
  Se  Se147  1  0.91360509  0.58281690  0.04802949  1
  Se  Se148  1  0.91238783  0.57764760  0.55999589  1
  Se  Se149  1  0.91470696  0.91784103  0.04288535  1
  Se  Se150  1  0.91379408  0.91434292  0.55314661  1
  Se  Se151  1  0.07780738  0.25288049  0.44552670  1
  Se  Se152  1  0.08810955  0.24883646  0.94094715  1
  Se  Se153  1  0.07449810  0.58148722  0.45244048  1
  Se  Se154  1  0.07552813  0.59122421  0.93466336  1
  Se  Se155  1  0.08724534  0.91525553  0.45283753  1
  Se  Se156  1  0.07731729  0.92782372  0.92503628  1
  Se  Se157  1  0.40764213  0.25248951  0.45245754  1
  Se  Se158  1  0.42054835  0.24533440  0.93797368  1
  Se  Se159  1  0.39387187  0.60896774  0.45225911  1
  Se  Se160  1  0.42359081  0.57189693  0.94862867  1
  Se  Se161  1  0.42343005  0.92635597  0.44077674  1
  Se  Se162  1  0.40631776  0.91896443  0.93991282  1
  Se  Se163  1  0.75649427  0.24558057  0.44563047  1
  Se  Se164  1  0.74113538  0.26569746  0.94231598  1
  Se  Se165  1  0.75815257  0.57652987  0.45637428  1
  Se  Se166  1  0.75387409  0.58451039  0.93761661  1
  Se  Se167  1  0.75108465  0.91021655  0.45031300  1
  Se  Se168  1  0.74678833  0.91900004  0.94986816  1
  Se  Se169  1  0.25607314  0.07912087  0.44439859  1
  Se  Se170  1  0.24725866  0.08492275  0.93595040  1
  Se  Se171  1  0.24045803  0.41872926  0.45329399  1
  Se  Se172  1  0.26017291  0.40430360  0.93450538  1
  Se  Se173  1  0.25740380  0.75517478  0.45620101  1
  Se  Se174  1  0.25594716  0.73617263  0.94690429  1
  Se  Se175  1  0.58747171  0.08136105  0.44452389  1
  Se  Se176  1  0.57754837  0.08319603  0.95326973  1
  Se  Se177  1  0.54904087  0.45468843  0.43817695  1
  Se  Se178  1  0.58382408  0.41920027  0.94087389  1
  Se  Se179  1  0.59510713  0.73854906  0.44017548  1
  Se  Se180  1  0.58749293  0.74187787  0.93470677  1
  Se  Se181  1  0.92031445  0.08250883  0.45314684  1
  Se  Se182  1  0.91812809  0.08415877  0.93297774  1
  Se  Se183  1  0.91680720  0.41244470  0.44842368  1
  Se  Se184  1  0.92251805  0.42203379  0.94333206  1
  Se  Se185  1  0.91294292  0.74972927  0.45143946  1
  Se  Se186  1  0.90928972  0.75908431  0.93782820  1
  Se  Se187  1  0.24014251  0.24051972  0.31606151  1
  Se  Se188  1  0.25460146  0.24584743  0.79471690  1
  Se  Se189  1  0.23983748  0.57147597  0.32164363  1
  Se  Se190  1  0.24697402  0.57503742  0.81177216  1
  Se  Se191  1  0.25822809  0.92516549  0.30597663  1
  Se  Se192  1  0.25382274  0.91492143  0.79444427  1
  Se  Se193  1  0.58025167  0.25534715  0.31408221  1
  Se  Se194  1  0.58215435  0.24110061  0.80428921  1
  Se  Se195  1  0.58788619  0.57152314  0.31143017  1
  Se  Se196  1  0.58358517  0.57670674  0.79632145  1
  Se  Se197  1  0.59131000  0.92512245  0.29864797  1
  Se  Se198  1  0.57578266  0.91246586  0.81201998  1
  Se  Se199  1  0.91685781  0.25054025  0.30233386  1
  Se  Se200  1  0.91134546  0.25568460  0.80140017  1
  Se  Se201  1  0.90275035  0.57145585  0.30852265  1
  Se  Se202  1  0.93245233  0.60031227  0.79950879  1
  Se  Se203  1  0.91497257  0.91258905  0.31637267  1
  Se  Se204  1  0.90939853  0.91918484  0.79772548  1
  Se  Se205  1  0.08754540  0.08803853  0.31306418  1
  Se  Se206  1  0.05912424  0.06797617  0.80062717  1
  Se  Se207  1  0.07338823  0.41020050  0.30488183  1
  Se  Se208  1  0.08646628  0.41451805  0.79934401  1
  Se  Se209  1  0.09722072  0.75437807  0.31482971  1
  Se  Se210  1  0.08207950  0.75143735  0.79384851  1
  Se  Se211  1  0.41683941  0.08648046  0.29989756  1
  Se  Se212  1  0.41941393  0.08032592  0.79827894  1
  Se  Se213  1  0.42231410  0.42213844  0.31586620  1
  Se  Se214  1  0.41849672  0.40699142  0.79562029  1
  Se  Se215  1  0.43200208  0.76250430  0.31979846  1
  Se  Se216  1  0.41846704  0.75066726  0.81272194  1
  Se  Se217  1  0.75297638  0.07999456  0.30718913  1
  Se  Se218  1  0.74959851  0.09314475  0.81111214  1
  Se  Se219  1  0.74298075  0.41099428  0.30956255  1
  Se  Se220  1  0.76299380  0.43011632  0.80238792  1
  Se  Se221  1  0.75949432  0.75625830  0.31294945  1
  Se  Se222  1  0.74743421  0.75028987  0.79914627  1
  Se  Se223  1  0.24884458  0.08342992  0.19437386  1
  Se  Se224  1  0.24273287  0.08992061  0.70448072  1
  Se  Se225  1  0.24312517  0.42192345  0.19930240  1
  Se  Se226  1  0.25450105  0.41917133  0.69712842  1
  Se  Se227  1  0.25192418  0.75271420  0.19503736  1
  Se  Se228  1  0.24557587  0.75521535  0.68058969  1
  Se  Se229  1  0.58539915  0.08499616  0.19965325  1
  Se  Se230  1  0.58503855  0.09330577  0.68093304  1
  Se  Se231  1  0.58074325  0.41838598  0.18836966  1
  Se  Se232  1  0.58137329  0.41591609  0.68060830  1
  Se  Se233  1  0.57186637  0.75967644  0.19268026  1
  Se  Se234  1  0.57949352  0.75784353  0.71189777  1
  Se  Se235  1  0.90838086  0.09484129  0.18812396  1
  Se  Se236  1  0.91250956  0.08082872  0.69838198  1
  Se  Se237  1  0.91889514  0.41261020  0.19960381  1
  Se  Se238  1  0.91415431  0.40694675  0.69431157  1
  Se  Se239  1  0.91112213  0.75600400  0.18913251  1
  Se  Se240  1  0.91612061  0.74918418  0.69436330  1
  Se  Se241  1  0.08424790  0.24961777  0.19696012  1
  Se  Se242  1  0.09386948  0.24136353  0.70958520  1
  Se  Se243  1  0.08524011  0.58049879  0.19242801  1
  Se  Se244  1  0.08261143  0.58740931  0.69600603  1
  Se  Se245  1  0.09142911  0.90899352  0.19370365  1
  Se  Se246  1  0.07935751  0.91866716  0.69267592  1
  Se  Se247  1  0.42377705  0.24817017  0.18963901  1
  Se  Se248  1  0.42110022  0.25203177  0.69153235  1
  Se  Se249  1  0.41771475  0.58085298  0.20046797  1
  Se  Se250  1  0.41978296  0.57490577  0.68747010  1
  Se  Se251  1  0.40973095  0.92536798  0.19907523  1
  Se  Se252  1  0.42127375  0.91774021  0.70157125  1
  Se  Se253  1  0.74463967  0.25462616  0.20026014  1
  Se  Se254  1  0.75445494  0.24403915  0.68468639  1
  Se  Se255  1  0.75233175  0.57673907  0.18848009  1
  Se  Se256  1  0.73760572  0.58298592  0.69330934  1
  Se  Se257  1  0.75262835  0.92064021  0.19698567  1
  Se  Se258  1  0.75262172  0.91665801  0.68517896  1
