# generated using pymatgen
data_In86Cu29Se144
_symmetry_space_group_name_H-M   'P 1'
_cell_length_a   17.57647857
_cell_length_b   17.57771025
_cell_length_c   23.43783725
_cell_angle_alpha   90.00648261
_cell_angle_beta   89.99840804
_cell_angle_gamma   89.97790778
_symmetry_Int_Tables_number   1
_chemical_formula_structural   In86Cu29Se144
_chemical_formula_sum   'In86 Cu29 Se144'
_cell_volume   7241.21878346
_cell_formula_units_Z   1
loop_
 _symmetry_equiv_pos_site_id
 _symmetry_equiv_pos_as_xyz
  1  'x, y, z'
loop_
 _atom_site_type_symbol
 _atom_site_label
 _atom_site_symmetry_multiplicity
 _atom_site_fract_x
 _atom_site_fract_y
 _atom_site_fract_z
 _atom_site_occupancy
  In  In0  1  0.02171142  0.17103141  0.11734979  1
  In  In1  1  0.00055245  0.16525892  0.62356931  1
  In  In2  1  0.00453407  0.50916441  0.13475893  1
  In  In3  1  -0.00297712  0.47374686  0.62877605  1
  In  In4  1  -0.00843531  0.83381621  0.11303383  1
  In  In5  1  0.00241091  0.85114977  0.63145747  1
  In  In6  1  0.33069990  0.16811154  0.12530682  1
  In  In7  1  0.34219078  0.17589130  0.61648291  1
  In  In8  1  0.31293880  0.48428200  0.12980078  1
  In  In9  1  0.32926667  0.49554094  0.62363477  1
  In  In10  1  0.34088846  0.84733382  0.11928372  1
  In  In11  1  0.31565699  0.82897891  0.63644843  1
  In  In12  1  0.65892475  0.17829693  0.13228138  1
  In  In13  1  0.66234565  0.15661475  0.62172556  1
  In  In14  1  0.66646187  0.48028662  0.12840178  1
  In  In15  1  0.66251587  0.50923078  0.62195087  1
  In  In16  1  0.68487924  0.84038681  0.12284030  1
  In  In17  1  0.68162421  0.83056425  0.62500052  1
  In  In18  1  0.17971754  0.00183218  0.37222819  1
  In  In19  1  0.15460981  0.01144254  0.88591249  1
  In  In20  1  0.16505788  0.33275871  0.37479211  1
  In  In21  1  0.15685906  0.32338842  0.86823239  1
  In  In22  1  0.15100574  0.66796767  0.37305822  1
  In  In23  1  0.18448378  0.67340044  0.87419444  1
  In  In24  1  0.50951448  0.01447919  0.36977257  1
  In  In25  1  0.51461660  -0.00198902  0.87092339  1
  In  In26  1  0.49896379  0.32951909  0.37841122  1
  In  In27  1  0.48177805  0.33410109  0.87446838  1
  In  In28  1  0.48566481  0.66240910  0.37752838  1
  In  In29  1  0.48575746  0.67584885  0.87116796  1
  In  In30  1  0.82728978  0.01218014  0.38053942  1
  In  In31  1  0.82637932  -0.00728012  0.86964995  1
  In  In32  1  0.82704326  0.33139851  0.36894121  1
  In  In33  1  0.85172936  0.33227372  0.87767922  1
  In  In34  1  0.84935431  0.66221246  0.37637873  1
  In  In35  1  0.83993900  0.66147752  0.88425620  1
  In  In36  1  -0.00758717  0.17836441  0.37858243  1
  In  In37  1  0.01261437  0.17745298  0.87092326  1
  In  In38  1  0.01043816  0.50354525  0.36329545  1
  In  In39  1  -0.00188757  0.48507629  0.87556490  1
  In  In40  1  -0.00026004  0.82245843  0.37460762  1
  In  In41  1  -0.00530547  0.84500732  0.88545024  1
  In  In42  1  0.33262545  0.16950375  0.37694305  1
  In  In43  1  0.31985137  0.17659673  0.87989990  1
  In  In44  1  0.33851389  0.48890509  0.38245334  1
  In  In45  1  0.33452296  0.49772197  0.86613708  1
  In  In46  1  0.32048451  0.83745001  0.37102450  1
  In  In47  1  0.32524016  0.81842612  0.87163492  1
  In  In48  1  0.66801431  0.16796550  0.37583162  1
  In  In49  1  0.67359675  0.15023036  0.87552458  1
  In  In50  1  0.66459779  0.48240229  0.37489889  1
  In  In51  1  0.67314043  0.50663567  0.87759325  1
  In  In52  1  0.67007248  0.85207717  0.37421360  1
  In  In53  1  0.66408779  0.84687831  0.87409820  1
  In  In54  1  0.17201360  0.01285368  0.10984451  1
  In  In55  1  0.15472002  -0.00009445  0.62742715  1
  In  In56  1  0.17519742  0.33527018  0.13780607  1
  In  In57  1  0.16544458  0.33046773  0.62191653  1
  In  In58  1  0.15404576  0.65740891  0.12344101  1
  In  In59  1  0.17961613  0.66808799  0.62973738  1
  In  In60  1  0.49020647  0.01796803  0.13101208  1
  In  In61  1  0.49427865  0.01475177  0.62622548  1
  In  In62  1  0.50370883  0.32341125  0.13151693  1
  In  In63  1  0.49281715  0.32367444  0.61768500  1
  In  In64  1  0.49658045  0.67143228  0.12523396  1
  In  In65  1  0.49702080  0.65376666  0.62274365  1
  In  In66  1  0.84040756  -0.01049394  0.12406333  1
  In  In67  1  0.83555429  0.00082933  0.62680533  1
  In  In68  1  0.83355114  0.33733023  0.12829812  1
  In  In69  1  0.85466144  0.33199079  0.62721162  1
  In  In70  1  0.84835628  0.67592770  0.11806020  1
  In  In71  1  0.82146468  0.66676878  0.62437691  1
  In  In72  1  0.16214492  0.83476668  0.50442229  1
  In  In73  1  0.66171038  0.66816074  0.74803695  1
  In  In74  1  0.83131749  0.49484750  0.50057866  1
  In  In75  1  0.33380690  -0.00124472  0.75237010  1
  In  In76  1  0.00465642  0.66366670  0.75970929  1
  In  In77  1  0.84006478  0.16050317  0.00275160  1
  In  In78  1  0.67104794  0.66870655  0.24755912  1
  In  In79  1  0.66899077  0.32739379  0.74984986  1
  In  In80  1  0.16410799  0.50000359  0.00147419  1
  In  In81  1  0.50342330  0.49824865  -0.00279436  1
  In  In82  1  0.00105864  0.00373672  0.24163947  1
  In  In83  1  0.50080044  0.83425791  0.50326022  1
  In  In84  1  0.49927120  0.83812925  -0.00593612  1
  In  In85  1  0.32916415  0.66434699  0.24773682  1
  Cu  Cu86  1  0.49893807  0.16798171  0.74586781  1
  Cu  Cu87  1  0.17142537  0.16795183  0.24937280  1
  Cu  Cu88  1  0.16660786  0.83710379  0.24612135  1
  Cu  Cu89  1  0.83595395  0.83350540  0.75144441  1
  Cu  Cu90  1  0.49130197  0.49756098  0.74495289  1
  Cu  Cu91  1  -0.00438854  0.00295789  0.50296648  1
  Cu  Cu92  1  0.67470908  0.66533138  0.00212026  1
  Cu  Cu93  1  0.67558414  0.00347884  0.49964505  1
  Cu  Cu94  1  0.00446866  0.32893743  0.49787374  1
  Cu  Cu95  1  0.82957761  0.16794184  0.25135249  1
  Cu  Cu96  1  0.16744588  0.16961723  0.74795073  1
  Cu  Cu97  1  0.33079997  0.65537975  0.50278633  1
  Cu  Cu98  1  0.66610867  0.32600714  0.49805145  1
  Cu  Cu99  1  0.32807042  0.32893984  0.00259683  1
  Cu  Cu100  1  0.66517787  0.00173678  -0.00042688  1
  Cu  Cu101  1  0.32900034  0.33325959  0.49945761  1
  Cu  Cu102  1  -0.00194405  0.66440395  0.49936458  1
  Cu  Cu103  1  0.83727361  0.50166377  0.25005571  1
  Cu  Cu104  1  0.49987255  0.84888232  0.24766622  1
  Cu  Cu105  1  0.83848128  0.83690726  0.24543258  1
  Cu  Cu106  1  0.49717724  0.49233711  0.25355009  1
  Cu  Cu107  1  0.00161475  0.66759037  -0.00071225  1
  Cu  Cu108  1  0.66820274  0.32640438  0.00629937  1
  Cu  Cu109  1  0.49532802  0.16958774  0.25420323  1
  Cu  Cu110  1  0.16846386  0.49582673  0.74823409  1
  Cu  Cu111  1  0.33203053  0.00761242  -0.00209580  1
  Cu  Cu112  1  0.84032403  0.15896159  0.75152396  1
  Cu  Cu113  1  0.33809964  0.00617370  0.49670759  1
  Cu  Cu114  1  0.66435020  0.66892834  0.50135488  1
  Se  Se115  1  0.05932109  0.06316982  0.04953298  1
  Se  Se116  1  0.08484904  0.08294916  0.55307662  1
  Se  Se117  1  0.08158941  0.41272507  0.06631017  1
  Se  Se118  1  0.08342520  0.41571878  0.55133665  1
  Se  Se119  1  0.08534137  0.74839836  0.05347232  1
  Se  Se120  1  0.07397408  0.74323981  0.56446747  1
  Se  Se121  1  0.41542787  0.08940374  0.05262196  1
  Se  Se122  1  0.42330378  0.08894368  0.54805994  1
  Se  Se123  1  0.41118769  0.41150230  0.05990343  1
  Se  Se124  1  0.41448344  0.41565209  0.55365587  1
  Se  Se125  1  0.41050764  0.74343722  0.05240473  1
  Se  Se126  1  0.40260702  0.74724875  0.56020790  1
  Se  Se127  1  0.74147809  0.08057266  0.06403410  1
  Se  Se128  1  0.75766347  0.08600468  0.55518280  1
  Se  Se129  1  0.75141582  0.41428485  0.05338716  1
  Se  Se130  1  0.74342286  0.40449362  0.56333245  1
  Se  Se131  1  0.75580031  0.75333727  0.05249930  1
  Se  Se132  1  0.75326189  0.75024655  0.54866751  1
  Se  Se133  1  0.24314060  0.25267528  0.05985118  1
  Se  Se134  1  0.24629278  0.24704548  0.55133724  1
  Se  Se135  1  0.26057129  0.58784004  0.05920010  1
  Se  Se136  1  0.24221099  0.57876243  0.55545627  1
  Se  Se137  1  0.25319358  0.91810805  0.04848245  1
  Se  Se138  1  0.25977406  0.92552039  0.55848914  1
  Se  Se139  1  0.57808982  0.24664226  0.05405505  1
  Se  Se140  1  0.58335113  0.24385118  0.55386572  1
  Se  Se141  1  0.59242755  0.58873523  0.06215712  1
  Se  Se142  1  0.58011158  0.58168672  0.54817438  1
  Se  Se143  1  0.58379697  0.92373633  0.06253559  1
  Se  Se144  1  0.59213408  0.92545637  0.56078836  1
  Se  Se145  1  0.92476454  0.25804652  0.05817704  1
  Se  Se146  1  0.91882402  0.24767598  0.55108566  1
  Se  Se147  1  0.92483560  0.58036136  0.05585358  1
  Se  Se148  1  0.92142167  0.58366332  0.56326363  1
  Se  Se149  1  0.91412443  0.92140986  0.04553077  1
  Se  Se150  1  0.91692598  0.91546098  0.55593197  1
  Se  Se151  1  0.08895396  0.24449364  0.44633739  1
  Se  Se152  1  0.08148074  0.25785809  0.94763516  1
  Se  Se153  1  0.07856374  0.58147025  0.44449629  1
  Se  Se154  1  0.07961781  0.59006116  0.93529630  1
  Se  Se155  1  0.07656649  0.92496173  0.43916495  1
  Se  Se156  1  0.09010957  0.91286080  0.95227958  1
  Se  Se157  1  0.41555123  0.24893382  0.44837069  1
  Se  Se158  1  0.41454577  0.24895606  0.94869378  1
  Se  Se159  1  0.41926947  0.57695560  0.45085548  1
  Se  Se160  1  0.40823321  0.58646437  0.94235547  1
  Se  Se161  1  0.41298000  0.91982099  0.43735686  1
  Se  Se162  1  0.40806323  0.92684618  0.93427225  1
  Se  Se163  1  0.75471277  0.24986049  0.44423652  1
  Se  Se164  1  0.74778200  0.25129175  0.94078799  1
  Se  Se165  1  0.74222148  0.58715573  0.43785477  1
  Se  Se166  1  0.75552756  0.57733439  0.95169521  1
  Se  Se167  1  0.75704762  0.91599288  0.44881357  1
  Se  Se168  1  0.74836813  0.91757940  0.94752592  1
  Se  Se169  1  0.24812310  0.08541133  0.44669713  1
  Se  Se170  1  0.24357123  0.09338967  0.95102657  1
  Se  Se171  1  0.24371636  0.41637866  0.44764480  1
  Se  Se172  1  0.25477244  0.41196070  0.93932998  1
  Se  Se173  1  0.25353343  0.74151406  0.44352501  1
  Se  Se174  1  0.25443140  0.74906171  0.95213023  1
  Se  Se175  1  0.58760227  0.08389578  0.44750087  1
  Se  Se176  1  0.58114710  0.08395551  0.94687363  1
  Se  Se177  1  0.58206075  0.41364607  0.44937014  1
  Se  Se178  1  0.59202711  0.40356817  0.93866847  1
  Se  Se179  1  0.58815586  0.74697858  0.43606962  1
  Se  Se180  1  0.59152026  0.73954007  0.93959858  1
  Se  Se181  1  0.91690218  0.08824795  0.44703468  1
  Se  Se182  1  0.91973729  0.08169612  0.93031196  1
  Se  Se183  1  0.92280381  0.41226677  0.43805267  1
  Se  Se184  1  0.91567965  0.41944225  0.95126574  1
  Se  Se185  1  0.91579574  0.75150759  0.44946223  1
  Se  Se186  1  0.91488764  0.75235111  0.94978765  1
  Se  Se187  1  0.25156794  0.25060903  0.30607197  1
  Se  Se188  1  0.25192658  0.25347476  0.80005306  1
  Se  Se189  1  0.24869620  0.58068642  0.31655141  1
  Se  Se190  1  0.24894159  0.58199720  0.80128782  1
  Se  Se191  1  0.25148206  0.92062092  0.29638791  1
  Se  Se192  1  0.24207362  0.92101358  0.81677224  1
  Se  Se193  1  0.58273170  0.25003896  0.30776003  1
  Se  Se194  1  0.57762361  0.24254115  0.81281256  1
  Se  Se195  1  0.57654769  0.58054596  0.30808526  1
  Se  Se196  1  0.57102146  0.57409702  0.80882771  1
  Se  Se197  1  0.58745335  0.92509152  0.30186697  1
  Se  Se198  1  0.57936921  0.90906491  0.79896559  1
  Se  Se199  1  0.91547677  0.25127315  0.30165664  1
  Se  Se200  1  0.91909239  0.24909370  0.80157177  1
  Se  Se201  1  0.92135380  0.58824693  0.29898335  1
  Se  Se202  1  0.90655525  0.57241060  0.80863174  1
  Se  Se203  1  0.91527194  0.91745714  0.30988696  1
  Se  Se204  1  0.91987693  0.91563614  0.80461899  1
  Se  Se205  1  0.08670398  0.08910873  0.30899568  1
  Se  Se206  1  0.08721124  0.08551771  0.80309240  1
  Se  Se207  1  0.07067638  0.39768393  0.30399678  1
  Se  Se208  1  0.08178413  0.41536202  0.80079770  1
  Se  Se209  1  0.08319702  0.75427304  0.29889477  1
  Se  Se210  1  0.08708050  0.75953256  0.81642866  1
  Se  Se211  1  0.41153274  0.08370315  0.30553231  1
  Se  Se212  1  0.41977308  0.09319776  0.81260305  1
  Se  Se213  1  0.41471878  0.41085887  0.30769762  1
  Se  Se214  1  0.41081662  0.41003812  0.79659698  1
  Se  Se215  1  0.42300478  0.76125399  0.30473108  1
  Se  Se216  1  0.41715943  0.75756120  0.79830152  1
  Se  Se217  1  0.74808488  0.08335316  0.30406307  1
  Se  Se218  1  0.74851463  0.07787615  0.79812508  1
  Se  Se219  1  0.74937583  0.41908764  0.29907470  1
  Se  Se220  1  0.75498526  0.41697558  0.81156623  1
  Se  Se221  1  0.76005161  0.75736201  0.30969903  1
  Se  Se222  1  0.75675125  0.75108026  0.81143064  1
  Se  Se223  1  0.24585451  0.08143343  0.19145645  1
  Se  Se224  1  0.25009406  0.09086046  0.68728365  1
  Se  Se225  1  0.24431579  0.42108175  0.21218156  1
  Se  Se226  1  0.24903437  0.41123646  0.69295334  1
  Se  Se227  1  0.24760121  0.75780702  0.18440565  1
  Se  Se228  1  0.24209718  0.74829235  0.70812076  1
  Se  Se229  1  0.58222029  0.08833975  0.20002407  1
  Se  Se230  1  0.58421085  0.08211453  0.69867182  1
  Se  Se231  1  0.58284263  0.40957108  0.20128878  1
  Se  Se232  1  0.57873826  0.41985631  0.68941564  1
  Se  Se233  1  0.57878725  0.76421988  0.18983499  1
  Se  Se234  1  0.57530338  0.75523688  0.68455686  1
  Se  Se235  1  0.91090356  0.09744632  0.18496957  1
  Se  Se236  1  0.92443830  0.07817184  0.69523109  1
  Se  Se237  1  0.91931977  0.41774179  0.19652479  1
  Se  Se238  1  0.91151440  0.41556034  0.70588729  1
  Se  Se239  1  0.92323292  0.75481907  0.19342376  1
  Se  Se240  1  0.91277134  0.74906759  0.69210096  1
  Se  Se241  1  0.08293469  0.24881511  0.19878227  1
  Se  Se242  1  0.08162055  0.25026467  0.69281149  1
  Se  Se243  1  0.09564799  0.58005994  0.20417540  1
  Se  Se244  1  0.08461597  0.57526272  0.68943124  1
  Se  Se245  1  0.08960206  0.91406312  0.18163223  1
  Se  Se246  1  0.10019206  0.90645525  0.70051535  1
  Se  Se247  1  0.41101398  0.24998020  0.19769356  1
  Se  Se248  1  0.41484552  0.25150162  0.69541671  1
  Se  Se249  1  0.42277195  0.57183445  0.18935561  1
  Se  Se250  1  0.40910815  0.58380254  0.69370142  1
  Se  Se251  1  0.41086472  0.92623326  0.19606866  1
  Se  Se252  1  0.42238294  0.91086300  0.68865269  1
  Se  Se253  1  0.74945079  0.25596841  0.19752837  1
  Se  Se254  1  0.75988040  0.23924967  0.68917592  1
  Se  Se255  1  0.75750729  0.57959704  0.18558437  1
  Se  Se256  1  0.75662427  0.57081940  0.69704791  1
  Se  Se257  1  0.75221459  0.92325264  0.19923145  1
  Se  Se258  1  0.75253123  0.91602920  0.69698278  1
