# generated using pymatgen
data_In86Cu29Se144
_symmetry_space_group_name_H-M   'P 1'
_cell_length_a   17.57795272
_cell_length_b   17.58363501
_cell_length_c   23.43825364
_cell_angle_alpha   89.99261165
_cell_angle_beta   90.00177514
_cell_angle_gamma   90.02318317
_symmetry_Int_Tables_number   1
_chemical_formula_structural   In86Cu29Se144
_chemical_formula_sum   'In86 Cu29 Se144'
_cell_volume   7244.39567544
_cell_formula_units_Z   1
loop_
 _symmetry_equiv_pos_site_id
 _symmetry_equiv_pos_as_xyz
  1  'x, y, z'
loop_
 _atom_site_type_symbol
 _atom_site_label
 _atom_site_symmetry_multiplicity
 _atom_site_fract_x
 _atom_site_fract_y
 _atom_site_fract_z
 _atom_site_occupancy
  In  In0  1  0.01554970  0.17216224  0.11483902  1
  In  In1  1  -0.00819445  0.17912960  0.63046248  1
  In  In2  1  0.00659663  0.49631225  0.11651971  1
  In  In3  1  -0.00464026  0.50521657  0.63152519  1
  In  In4  1  -0.00157163  0.82938811  0.12518957  1
  In  In5  1  0.00561610  0.82149667  0.63892528  1
  In  In6  1  0.32620408  0.18018679  0.11806058  1
  In  In7  1  0.33850864  0.17389105  0.63137797  1
  In  In8  1  0.31217354  0.47447667  0.09954511  1
  In  In9  1  0.33416860  0.50152135  0.64170117  1
  In  In10  1  0.32805227  0.82449242  0.11757691  1
  In  In11  1  0.32420262  0.82776938  0.62418657  1
  In  In12  1  0.67555386  0.16168961  0.13280235  1
  In  In13  1  0.67621460  0.16052997  0.62952643  1
  In  In14  1  0.65690095  0.49354999  0.11537775  1
  In  In15  1  0.66585027  0.48557803  0.62646870  1
  In  In16  1  0.67278407  0.84298582  0.12508311  1
  In  In17  1  0.66711025  0.84809578  0.62913941  1
  In  In18  1  0.15403637  -0.00885050  0.37464899  1
  In  In19  1  0.14920126  0.00619787  0.88925843  1
  In  In20  1  0.16702704  0.33612998  0.36101453  1
  In  In21  1  0.16287728  0.33559760  0.88299131  1
  In  In22  1  0.15887654  0.68133938  0.36878388  1
  In  In23  1  0.16865726  0.66704717  0.87653772  1
  In  In24  1  0.49973307  -0.01026236  0.37640563  1
  In  In25  1  0.50065188  -0.01502652  0.86750173  1
  In  In26  1  0.49900379  0.33068297  0.36502278  1
  In  In27  1  0.50109882  0.33631279  0.87839370  1
  In  In28  1  0.50897612  0.67105282  0.37704956  1
  In  In29  1  0.48924690  0.67565288  0.87736373  1
  In  In30  1  0.83715991  0.01862572  0.37856654  1
  In  In31  1  0.83568994  -0.00058209  0.85937667  1
  In  In32  1  0.83445753  0.33463775  0.37312363  1
  In  In33  1  0.84625121  0.34553499  0.86870539  1
  In  In34  1  0.83169658  0.65172605  0.37686814  1
  In  In35  1  0.83644650  0.65019324  0.87520303  1
  In  In36  1  -0.01030602  0.16604409  0.37488052  1
  In  In37  1  0.00534175  0.17289852  0.87398396  1
  In  In38  1  -0.00662966  0.49183233  0.36451491  1
  In  In39  1  0.00056324  0.49755186  0.87909587  1
  In  In40  1  0.01022740  0.83240382  0.37347548  1
  In  In41  1  0.00985416  0.84347722  0.86304640  1
  In  In42  1  0.32463187  0.17581846  0.37216201  1
  In  In43  1  0.31567650  0.17479109  0.88449093  1
  In  In44  1  0.34027066  0.49516098  0.36828375  1
  In  In45  1  0.32408540  0.49729244  0.88552211  1
  In  In46  1  0.33166296  0.83153915  0.37992839  1
  In  In47  1  0.34153360  0.82578270  0.87596567  1
  In  In48  1  0.67475342  0.17861190  0.36703501  1
  In  In49  1  0.66653218  0.16793111  0.86668467  1
  In  In50  1  0.68039167  0.50370721  0.37330593  1
  In  In51  1  0.68142533  0.49058866  0.88384129  1
  In  In52  1  0.65588256  0.83016867  0.37562291  1
  In  In53  1  0.65483043  0.83555983  0.86598024  1
  In  In54  1  0.15740321  -0.00101126  0.10660548  1
  In  In55  1  0.16987936  -0.01670233  0.62741555  1
  In  In56  1  0.16334717  0.33293112  0.11791539  1
  In  In57  1  0.16327374  0.33944800  0.63819643  1
  In  In58  1  0.15953137  0.66519582  0.12176030  1
  In  In59  1  0.15830023  0.67388472  0.63794639  1
  In  In60  1  0.51521387  -0.00362835  0.12242853  1
  In  In61  1  0.51067393  -0.00312991  0.62986410  1
  In  In62  1  0.49387107  0.33833525  0.12562809  1
  In  In63  1  0.49976651  0.33563776  0.63758873  1
  In  In64  1  0.49435500  0.66081845  0.11446101  1
  In  In65  1  0.48590181  0.66852759  0.63158043  1
  In  In66  1  0.82861324  -0.01381813  0.12966309  1
  In  In67  1  0.82312248  0.00697253  0.63382083  1
  In  In68  1  0.83249398  0.33592004  0.12431456  1
  In  In69  1  0.83425406  0.33252542  0.62372769  1
  In  In70  1  0.85645679  0.66508440  0.12886087  1
  In  In71  1  0.85252190  0.66607573  0.62762290  1
  In  In72  1  0.84151837  0.16874320  -0.00009452  1
  In  In73  1  0.83661301  0.82987155  0.00334505  1
  In  In74  1  0.49362763  0.16838573  -0.00356429  1
  In  In75  1  0.16454055  0.16053693  0.49679654  1
  In  In76  1  0.16380239  0.50552798  0.50304764  1
  In  In77  1  0.33007619  0.00610237  0.75447600  1
  In  In78  1  -0.00354054  0.00424881  0.24496808  1
  In  In79  1  0.67104709  0.66583922  0.25318602  1
  In  In80  1  0.32912054  0.65772729  0.24027527  1
  In  In81  1  0.33354954  0.00328421  0.25326360  1
  In  In82  1  0.83535368  0.83453424  0.50654707  1
  In  In83  1  0.50426261  0.16241107  0.50827064  1
  In  In84  1  0.50349788  0.50271474  0.49683273  1
  In  In85  1  0.66699173  0.66454900  0.75259182  1
  Cu  Cu86  1  0.16749597  0.49576272  0.76151456  1
  Cu  Cu87  1  0.83178828  0.17172464  0.74869673  1
  Cu  Cu88  1  0.83586808  0.17464208  0.25081735  1
  Cu  Cu89  1  0.66650554  0.66883672  -0.00694481  1
  Cu  Cu90  1  0.16297869  0.49844101  0.23681389  1
  Cu  Cu91  1  0.49758169  0.48755246  0.24241244  1
  Cu  Cu92  1  0.33308619  0.33691709  0.50353087  1
  Cu  Cu93  1  0.49536144  0.17709098  0.75357683  1
  Cu  Cu94  1  -0.00959855  0.33416020  0.49761385  1
  Cu  Cu95  1  0.33657087  -0.00954649  -0.00362457  1
  Cu  Cu96  1  0.33543410  -0.01398250  0.49995517  1
  Cu  Cu97  1  0.66850425  0.00156282  0.50525596  1
  Cu  Cu98  1  0.67819914  0.33090087  0.49881626  1
  Cu  Cu99  1  0.00245506  0.66564233  -0.00099830  1
  Cu  Cu100  1  0.00419086  0.66665005  0.50725317  1
  Cu  Cu101  1  0.17088028  0.17350270  0.24111214  1
  Cu  Cu102  1  0.32697877  0.67375258  0.50506673  1
  Cu  Cu103  1  0.50172431  0.83313761  0.24878401  1
  Cu  Cu104  1  0.83662778  0.49126071  0.75238987  1
  Cu  Cu105  1  0.49666697  0.50011054  0.76088580  1
  Cu  Cu106  1  0.50514102  0.16754889  0.24125324  1
  Cu  Cu107  1  0.66687824  0.66907588  0.49939586  1
  Cu  Cu108  1  0.00056866  -0.00488444  0.50250876  1
  Cu  Cu109  1  0.17172650  0.83208715  0.75531202  1
  Cu  Cu110  1  0.33971464  0.67375785  -0.00597154  1
  Cu  Cu111  1  0.66745810  0.32937411  0.00029182  1
  Cu  Cu112  1  0.66555565  -0.00835247  -0.00382207  1
  Cu  Cu113  1  0.83582744  0.49574687  0.24598268  1
  Cu  Cu114  1  0.15978403  0.16986095  0.76095766  1
  Se  Se115  1  0.07874523  0.08528010  0.04112005  1
  Se  Se116  1  0.08020303  0.07682791  0.56408784  1
  Se  Se117  1  0.10767774  0.43551497  0.04715371  1
  Se  Se118  1  0.07678288  0.40773044  0.55841597  1
  Se  Se119  1  0.08109427  0.75296778  0.05315764  1
  Se  Se120  1  0.08524356  0.75115262  0.56035880  1
  Se  Se121  1  0.41109572  0.07334300  0.06054355  1
  Se  Se122  1  0.40488415  0.07255836  0.56183086  1
  Se  Se123  1  0.43122727  0.42255630  0.04945921  1
  Se  Se124  1  0.41300576  0.41712001  0.56211616  1
  Se  Se125  1  0.42295562  0.75697415  0.04959891  1
  Se  Se126  1  0.41670980  0.75171941  0.55624899  1
  Se  Se127  1  0.74602665  0.07285130  0.05494636  1
  Se  Se128  1  0.75433794  0.08529166  0.55401407  1
  Se  Se129  1  0.75067076  0.41450678  0.05243632  1
  Se  Se130  1  0.75400229  0.41931785  0.55321485  1
  Se  Se131  1  0.74546222  0.73812768  0.06283640  1
  Se  Se132  1  0.74529760  0.74268023  0.56579052  1
  Se  Se133  1  0.23589685  0.24258818  0.04722775  1
  Se  Se134  1  0.25020605  0.25580071  0.55974544  1
  Se  Se135  1  0.25966172  0.59925091  0.05661469  1
  Se  Se136  1  0.25623760  0.58813798  0.56611706  1
  Se  Se137  1  0.24920970  0.91104652  0.04983373  1
  Se  Se138  1  0.24520611  0.90896630  0.55107413  1
  Se  Se139  1  0.59146745  0.24581875  0.06025798  1
  Se  Se140  1  0.58997510  0.26215640  0.56171917  1
  Se  Se141  1  0.58322727  0.58388086  0.04731567  1
  Se  Se142  1  0.58728168  0.59044022  0.56358212  1
  Se  Se143  1  0.58425832  0.90810156  0.05003186  1
  Se  Se144  1  0.58248766  0.91708745  0.55334744  1
  Se  Se145  1  0.92979316  0.26618827  0.05249768  1
  Se  Se146  1  0.91322557  0.24724132  0.55188634  1
  Se  Se147  1  0.91829352  0.58188603  0.05109487  1
  Se  Se148  1  0.91907832  0.57878761  0.55325699  1
  Se  Se149  1  0.92559322  0.92920357  0.05600043  1
  Se  Se150  1  0.92410848  0.92033957  0.56909573  1
  Se  Se151  1  0.08083412  0.26072451  0.43933609  1
  Se  Se152  1  0.09376726  0.23644322  0.94846530  1
  Se  Se153  1  0.07571975  0.58896266  0.43808548  1
  Se  Se154  1  0.08565801  0.58377337  0.94490360  1
  Se  Se155  1  0.08329868  0.91126581  0.45041643  1
  Se  Se156  1  0.07998776  0.90257930  0.94829613  1
  Se  Se157  1  0.41374938  0.25482655  0.44541721  1
  Se  Se158  1  0.40124372  0.26628959  0.94925496  1
  Se  Se159  1  0.40441579  0.59350254  0.44159939  1
  Se  Se160  1  0.41860406  0.58258667  0.94530546  1
  Se  Se161  1  0.42231374  0.90741335  0.44702627  1
  Se  Se162  1  0.42398527  0.91259219  0.94426125  1
  Se  Se163  1  0.75660674  0.24634451  0.44374434  1
  Se  Se164  1  0.74782152  0.25268536  0.93833309  1
  Se  Se165  1  0.74930968  0.58052737  0.45207074  1
  Se  Se166  1  0.75586426  0.58140641  0.95220522  1
  Se  Se167  1  0.74722431  0.92168300  0.44165526  1
  Se  Se168  1  0.75039946  0.91781862  0.93644204  1
  Se  Se169  1  0.25991317  0.06942565  0.43820174  1
  Se  Se170  1  0.25072321  0.07745393  0.95049005  1
  Se  Se171  1  0.25319940  0.41246895  0.44090482  1
  Se  Se172  1  0.22588554  0.43228322  0.95545476  1
  Se  Se173  1  0.24432769  0.74812111  0.44437365  1
  Se  Se174  1  0.24999698  0.75425780  0.94453643  1
  Se  Se175  1  0.59066045  0.08048669  0.44019710  1
  Se  Se176  1  0.58762958  0.07783195  0.93950673  1
  Se  Se177  1  0.59038217  0.40652836  0.43931568  1
  Se  Se178  1  0.58570324  0.41509709  0.94827809  1
  Se  Se179  1  0.58024011  0.75266911  0.45165020  1
  Se  Se180  1  0.58484235  0.75358976  0.94162737  1
  Se  Se181  1  0.92231318  0.08631771  0.45328928  1
  Se  Se182  1  0.91854995  0.07426878  0.93582924  1
  Se  Se183  1  0.91448915  0.42190346  0.44248611  1
  Se  Se184  1  0.91060461  0.42145409  0.94758512  1
  Se  Se185  1  0.92124751  0.74351532  0.44369582  1
  Se  Se186  1  0.92253590  0.74479907  0.93787279  1
  Se  Se187  1  0.25581110  0.25496497  0.29559648  1
  Se  Se188  1  0.24551515  0.25471581  0.80874920  1
  Se  Se189  1  0.23803988  0.57276102  0.30732501  1
  Se  Se190  1  0.25301255  0.58205667  0.80939408  1
  Se  Se191  1  0.24195549  0.90751009  0.30632117  1
  Se  Se192  1  0.24317816  0.91849480  0.81730468  1
  Se  Se193  1  0.58556678  0.25238915  0.29807758  1
  Se  Se194  1  0.58213243  0.25763929  0.80559889  1
  Se  Se195  1  0.57204216  0.57073992  0.30573817  1
  Se  Se196  1  0.58353875  0.57649778  0.81890103  1
  Se  Se197  1  0.58315745  0.91608936  0.30303533  1
  Se  Se198  1  0.59271947  0.92871350  0.79436189  1
  Se  Se199  1  0.92205199  0.25480795  0.30349782  1
  Se  Se200  1  0.91801633  0.24921732  0.80427448  1
  Se  Se201  1  0.91392369  0.58435591  0.30015812  1
  Se  Se202  1  0.92039357  0.57667585  0.80299573  1
  Se  Se203  1  0.91289202  0.91987192  0.31391329  1
  Se  Se204  1  0.91389601  0.90937452  0.79600186  1
  Se  Se205  1  0.09260522  0.09483673  0.30541796  1
  Se  Se206  1  0.07980121  0.07769228  0.80704419  1
  Se  Se207  1  0.08138047  0.41640254  0.29535332  1
  Se  Se208  1  0.07992266  0.41136503  0.80910033  1
  Se  Se209  1  0.07166303  0.74774872  0.29694154  1
  Se  Se210  1  0.08567527  0.74437640  0.80285657  1
  Se  Se211  1  0.42769260  0.09573101  0.31076969  1
  Se  Se212  1  0.41854727  0.09713268  0.81699306  1
  Se  Se213  1  0.41091348  0.40880521  0.29722881  1
  Se  Se214  1  0.41152749  0.41867022  0.81451577  1
  Se  Se215  1  0.41970919  0.74965387  0.30519326  1
  Se  Se216  1  0.42539653  0.75904149  0.80065840  1
  Se  Se217  1  0.75441575  0.08691479  0.30249468  1
  Se  Se218  1  0.74695943  0.08515612  0.79798608  1
  Se  Se219  1  0.75042446  0.41662682  0.30221535  1
  Se  Se220  1  0.74608162  0.41246353  0.80273202  1
  Se  Se221  1  0.75880579  0.75630357  0.31395754  1
  Se  Se222  1  0.75879600  0.75093906  0.81227535  1
  Se  Se223  1  0.24389373  0.08312725  0.18510625  1
  Se  Se224  1  0.23686653  0.09457044  0.69241900  1
  Se  Se225  1  0.25044455  0.41407071  0.18856248  1
  Se  Se226  1  0.25245812  0.41398346  0.70569782  1
  Se  Se227  1  0.23940909  0.75841985  0.19401993  1
  Se  Se228  1  0.25479229  0.74812790  0.70203313  1
  Se  Se229  1  0.58800058  0.07702190  0.19690703  1
  Se  Se230  1  0.57469963  0.09600095  0.69498438  1
  Se  Se231  1  0.58965245  0.41064472  0.19259819  1
  Se  Se232  1  0.58149172  0.42153215  0.70361370  1
  Se  Se233  1  0.57702525  0.74803652  0.18903584  1
  Se  Se234  1  0.57892100  0.75574244  0.69276588  1
  Se  Se235  1  0.90994185  0.09655569  0.18317867  1
  Se  Se236  1  0.91619242  0.08725549  0.69661699  1
  Se  Se237  1  0.92101514  0.41846222  0.18904614  1
  Se  Se238  1  0.91923403  0.41068486  0.69486173  1
  Se  Se239  1  0.89536903  0.77627577  0.19284278  1
  Se  Se240  1  0.91670065  0.74475570  0.70509328  1
  Se  Se241  1  0.08172950  0.25428460  0.19208191  1
  Se  Se242  1  0.08020392  0.25167441  0.70111963  1
  Se  Se243  1  0.07703688  0.58518496  0.19139029  1
  Se  Se244  1  0.08757954  0.57531568  0.70029461  1
  Se  Se245  1  0.09203013  0.91729132  0.18938193  1
  Se  Se246  1  0.08697525  0.91517636  0.70210568  1
  Se  Se247  1  0.41618598  0.24631225  0.19085418  1
  Se  Se248  1  0.40787493  0.25954370  0.70382216  1
  Se  Se249  1  0.41831608  0.56747871  0.18280576  1
  Se  Se250  1  0.41685510  0.58653226  0.70755129  1
  Se  Se251  1  0.41891866  0.91132679  0.18911341  1
  Se  Se252  1  0.41461504  0.91552211  0.69172814  1
  Se  Se253  1  0.75085164  0.25576491  0.19631979  1
  Se  Se254  1  0.74791861  0.25528408  0.69489725  1
  Se  Se255  1  0.75362358  0.57721945  0.18682010  1
  Se  Se256  1  0.75748235  0.57425138  0.69081238  1
  Se  Se257  1  0.74348445  0.91813745  0.20215505  1
  Se  Se258  1  0.75508217  0.91217003  0.70112082  1
