# generated using pymatgen
data_In86Cu29Se144
_symmetry_space_group_name_H-M   'P 1'
_cell_length_a   17.57746919
_cell_length_b   17.57667891
_cell_length_c   23.43227459
_cell_angle_alpha   89.98317730
_cell_angle_beta   89.99432742
_cell_angle_gamma   89.98954810
_symmetry_Int_Tables_number   1
_chemical_formula_structural   In86Cu29Se144
_chemical_formula_sum   'In86 Cu29 Se144'
_cell_volume   7239.48353189
_cell_formula_units_Z   1
loop_
 _symmetry_equiv_pos_site_id
 _symmetry_equiv_pos_as_xyz
  1  'x, y, z'
loop_
 _atom_site_type_symbol
 _atom_site_label
 _atom_site_symmetry_multiplicity
 _atom_site_fract_x
 _atom_site_fract_y
 _atom_site_fract_z
 _atom_site_occupancy
  In  In0  1  -0.00384476  0.19042774  0.12921211  1
  In  In1  1  0.00045435  0.16992831  0.62956967  1
  In  In2  1  -0.00380101  0.49791842  0.12212744  1
  In  In3  1  0.00522466  0.48911294  0.62794675  1
  In  In4  1  -0.00345925  0.81567137  0.12177174  1
  In  In5  1  0.01771267  0.83735229  0.62766199  1
  In  In6  1  0.33508416  0.15666934  0.12761622  1
  In  In7  1  0.31816058  0.16329877  0.62410669  1
  In  In8  1  0.33676971  0.50622334  0.11636542  1
  In  In9  1  0.34084978  0.51429581  0.60697647  1
  In  In10  1  0.33444116  0.83641866  0.11801740  1
  In  In11  1  0.33642929  0.84125937  0.62126994  1
  In  In12  1  0.67960687  0.17615395  0.10946064  1
  In  In13  1  0.68445366  0.16254125  0.62424411  1
  In  In14  1  0.66565612  0.50201723  0.12533610  1
  In  In15  1  0.65654366  0.50272313  0.63702759  1
  In  In16  1  0.65322018  0.83086113  0.12042022  1
  In  In17  1  0.65170744  0.83377225  0.62839208  1
  In  In18  1  0.17042008  -0.00339234  0.39222000  1
  In  In19  1  0.16086696  -0.01156423  0.86006236  1
  In  In20  1  0.15896583  0.33773273  0.37749363  1
  In  In21  1  0.16291810  0.35014754  0.87200481  1
  In  In22  1  0.16196391  0.67253782  0.37865463  1
  In  In23  1  0.16646467  0.66726616  0.87793435  1
  In  In24  1  0.48782022  -0.00513480  0.38069665  1
  In  In25  1  0.49484409  0.00772285  0.88039601  1
  In  In26  1  0.51755986  0.34064581  0.37097999  1
  In  In27  1  0.50766647  0.32359548  0.88066548  1
  In  In28  1  0.50215284  0.66073630  0.38379946  1
  In  In29  1  0.51661870  0.65900723  0.89016738  1
  In  In30  1  0.84401534  0.00464680  0.38031854  1
  In  In31  1  0.84939574  0.00301477  0.87432686  1
  In  In32  1  0.83082908  0.32754662  0.36886084  1
  In  In33  1  0.83183537  0.33512431  0.87759226  1
  In  In34  1  0.82605299  0.65647531  0.35981870  1
  In  In35  1  0.81156988  0.66349545  0.87849115  1
  In  In36  1  -0.00153874  0.17102391  0.37989453  1
  In  In37  1  -0.00749052  0.16608054  0.87247060  1
  In  In38  1  0.00341145  0.50157426  0.36527603  1
  In  In39  1  0.00487217  0.49231164  0.87796059  1
  In  In40  1  0.00856115  0.83092735  0.37677381  1
  In  In41  1  0.00469133  0.84496201  0.87059542  1
  In  In42  1  0.32511694  0.15919254  0.38195934  1
  In  In43  1  0.34437954  0.16043070  0.87233249  1
  In  In44  1  0.32849424  0.51302541  0.39052748  1
  In  In45  1  0.33095678  0.50569204  0.88211050  1
  In  In46  1  0.33123784  0.83187852  0.39809616  1
  In  In47  1  0.32614290  0.83958829  0.87364694  1
  In  In48  1  0.66857546  0.18342756  0.37355629  1
  In  In49  1  0.65538190  0.17412243  0.88419381  1
  In  In50  1  0.66419225  0.49825267  0.37057855  1
  In  In51  1  0.66956258  0.50027425  0.88105274  1
  In  In52  1  0.66837629  0.81945432  0.37499297  1
  In  In53  1  0.66648267  0.81713539  0.87743914  1
  In  In54  1  0.17744505  -0.00202537  0.12556433  1
  In  In55  1  0.16458166  -0.00385822  0.63126850  1
  In  In56  1  0.14792843  0.33285962  0.13079206  1
  In  In57  1  0.16513465  0.32592134  0.61988886  1
  In  In58  1  0.15840737  0.66203737  0.11831864  1
  In  In59  1  0.18843812  0.68401110  0.59921684  1
  In  In60  1  0.50472461  0.00119650  0.10414708  1
  In  In61  1  0.50223223  -0.02026391  0.62130459  1
  In  In62  1  0.51379626  0.35021040  0.11773199  1
  In  In63  1  0.49920324  0.34541584  0.62783937  1
  In  In64  1  0.51013772  0.67397291  0.11440182  1
  In  In65  1  0.50294990  0.67395285  0.62296306  1
  In  In66  1  0.82302199  0.00887807  0.11494679  1
  In  In67  1  0.82792386  0.02380728  0.62537871  1
  In  In68  1  0.83017080  0.33456642  0.12223350  1
  In  In69  1  0.84302274  0.32696932  0.63500677  1
  In  In70  1  0.84241764  0.65402003  0.12701021  1
  In  In71  1  0.82944703  0.65167328  0.63077814  1
  In  In72  1  0.33766796  0.33690978  0.25838355  1
  In  In73  1  0.33664087  0.67486315  0.74137373  1
  In  In74  1  0.66732352  0.00090145  0.75083476  1
  In  In75  1  0.33172325  -0.00244849  0.25686982  1
  In  In76  1  0.32745454  0.32970627  0.74780152  1
  In  In77  1  0.50331984  0.16671455  0.49877144  1
  In  In78  1  0.00144238  0.66353928  0.75006988  1
  In  In79  1  0.33453077  0.66788320  0.25944202  1
  In  In80  1  0.00310217  -0.00192165  0.25660764  1
  In  In81  1  0.83347949  0.49384166  0.49783369  1
  In  In82  1  0.66453816  0.00164178  0.24142390  1
  In  In83  1  0.83496540  0.83072074  -0.00310000  1
  In  In84  1  0.83379092  0.83816117  0.49861548  1
  In  In85  1  0.16715588  0.16932758  0.00516232  1
  Cu  Cu86  1  0.50671156  0.17418374  0.24511317  1
  Cu  Cu87  1  0.00509189  0.66351232  -0.00339382  1
  Cu  Cu88  1  0.33517202  0.67236090  -0.00119593  1
  Cu  Cu89  1  0.00255428  0.66487672  0.49375126  1
  Cu  Cu90  1  0.33208746  0.33362905  -0.00456621  1
  Cu  Cu91  1  0.50225310  0.16243236  0.75444646  1
  Cu  Cu92  1  0.00099932  0.00837185  0.50660179  1
  Cu  Cu93  1  0.67157315  0.33828190  0.49805910  1
  Cu  Cu94  1  0.66772240  0.33733828  -0.00038971  1
  Cu  Cu95  1  -0.00601333  0.33693099  0.00168722  1
  Cu  Cu96  1  0.49829106  0.83257223  0.24699103  1
  Cu  Cu97  1  0.82567740  0.49562411  0.75498350  1
  Cu  Cu98  1  0.16480600  0.82554550  0.25319270  1
  Cu  Cu99  1  0.83173586  0.82013113  0.24507836  1
  Cu  Cu100  1  0.49796079  0.82740070  0.75107748  1
  Cu  Cu101  1  0.32856160  -0.00230801  -0.00355177  1
  Cu  Cu102  1  0.50771592  0.50786963  0.24823449  1
  Cu  Cu103  1  0.00735245  0.00381540  -0.00560550  1
  Cu  Cu104  1  0.65990515  0.67039554  0.50405312  1
  Cu  Cu105  1  0.83353664  0.83316440  0.75552967  1
  Cu  Cu106  1  0.16607442  0.50165504  0.74190333  1
  Cu  Cu107  1  0.83358735  0.17703447  0.75320840  1
  Cu  Cu108  1  0.83461917  0.49142241  0.24367711  1
  Cu  Cu109  1  0.33651768  0.33360029  0.50249180  1
  Cu  Cu110  1  0.15830837  0.16699692  0.74601054  1
  Cu  Cu111  1  0.83328869  0.16933672  0.24660149  1
  Cu  Cu112  1  0.15854978  0.49262732  0.24608020  1
  Cu  Cu113  1  0.00268438  0.32377289  0.50370201  1
  Cu  Cu114  1  0.50380622  0.49588866  0.75856915  1
  Se  Se115  1  0.07519781  0.08065425  0.06615215  1
  Se  Se116  1  0.08516815  0.08693896  0.56250342  1
  Se  Se117  1  0.08355082  0.41572469  0.05362673  1
  Se  Se118  1  0.08299190  0.41368397  0.55308504  1
  Se  Se119  1  0.08546278  0.75260083  0.04761115  1
  Se  Se120  1  0.07782662  0.75501020  0.54745167  1
  Se  Se121  1  0.40880016  0.08624058  0.04855926  1
  Se  Se122  1  0.41721078  0.08109599  0.56333606  1
  Se  Se123  1  0.41506728  0.41645293  0.05107217  1
  Se  Se124  1  0.42364717  0.41733689  0.55011670  1
  Se  Se125  1  0.41937439  0.75604774  0.05127379  1
  Se  Se126  1  0.39352559  0.72877458  0.56341470  1
  Se  Se127  1  0.74188841  0.07782369  0.04155766  1
  Se  Se128  1  0.74594779  0.08150745  0.54583284  1
  Se  Se129  1  0.74983470  0.42045824  0.05468432  1
  Se  Se130  1  0.74682920  0.41338006  0.56627199  1
  Se  Se131  1  0.75163546  0.74362280  0.06253227  1
  Se  Se132  1  0.74937698  0.74332591  0.56208178  1
  Se  Se133  1  0.25675770  0.26029508  0.06534053  1
  Se  Se134  1  0.25073936  0.24823181  0.54967094  1
  Se  Se135  1  0.24999281  0.58786888  0.05103781  1
  Se  Se136  1  0.22735971  0.56149715  0.54808969  1
  Se  Se137  1  0.24539992  0.91511903  0.05064340  1
  Se  Se138  1  0.24400406  0.91874827  0.55799304  1
  Se  Se139  1  0.58001167  0.25276909  0.05028910  1
  Se  Se140  1  0.59085320  0.25856154  0.56060614  1
  Se  Se141  1  0.56787683  0.56509368  0.05664424  1
  Se  Se142  1  0.58524013  0.58172578  0.55983197  1
  Se  Se143  1  0.59203038  0.91619249  0.04492133  1
  Se  Se144  1  0.59197773  0.91506603  0.55006971  1
  Se  Se145  1  0.91172112  0.24891100  0.05121965  1
  Se  Se146  1  0.91351079  0.24808705  0.55792959  1
  Se  Se147  1  0.91949595  0.58207947  0.04936869  1
  Se  Se148  1  0.92515961  0.58666023  0.55691479  1
  Se  Se149  1  0.92686422  0.92328559  0.05779703  1
  Se  Se150  1  0.91912704  0.92473325  0.56483896  1
  Se  Se151  1  0.08928090  0.24516954  0.44832512  1
  Se  Se152  1  0.07961221  0.25876001  0.94168684  1
  Se  Se153  1  0.08067673  0.57763307  0.44021939  1
  Se  Se154  1  0.08842725  0.57839627  0.94405338  1
  Se  Se155  1  0.07438083  0.91659479  0.45148984  1
  Se  Se156  1  0.08908256  0.91895027  0.94328581  1
  Se  Se157  1  0.41635244  0.26034723  0.43556890  1
  Se  Se158  1  0.41365417  0.24637444  0.94538117  1
  Se  Se159  1  0.41643941  0.58948892  0.45545891  1
  Se  Se160  1  0.41709731  0.58294891  0.95004168  1
  Se  Se161  1  0.41782917  0.91889140  0.45704958  1
  Se  Se162  1  0.41387589  0.91576432  0.94364200  1
  Se  Se163  1  0.75442413  0.25290202  0.44707598  1
  Se  Se164  1  0.75014989  0.25142842  0.94721206  1
  Se  Se165  1  0.74408285  0.59239859  0.44404940  1
  Se  Se166  1  0.74401580  0.58457691  0.95409128  1
  Se  Se167  1  0.74184390  0.92396680  0.43767125  1
  Se  Se168  1  0.75038914  0.92060667  0.93397628  1
  Se  Se169  1  0.26588935  0.06956318  0.45493500  1
  Se  Se170  1  0.24737818  0.08020769  0.93786011  1
  Se  Se171  1  0.25067527  0.41160336  0.44550953  1
  Se  Se172  1  0.24653297  0.41861977  0.94674180  1
  Se  Se173  1  0.24727447  0.73855502  0.45278649  1
  Se  Se174  1  0.24957493  0.75213126  0.94368479  1
  Se  Se175  1  0.59097113  0.08090870  0.43412912  1
  Se  Se176  1  0.58320237  0.08061583  0.94875270  1
  Se  Se177  1  0.58679615  0.42230712  0.44740587  1
  Se  Se178  1  0.57985753  0.41694086  0.94671555  1
  Se  Se179  1  0.58037460  0.75478306  0.44920222  1
  Se  Se180  1  0.58620074  0.75487556  0.95597310  1
  Se  Se181  1  0.91709742  0.08885096  0.45128237  1
  Se  Se182  1  0.91863973  0.08798503  0.94935181  1
  Se  Se183  1  0.92660714  0.40608765  0.43981308  1
  Se  Se184  1  0.91303386  0.42119201  0.94676813  1
  Se  Se185  1  0.91252692  0.73779023  0.43592798  1
  Se  Se186  1  0.92543201  0.74239368  0.93328899  1
  Se  Se187  1  0.24557423  0.24308827  0.31060001  1
  Se  Se188  1  0.23890256  0.24216333  0.81208144  1
  Se  Se189  1  0.23854686  0.57161160  0.30817272  1
  Se  Se190  1  0.24696679  0.57977667  0.80281139  1
  Se  Se191  1  0.24398303  0.90309722  0.31532040  1
  Se  Se192  1  0.26178859  0.92327715  0.79709011  1
  Se  Se193  1  0.59012130  0.25674120  0.29741553  1
  Se  Se194  1  0.58442596  0.24872515  0.80383199  1
  Se  Se195  1  0.58454825  0.59200024  0.30724417  1
  Se  Se196  1  0.58455687  0.58259146  0.81014338  1
  Se  Se197  1  0.57777650  0.91469101  0.30776087  1
  Se  Se198  1  0.57901340  0.90965015  0.81105541  1
  Se  Se199  1  0.91914638  0.24525980  0.30359948  1
  Se  Se200  1  0.91941996  0.25912138  0.80581532  1
  Se  Se201  1  0.91687649  0.57869311  0.29616154  1
  Se  Se202  1  0.90817138  0.57934493  0.81299710  1
  Se  Se203  1  0.90537534  0.90308854  0.30801562  1
  Se  Se204  1  0.91976230  0.92030054  0.79907359  1
  Se  Se205  1  0.09440239  0.08275365  0.31712055  1
  Se  Se206  1  0.07746549  0.08541128  0.80415607  1
  Se  Se207  1  0.07861059  0.40718734  0.29965654  1
  Se  Se208  1  0.08160156  0.42235734  0.79701214  1
  Se  Se209  1  0.07799054  0.74381335  0.30350579  1
  Se  Se210  1  0.09357767  0.75723063  0.80438487  1
  Se  Se211  1  0.42718929  0.09628372  0.30716064  1
  Se  Se212  1  0.41672031  0.07547454  0.79985566  1
  Se  Se213  1  0.42358502  0.43637812  0.31357929  1
  Se  Se214  1  0.41545345  0.41710556  0.81236538  1
  Se  Se215  1  0.42061629  0.76378418  0.31593169  1
  Se  Se216  1  0.42437421  0.74625744  0.81563026  1
  Se  Se217  1  0.75602888  0.08578282  0.30683186  1
  Se  Se218  1  0.75421926  0.09202157  0.81247163  1
  Se  Se219  1  0.75021959  0.41643887  0.30416663  1
  Se  Se220  1  0.74325527  0.41304006  0.80885423  1
  Se  Se221  1  0.74071870  0.74452534  0.29698837  1
  Se  Se222  1  0.74706848  0.74694288  0.80041990  1
  Se  Se223  1  0.23974155  0.09155387  0.20085995  1
  Se  Se224  1  0.24823430  0.08393734  0.70024442  1
  Se  Se225  1  0.25093341  0.42209178  0.18945840  1
  Se  Se226  1  0.25235484  0.42569774  0.68301603  1
  Se  Se227  1  0.24876038  0.75288375  0.19067757  1
  Se  Se228  1  0.23725668  0.76039495  0.68922249  1
  Se  Se229  1  0.57650046  0.09134049  0.18083698  1
  Se  Se230  1  0.57787819  0.08677109  0.68671754  1
  Se  Se231  1  0.58691424  0.41735399  0.19910137  1
  Se  Se232  1  0.58366544  0.40929137  0.70492949  1
  Se  Se233  1  0.58097495  0.74847273  0.19515319  1
  Se  Se234  1  0.58356845  0.74445356  0.70025371  1
  Se  Se235  1  0.91206460  0.08276659  0.19011881  1
  Se  Se236  1  0.91354412  0.09017734  0.69989406  1
  Se  Se237  1  0.92008048  0.40925550  0.19190347  1
  Se  Se238  1  0.91617130  0.42203062  0.70048542  1
  Se  Se239  1  0.92249931  0.74007331  0.19744333  1
  Se  Se240  1  0.91063704  0.75501995  0.68902442  1
  Se  Se241  1  0.08979050  0.24059989  0.20337676  1
  Se  Se242  1  0.08168849  0.25929187  0.69690863  1
  Se  Se243  1  0.08224533  0.58112214  0.19109758  1
  Se  Se244  1  0.09453267  0.58969760  0.68131897  1
  Se  Se245  1  0.08841871  0.90746016  0.19100124  1
  Se  Se246  1  0.07353007  0.92631974  0.70266466  1
  Se  Se247  1  0.42155929  0.25272565  0.18780695  1
  Se  Se248  1  0.42211851  0.24038412  0.68992213  1
  Se  Se249  1  0.42095419  0.58460414  0.19189161  1
  Se  Se250  1  0.42454236  0.57131970  0.69316798  1
  Se  Se251  1  0.42443502  0.91910682  0.18826675  1
  Se  Se252  1  0.41868503  0.91286171  0.69752843  1
  Se  Se253  1  0.74784185  0.24791737  0.19135361  1
  Se  Se254  1  0.74512054  0.25312293  0.69885875  1
  Se  Se255  1  0.75134375  0.58077725  0.19572896  1
  Se  Se256  1  0.74452934  0.58316057  0.70399916  1
  Se  Se257  1  0.75891362  0.90775472  0.18628640  1
  Se  Se258  1  0.75762211  0.91206409  0.68873686  1
