# generated using pymatgen
data_In86Cu29Se144
_symmetry_space_group_name_H-M   'P 1'
_cell_length_a   17.56642914
_cell_length_b   17.56967314
_cell_length_c   23.41840453
_cell_angle_alpha   90.01489488
_cell_angle_beta   90.00390487
_cell_angle_gamma   90.00925838
_symmetry_Int_Tables_number   1
_chemical_formula_structural   In86Cu29Se144
_chemical_formula_sum   'In86 Cu29 Se144'
_cell_volume   7227.77214078
_cell_formula_units_Z   1
loop_
 _symmetry_equiv_pos_site_id
 _symmetry_equiv_pos_as_xyz
  1  'x, y, z'
loop_
 _atom_site_type_symbol
 _atom_site_label
 _atom_site_symmetry_multiplicity
 _atom_site_fract_x
 _atom_site_fract_y
 _atom_site_fract_z
 _atom_site_occupancy
  In  In0  1  0.00620488  0.15596664  0.12673329  1
  In  In1  1  -0.00110157  0.16068164  0.62176509  1
  In  In2  1  0.02105741  0.50027390  0.13026748  1
  In  In3  1  0.01517483  0.50542247  0.62477872  1
  In  In4  1  0.00342845  0.81958147  0.12950865  1
  In  In5  1  0.00014941  0.83392884  0.63202444  1
  In  In6  1  0.32895131  0.17680087  0.13759145  1
  In  In7  1  0.34029276  0.15844912  0.61377402  1
  In  In8  1  0.32396534  0.49433087  0.12372221  1
  In  In9  1  0.33494563  0.49909955  0.62228415  1
  In  In10  1  0.33196448  0.84510046  0.12357084  1
  In  In11  1  0.31567099  0.85150854  0.63669656  1
  In  In12  1  0.67640239  0.16946376  0.12944826  1
  In  In13  1  0.66405403  0.16710657  0.62657737  1
  In  In14  1  0.65083978  0.49390307  0.12526868  1
  In  In15  1  0.65021636  0.50670793  0.62721703  1
  In  In16  1  0.67356214  0.83434976  0.12284375  1
  In  In17  1  0.67238486  0.83192622  0.64043068  1
  In  In18  1  0.17947245  0.00232265  0.39312828  1
  In  In19  1  0.16470266  0.00416546  0.86456061  1
  In  In20  1  0.18753244  0.31485124  0.39705921  1
  In  In21  1  0.18533530  0.32860534  0.88927720  1
  In  In22  1  0.16491196  0.66261153  0.38268871  1
  In  In23  1  0.17468700  0.66869339  0.87420119  1
  In  In24  1  0.49032462  0.01973789  0.38969150  1
  In  In25  1  0.48411471  -0.01406793  0.84548178  1
  In  In26  1  0.49724403  0.32666929  0.38188064  1
  In  In27  1  0.48990106  0.32848800  0.86485436  1
  In  In28  1  0.48127935  0.66770319  0.38256928  1
  In  In29  1  0.48974232  0.66800806  0.85091136  1
  In  In30  1  0.82992422  -0.00283647  0.39245315  1
  In  In31  1  0.83475655  -0.00954286  0.85505327  1
  In  In32  1  0.81987157  0.33484119  0.37881829  1
  In  In33  1  0.82432563  0.33777426  0.87022622  1
  In  In34  1  0.84987970  0.66280757  0.37859709  1
  In  In35  1  0.84858433  0.69072152  0.84881599  1
  In  In36  1  0.00179062  0.15553901  0.38587935  1
  In  In37  1  0.02344202  0.16828542  0.86297771  1
  In  In38  1  0.00464016  0.51269938  0.37340851  1
  In  In39  1  0.01109153  0.51273939  0.86830994  1
  In  In40  1  0.01370666  0.82307636  0.38727089  1
  In  In41  1  0.01009322  0.85139790  0.85559795  1
  In  In42  1  0.33775305  0.17118714  0.38145033  1
  In  In43  1  0.31786733  0.17074534  0.86271922  1
  In  In44  1  0.35359633  0.47509889  0.40706165  1
  In  In45  1  0.32634659  0.49449688  0.87001385  1
  In  In46  1  0.31342809  0.83367285  0.38195192  1
  In  In47  1  0.31319165  0.81853223  0.85208798  1
  In  In48  1  0.65018403  0.17888470  0.39274872  1
  In  In49  1  0.65861408  0.16556665  0.86277151  1
  In  In50  1  0.66661238  0.48666349  0.37844306  1
  In  In51  1  0.66150825  0.49760649  0.86222273  1
  In  In52  1  0.66458673  0.84945265  0.38383193  1
  In  In53  1  0.65567879  0.82915554  0.84334802  1
  In  In54  1  0.17562908  0.01514189  0.11510159  1
  In  In55  1  0.17745085  -0.00247321  0.62065740  1
  In  In56  1  0.18222899  0.33817145  0.11459758  1
  In  In57  1  0.18596985  0.32805211  0.61296873  1
  In  In58  1  0.16560853  0.65409205  0.11954286  1
  In  In59  1  0.16228376  0.66931671  0.63274976  1
  In  In60  1  0.49092736  -0.01274402  0.12280497  1
  In  In61  1  0.47205860  0.01793359  0.64101868  1
  In  In62  1  0.50382005  0.33586283  0.13695617  1
  In  In63  1  0.48839581  0.33631605  0.61552183  1
  In  In64  1  0.50391429  0.66600762  0.12318086  1
  In  In65  1  0.50478534  0.66478955  0.63162975  1
  In  In66  1  0.83049318  0.00108761  0.12315139  1
  In  In67  1  0.83468175  -0.00346743  0.63203446  1
  In  In68  1  0.81924161  0.32451565  0.13075891  1
  In  In69  1  0.82910800  0.31974573  0.62260074  1
  In  In70  1  0.84204428  0.68392071  0.12306343  1
  In  In71  1  0.82334353  0.68482859  0.64154764  1
  In  In72  1  0.00523719  0.33710770  0.25453707  1
  In  In73  1  0.32205508  0.65686061  0.24646583  1
  In  In74  1  0.84317539  0.83871558  -0.01007360  1
  In  In75  1  0.83834016  0.50455569  -0.00922264  1
  In  In76  1  0.48259432  0.49916808  -0.00542396  1
  In  In77  1  0.48663739  0.82878615  -0.01097258  1
  In  In78  1  0.83727382  0.50347974  0.49991128  1
  In  In79  1  0.65976856  0.00964473  0.25311384  1
  In  In80  1  0.00265714  -0.00110484  0.25204798  1
  In  In81  1  0.67072085  0.66099979  0.24875618  1
  In  In82  1  0.01133112  0.33136493  0.73745883  1
  In  In83  1  0.49156690  0.16491427  -0.01027728  1
  In  In84  1  0.84921665  0.16578121  -0.00124634  1
  In  In85  1  0.50212458  0.83658184  0.51406447  1
  Cu  Cu86  1  0.17399983  0.49831226  0.25464902  1
  Cu  Cu87  1  0.32460781  0.66660558  0.51024751  1
  Cu  Cu88  1  0.32437170  0.00098525  -0.00907745  1
  Cu  Cu89  1  0.17545169  0.17220373  0.25434894  1
  Cu  Cu90  1  0.66131648  0.33044841  -0.00092521  1
  Cu  Cu91  1  0.01296670  0.66626989  -0.00213126  1
  Cu  Cu92  1  0.66266074  0.33146322  0.50265476  1
  Cu  Cu93  1  0.66801968  0.66291091  -0.02015627  1
  Cu  Cu94  1  0.00857610  -0.00033536  -0.01207023  1
  Cu  Cu95  1  0.82160300  0.17407648  0.25994216  1
  Cu  Cu96  1  0.16528607  0.83605241  0.25919987  1
  Cu  Cu97  1  0.66378106  -0.00344317  -0.01538403  1
  Cu  Cu98  1  0.17436383  0.49728736  0.74611660  1
  Cu  Cu99  1  0.48946084  0.83940123  0.25255208  1
  Cu  Cu100  1  0.83622604  0.50349968  0.25397563  1
  Cu  Cu101  1  0.49646071  0.17875699  0.74123142  1
  Cu  Cu102  1  0.50089338  0.49082263  0.25838376  1
  Cu  Cu103  1  0.01085750  0.33451846  -0.00247592  1
  Cu  Cu104  1  -0.00037378  -0.00558587  0.50852421  1
  Cu  Cu105  1  -0.00281708  0.67543859  0.50901305  1
  Cu  Cu106  1  0.49581357  0.16985830  0.26116603  1
  Cu  Cu107  1  0.82616674  0.49387404  0.74644640  1
  Cu  Cu108  1  0.16728003  0.83622779  0.74731775  1
  Cu  Cu109  1  0.49361854  0.49146389  0.74215858  1
  Cu  Cu110  1  0.83995534  0.82821984  0.26017262  1
  Cu  Cu111  1  -0.00237861  0.33308810  0.50862406  1
  Cu  Cu112  1  0.83602439  0.17018554  0.74461037  1
  Cu  Cu113  1  0.67279016  -0.00599408  0.51573515  1
  Cu  Cu114  1  0.66887599  0.67143317  0.51022781  1
  Se  Se115  1  0.08118288  0.08738431  0.04758770  1
  Se  Se116  1  0.08591821  0.07962719  0.55537505  1
  Se  Se117  1  0.08842746  0.41994841  0.05364820  1
  Se  Se118  1  0.08552796  0.41289426  0.55795829  1
  Se  Se119  1  0.08859276  0.75143102  0.05626583  1
  Se  Se120  1  0.08561492  0.75437199  0.56051611  1
  Se  Se121  1  0.40894474  0.07341937  0.05423857  1
  Se  Se122  1  0.42705062  0.07503498  0.54659021  1
  Se  Se123  1  0.41272865  0.40013984  0.06058428  1
  Se  Se124  1  0.40640084  0.41761961  0.54595187  1
  Se  Se125  1  0.40729517  0.74094038  0.05961622  1
  Se  Se126  1  0.40700752  0.74743702  0.56843761  1
  Se  Se127  1  0.74055090  0.07614311  0.04966393  1
  Se  Se128  1  0.75549399  0.08387256  0.56293250  1
  Se  Se129  1  0.74475761  0.41427123  0.05415951  1
  Se  Se130  1  0.74400255  0.41636593  0.55929706  1
  Se  Se131  1  0.74396155  0.74332275  0.04593033  1
  Se  Se132  1  0.74943283  0.75625018  0.56175106  1
  Se  Se133  1  0.24703930  0.23210314  0.05682070  1
  Se  Se134  1  0.25024166  0.23278896  0.54196498  1
  Se  Se135  1  0.26434034  0.58936821  0.05472829  1
  Se  Se136  1  0.24059176  0.58378401  0.56196087  1
  Se  Se137  1  0.24791550  0.91773900  0.05052010  1
  Se  Se138  1  0.25725146  0.91484052  0.54917140  1
  Se  Se139  1  0.58486323  0.24823073  0.05897332  1
  Se  Se140  1  0.58124869  0.24798182  0.55612003  1
  Se  Se141  1  0.59100884  0.58909785  0.04742104  1
  Se  Se142  1  0.57765862  0.58729098  0.55223652  1
  Se  Se143  1  0.58765275  0.91674398  0.05000426  1
  Se  Se144  1  0.58593007  0.92515933  0.57776129  1
  Se  Se145  1  0.92814922  0.26348847  0.06400617  1
  Se  Se146  1  0.91407280  0.24410913  0.55348228  1
  Se  Se147  1  0.92665794  0.58981386  0.05827872  1
  Se  Se148  1  0.91524634  0.59285813  0.56723003  1
  Se  Se149  1  0.93032734  0.92745193  0.05835912  1
  Se  Se150  1  0.91494462  0.91276336  0.56065228  1
  Se  Se151  1  0.07590736  0.24957056  0.45072177  1
  Se  Se152  1  0.08622395  0.24525542  0.94467026  1
  Se  Se153  1  0.07443696  0.58768814  0.45293259  1
  Se  Se154  1  0.09288139  0.58141841  0.94401978  1
  Se  Se155  1  0.08677048  0.91747214  0.45184139  1
  Se  Se156  1  0.08908906  0.91352069  0.93656583  1
  Se  Se157  1  0.43388992  0.23289623  0.45171501  1
  Se  Se158  1  0.40011093  0.25967508  0.93848337  1
  Se  Se159  1  0.41694327  0.58816066  0.46062103  1
  Se  Se160  1  0.41098407  0.59846614  0.93179850  1
  Se  Se161  1  0.41116423  0.91506115  0.44522510  1
  Se  Se162  1  0.40314925  0.92269440  0.92890486  1
  Se  Se163  1  0.75291063  0.24988935  0.45330506  1
  Se  Se164  1  0.74489895  0.24851742  0.94247216  1
  Se  Se165  1  0.74131676  0.59306061  0.44140628  1
  Se  Se166  1  0.75521244  0.58991082  0.92231708  1
  Se  Se167  1  0.75144133  0.90906061  0.46016664  1
  Se  Se168  1  0.74258123  0.91312116  0.92791182  1
  Se  Se169  1  0.23737733  0.11163027  0.45341673  1
  Se  Se170  1  0.24540756  0.08592030  0.93636712  1
  Se  Se171  1  0.22449560  0.43837456  0.44982288  1
  Se  Se172  1  0.25323477  0.42776930  0.95161841  1
  Se  Se173  1  0.24318895  0.74741161  0.45352316  1
  Se  Se174  1  0.25592985  0.75682046  0.94024370  1
  Se  Se175  1  0.59076954  0.07550541  0.45817948  1
  Se  Se176  1  0.57724940  0.07165172  0.92820478  1
  Se  Se177  1  0.58092218  0.41651044  0.44920395  1
  Se  Se178  1  0.58351118  0.41158822  0.93909288  1
  Se  Se179  1  0.58674746  0.74517390  0.44384250  1
  Se  Se180  1  0.58570225  0.74765907  0.92698389  1
  Se  Se181  1  0.91546781  0.08137421  0.45631318  1
  Se  Se182  1  0.92156209  0.07447395  0.92874483  1
  Se  Se183  1  0.92554624  0.41102205  0.44001827  1
  Se  Se184  1  0.92855741  0.40796606  0.93516330  1
  Se  Se185  1  0.91334157  0.75321015  0.45126979  1
  Se  Se186  1  0.93333429  0.74569213  0.93425058  1
  Se  Se187  1  0.25542149  0.25510527  0.31008011  1
  Se  Se188  1  0.23763784  0.26195336  0.80019376  1
  Se  Se189  1  0.25458962  0.57089512  0.32104643  1
  Se  Se190  1  0.25329622  0.58502988  0.80089573  1
  Se  Se191  1  0.24478247  0.92391249  0.31074199  1
  Se  Se192  1  0.25242305  0.92744168  0.79384240  1
  Se  Se193  1  0.58521174  0.25079122  0.30972448  1
  Se  Se194  1  0.58305229  0.25743388  0.79738821  1
  Se  Se195  1  0.57399677  0.58281277  0.31491101  1
  Se  Se196  1  0.57764038  0.57751246  0.79355677  1
  Se  Se197  1  0.56894953  0.91865547  0.31319000  1
  Se  Se198  1  0.60700848  0.94874815  0.79305351  1
  Se  Se199  1  0.91463120  0.24530180  0.31480950  1
  Se  Se200  1  0.91610361  0.25118692  0.80593287  1
  Se  Se201  1  0.92200532  0.58839276  0.29987852  1
  Se  Se202  1  0.91243133  0.57361970  0.80025771  1
  Se  Se203  1  0.91506364  0.91434277  0.31881102  1
  Se  Se204  1  0.89581131  0.88799353  0.78977811  1
  Se  Se205  1  0.09375162  0.08846833  0.31107520  1
  Se  Se206  1  0.06729906  0.06586192  0.79326961  1
  Se  Se207  1  0.09601982  0.41861201  0.31748134  1
  Se  Se208  1  0.09317704  0.41649253  0.80688882  1
  Se  Se209  1  0.08644267  0.74666400  0.30946963  1
  Se  Se210  1  0.08947159  0.74831887  0.80332765  1
  Se  Se211  1  0.41231496  0.08228596  0.30855655  1
  Se  Se212  1  0.41185898  0.09633950  0.79639025  1
  Se  Se213  1  0.41457229  0.41651733  0.31593992  1
  Se  Se214  1  0.40865203  0.41400609  0.79915199  1
  Se  Se215  1  0.40979303  0.75548416  0.30746667  1
  Se  Se216  1  0.43659760  0.78450416  0.79564393  1
  Se  Se217  1  0.74905082  0.08815747  0.32150708  1
  Se  Se218  1  0.75267865  0.08882512  0.79972290  1
  Se  Se219  1  0.75177741  0.41909330  0.30317859  1
  Se  Se220  1  0.74208221  0.40831456  0.79640832  1
  Se  Se221  1  0.74945997  0.75471748  0.31636361  1
  Se  Se222  1  0.73472607  0.73081408  0.78772225  1
  Se  Se223  1  0.24878196  0.08070439  0.19838287  1
  Se  Se224  1  0.27240368  0.06864331  0.68731400  1
  Se  Se225  1  0.24960057  0.41265691  0.19726591  1
  Se  Se226  1  0.25185779  0.41236210  0.69053078  1
  Se  Se227  1  0.24092519  0.75835144  0.19122735  1
  Se  Se228  1  0.25292681  0.74697390  0.70032368  1
  Se  Se229  1  0.56767402  0.09365209  0.18794313  1
  Se  Se230  1  0.58060479  0.08689535  0.69693981  1
  Se  Se231  1  0.59109679  0.41373621  0.20587280  1
  Se  Se232  1  0.57800922  0.40829688  0.68905009  1
  Se  Se233  1  0.57650314  0.76165292  0.19517613  1
  Se  Se234  1  0.58714482  0.74352240  0.70182444  1
  Se  Se235  1  0.90202216  0.09341134  0.19838060  1
  Se  Se236  1  0.92097517  0.08416128  0.69709588  1
  Se  Se237  1  0.91169495  0.42115980  0.18869970  1
  Se  Se238  1  0.91076600  0.42107771  0.68429026  1
  Se  Se239  1  0.92144437  0.74662266  0.20396256  1
  Se  Se240  1  0.93395849  0.73706503  0.70107743  1
  Se  Se241  1  0.09046800  0.24589941  0.19180685  1
  Se  Se242  1  0.10127757  0.23854839  0.68378899  1
  Se  Se243  1  0.09247397  0.58548902  0.20250772  1
  Se  Se244  1  0.08260615  0.58250036  0.70382148  1
  Se  Se245  1  0.09241618  0.91368746  0.18965412  1
  Se  Se246  1  0.08869531  0.92212210  0.69289631  1
  Se  Se247  1  0.41757359  0.25517122  0.20359517  1
  Se  Se248  1  0.40778970  0.25277140  0.68576539  1
  Se  Se249  1  0.42829409  0.57211171  0.19276827  1
  Se  Se250  1  0.41268706  0.58287194  0.69468788  1
  Se  Se251  1  0.40721377  0.92319682  0.19976963  1
  Se  Se252  1  0.43308097  0.89527535  0.69656593  1
  Se  Se253  1  0.73779467  0.25570460  0.20697680  1
  Se  Se254  1  0.74579206  0.25230249  0.69783067  1
  Se  Se255  1  0.75976627  0.57644610  0.18241078  1
  Se  Se256  1  0.74528539  0.57864294  0.69329676  1
  Se  Se257  1  0.75890159  0.91144590  0.20007621  1
  Se  Se258  1  0.76666165  0.90869374  0.70626415  1
