# generated using pymatgen
data_In86Cu29Se144
_symmetry_space_group_name_H-M   'P 1'
_cell_length_a   17.58280201
_cell_length_b   17.58331601
_cell_length_c   23.44971406
_cell_angle_alpha   90.00286212
_cell_angle_beta   89.99024666
_cell_angle_gamma   89.99107737
_symmetry_Int_Tables_number   1
_chemical_formula_structural   In86Cu29Se144
_chemical_formula_sum   'In86 Cu29 Se144'
_cell_volume   7249.80635143
_cell_formula_units_Z   1
loop_
 _symmetry_equiv_pos_site_id
 _symmetry_equiv_pos_as_xyz
  1  'x, y, z'
loop_
 _atom_site_type_symbol
 _atom_site_label
 _atom_site_symmetry_multiplicity
 _atom_site_fract_x
 _atom_site_fract_y
 _atom_site_fract_z
 _atom_site_occupancy
  In  In0  1  -0.00704052  0.17760769  0.11589759  1
  In  In1  1  -0.00708139  0.17382457  0.63230499  1
  In  In2  1  0.01269594  0.51582637  0.10929825  1
  In  In3  1  -0.00361553  0.50442916  0.62969478  1
  In  In4  1  0.00364810  0.81160140  0.12189059  1
  In  In5  1  -0.00369414  0.83435702  0.62861488  1
  In  In6  1  0.34551055  0.16589267  0.11702473  1
  In  In7  1  0.33107497  0.17180315  0.63003150  1
  In  In8  1  0.31163448  0.51647161  0.14344369  1
  In  In9  1  0.33128603  0.49911429  0.62951410  1
  In  In10  1  0.32278872  0.82567052  0.11455263  1
  In  In11  1  0.33482196  0.83058299  0.62766779  1
  In  In12  1  0.66247629  0.17024716  0.11357463  1
  In  In13  1  0.65691716  0.16120889  0.62412455  1
  In  In14  1  0.67401821  0.49769187  0.12628507  1
  In  In15  1  0.67094349  0.50590058  0.61634959  1
  In  In16  1  0.66088512  0.82915041  0.12563147  1
  In  In17  1  0.67946656  0.83386642  0.62399156  1
  In  In18  1  0.16753054  -0.00727302  0.37615275  1
  In  In19  1  0.16350226  -0.01019022  0.87269764  1
  In  In20  1  0.19070142  0.34737845  0.36672624  1
  In  In21  1  0.16642431  0.34930168  0.85766093  1
  In  In22  1  0.16444737  0.65640390  0.36751375  1
  In  In23  1  0.16874524  0.66376962  0.87037259  1
  In  In24  1  0.51050749  0.00282045  0.38150610  1
  In  In25  1  0.51113246  0.00507420  0.86793802  1
  In  In26  1  0.48262636  0.35307351  0.39803070  1
  In  In27  1  0.48340930  0.33677665  0.87796274  1
  In  In28  1  0.47623178  0.62745802  0.34493252  1
  In  In29  1  0.49937508  0.67536050  0.87429154  1
  In  In30  1  0.82527329  0.00266833  0.38899119  1
  In  In31  1  0.84173205  0.01219270  0.86863087  1
  In  In32  1  0.83336023  0.33465961  0.38867917  1
  In  In33  1  0.83735349  0.33296274  0.87096937  1
  In  In34  1  0.83790026  0.66317162  0.37965104  1
  In  In35  1  0.84809685  0.63355985  0.87686917  1
  In  In36  1  -0.00455813  0.16160894  0.38417635  1
  In  In37  1  -0.00461462  0.15794807  0.86742758  1
  In  In38  1  -0.00333300  0.50468246  0.38261207  1
  In  In39  1  0.00133482  0.50055042  0.86459570  1
  In  In40  1  0.00636127  0.81343704  0.37969679  1
  In  In41  1  0.00785248  0.84468992  0.87172575  1
  In  In42  1  0.33632526  0.18328225  0.37990488  1
  In  In43  1  0.34223743  0.17209529  0.87587651  1
  In  In44  1  0.33685321  0.50014593  0.37871686  1
  In  In45  1  0.32218096  0.49582044  0.85925561  1
  In  In46  1  0.34416181  0.82106933  0.37847836  1
  In  In47  1  0.32625964  0.81839180  0.86732793  1
  In  In48  1  0.66330774  0.17262592  0.38844792  1
  In  In49  1  0.67728211  0.16484011  0.87697700  1
  In  In50  1  0.66329219  0.50916144  0.37935268  1
  In  In51  1  0.68722579  0.50311514  0.87544489  1
  In  In52  1  0.68120747  0.82584061  0.38134554  1
  In  In53  1  0.65795488  0.83344668  0.87181602  1
  In  In54  1  0.18564843  -0.01322225  0.11225218  1
  In  In55  1  0.16612439  0.00193444  0.63796766  1
  In  In56  1  0.15986841  0.35374876  0.12308169  1
  In  In57  1  0.14840400  0.35910465  0.64853795  1
  In  In58  1  0.16416614  0.66361956  0.11997651  1
  In  In59  1  0.17814167  0.63582110  0.65174657  1
  In  In60  1  0.48982638  0.01241792  0.11691252  1
  In  In61  1  0.48497300  0.01436099  0.63642435  1
  In  In62  1  0.49528687  0.33070902  0.12334475  1
  In  In63  1  0.49392389  0.33263488  0.62177484  1
  In  In64  1  0.50249796  0.65303462  0.13750509  1
  In  In65  1  0.49413096  0.65402939  0.61671810  1
  In  In66  1  0.82323778  0.00638048  0.12029436  1
  In  In67  1  0.83083930  -0.00337317  0.62983680  1
  In  In68  1  0.83182665  0.33762140  0.11491381  1
  In  In69  1  0.85165664  0.34184992  0.62285910  1
  In  In70  1  0.84537362  0.66057724  0.12816314  1
  In  In71  1  0.83223737  0.67322952  0.61983519  1
  In  In72  1  0.49383972  0.49450745  0.00631731  1
  In  In73  1  0.66821347  -0.00734527  0.24747134  1
  In  In74  1  0.16083210  0.17174881  -0.01432762  1
  In  In75  1  0.83889163  0.83521290  0.00018667  1
  In  In76  1  0.15975003  0.82468092  0.50082046  1
  In  In77  1  0.49566098  0.83656981  0.00071928  1
  In  In78  1  0.00133355  -0.00577230  0.25276197  1
  In  In79  1  0.16498145  0.17925102  0.50537023  1
  In  In80  1  0.00025714  0.34342200  0.25702442  1
  In  In81  1  0.66800223  0.33239047  0.75254133  1
  In  In82  1  0.50642199  0.82703877  0.50301033  1
  In  In83  1  0.66742000  0.67357664  0.74913121  1
  In  In84  1  0.33618540  -0.00743431  0.24200661  1
  In  In85  1  0.65724363  0.33829617  0.25495071  1
  Cu  Cu86  1  0.66428323  0.33375964  -0.00287792  1
  Cu  Cu87  1  0.83813408  0.50445618  0.25167412  1
  Cu  Cu88  1  0.84290735  0.82187564  0.25697994  1
  Cu  Cu89  1  0.82612655  0.16949899  0.24849695  1
  Cu  Cu90  1  0.33178893  0.00664265  0.50808497  1
  Cu  Cu91  1  0.00511729  0.66315060  -0.00562930  1
  Cu  Cu92  1  -0.01216218  0.00322961  0.50991335  1
  Cu  Cu93  1  0.82695141  0.16169292  0.74615761  1
  Cu  Cu94  1  0.00133723  0.66503623  0.50703832  1
  Cu  Cu95  1  0.16970728  0.17410308  0.24782168  1
  Cu  Cu96  1  0.67528033  0.32817459  0.50880961  1
  Cu  Cu97  1  0.49424428  0.16994025  0.25052466  1
  Cu  Cu98  1  0.67026687  0.01084378  -0.00687521  1
  Cu  Cu99  1  0.16663565  0.82306196  0.24497808  1
  Cu  Cu100  1  0.66430986  0.66376068  0.49351907  1
  Cu  Cu101  1  0.32948436  0.65668322  -0.00262276  1
  Cu  Cu102  1  0.66358272  0.00360276  0.50699614  1
  Cu  Cu103  1  0.16262419  0.83290188  0.74885372  1
  Cu  Cu104  1  0.83113268  0.83419514  0.75491576  1
  Cu  Cu105  1  0.32997320  0.34294117  0.50641093  1
  Cu  Cu106  1  0.49984743  0.50405818  0.74802552  1
  Cu  Cu107  1  0.49639625  0.83645407  0.74743987  1
  Cu  Cu108  1  -0.01191741  0.34145751  -0.00796546  1
  Cu  Cu109  1  0.00945531  0.33965937  0.50638502  1
  Cu  Cu110  1  0.00316852  0.00153586  -0.00577818  1
  Cu  Cu111  1  0.49829113  0.16620380  0.74938261  1
  Cu  Cu112  1  0.17632829  0.16092807  0.75781277  1
  Cu  Cu113  1  0.32108924  0.33980171  -0.00376725  1
  Cu  Cu114  1  0.50323643  0.82163893  0.24826567  1
  Se  Se115  1  0.08242292  0.08013025  0.05893517  1
  Se  Se116  1  0.08083374  0.07869760  0.56153964  1
  Se  Se117  1  0.07963436  0.41704656  0.04363142  1
  Se  Se118  1  0.08699924  0.42505895  0.56124800  1
  Se  Se119  1  0.08860047  0.74872681  0.04589292  1
  Se  Se120  1  0.08398978  0.73720951  0.57039975  1
  Se  Se121  1  0.40800880  0.07804634  0.04263968  1
  Se  Se122  1  0.41420739  0.09199434  0.55785343  1
  Se  Se123  1  0.39510902  0.41478108  0.06439158  1
  Se  Se124  1  0.41968547  0.42527962  0.55566968  1
  Se  Se125  1  0.41655024  0.73092050  0.05739616  1
  Se  Se126  1  0.40239628  0.74068793  0.55228069  1
  Se  Se127  1  0.75408135  0.09271825  0.04793886  1
  Se  Se128  1  0.75009170  0.08284697  0.56031675  1
  Se  Se129  1  0.74598724  0.41977907  0.04912863  1
  Se  Se130  1  0.75809140  0.41619353  0.55704192  1
  Se  Se131  1  0.75044836  0.74690070  0.06082018  1
  Se  Se132  1  0.74473896  0.74882440  0.54860712  1
  Se  Se133  1  0.24481752  0.25416938  0.05826138  1
  Se  Se134  1  0.24622897  0.26932415  0.56891206  1
  Se  Se135  1  0.24820841  0.57511548  0.05390306  1
  Se  Se136  1  0.23799616  0.57542042  0.56366816  1
  Se  Se137  1  0.26657128  0.91561770  0.03970203  1
  Se  Se138  1  0.24796531  0.92251437  0.55952496  1
  Se  Se139  1  0.57712846  0.25505371  0.04991114  1
  Se  Se140  1  0.58202894  0.25084310  0.55639864  1
  Se  Se141  1  0.58821379  0.58754316  0.05765743  1
  Se  Se142  1  0.58198959  0.58030008  0.54781437  1
  Se  Se143  1  0.59382694  0.93019640  0.05663649  1
  Se  Se144  1  0.58028176  0.92546134  0.56759582  1
  Se  Se145  1  0.91026434  0.25210942  0.04483446  1
  Se  Se146  1  0.92496126  0.25042369  0.55256934  1
  Se  Se147  1  0.91349593  0.58617951  0.04613933  1
  Se  Se148  1  0.91372821  0.58187669  0.55672344  1
  Se  Se149  1  0.92864332  0.92537639  0.06402391  1
  Se  Se150  1  0.91026214  0.91190561  0.55818239  1
  Se  Se151  1  0.08301936  0.26516159  0.43476770  1
  Se  Se152  1  0.07085104  0.26410727  0.93002219  1
  Se  Se153  1  0.08404921  0.58925467  0.44695928  1
  Se  Se154  1  0.08376186  0.57852833  0.93762746  1
  Se  Se155  1  0.06894848  0.92596562  0.44569390  1
  Se  Se156  1  0.08766257  0.91317372  0.95010492  1
  Se  Se157  1  0.41273219  0.24982123  0.45933241  1
  Se  Se158  1  0.41202958  0.25547987  0.95275362  1
  Se  Se159  1  0.42893851  0.58258026  0.44168232  1
  Se  Se160  1  0.41265188  0.58160805  0.93630181  1
  Se  Se161  1  0.40979800  0.92499173  0.44662176  1
  Se  Se162  1  0.41666761  0.91468377  0.92852412  1
  Se  Se163  1  0.75769892  0.24334312  0.45460915  1
  Se  Se164  1  0.75227513  0.25638929  0.94262105  1
  Se  Se165  1  0.75604944  0.57893317  0.44846802  1
  Se  Se166  1  0.74401807  0.59576123  0.94777838  1
  Se  Se167  1  0.74428769  0.91598745  0.45505687  1
  Se  Se168  1  0.74729404  0.92281124  0.93770743  1
  Se  Se169  1  0.25191790  0.08188973  0.44317795  1
  Se  Se170  1  0.25464179  0.07723341  0.93716834  1
  Se  Se171  1  0.24815044  0.42309886  0.45013052  1
  Se  Se172  1  0.24489189  0.42042759  0.93604782  1
  Se  Se173  1  0.25342366  0.73954803  0.44223037  1
  Se  Se174  1  0.25012536  0.74397269  0.94437000  1
  Se  Se175  1  0.57911905  0.08729135  0.45488284  1
  Se  Se176  1  0.58196129  0.09016943  0.94241532  1
  Se  Se177  1  0.59856216  0.41114200  0.44827138  1
  Se  Se178  1  0.58847969  0.41606606  0.93642573  1
  Se  Se179  1  0.58059750  0.73948119  0.43304416  1
  Se  Se180  1  0.59188195  0.74364549  0.94755284  1
  Se  Se181  1  0.90973079  0.08861400  0.45411563  1
  Se  Se182  1  0.91727439  0.08600363  0.94634038  1
  Se  Se183  1  0.92022320  0.41788539  0.45216301  1
  Se  Se184  1  0.91026141  0.42795284  0.93683487  1
  Se  Se185  1  0.91801869  0.74790668  0.45208442  1
  Se  Se186  1  0.92349711  0.74560173  0.93610107  1
  Se  Se187  1  0.25883193  0.24986000  0.30047855  1
  Se  Se188  1  0.25471067  0.25071706  0.80750002  1
  Se  Se189  1  0.26494322  0.58895950  0.30689921  1
  Se  Se190  1  0.25248071  0.59169444  0.79590684  1
  Se  Se191  1  0.24586168  0.90383664  0.30677810  1
  Se  Se192  1  0.24954089  0.91236114  0.80295755  1
  Se  Se193  1  0.57375250  0.24319682  0.31459684  1
  Se  Se194  1  0.57485611  0.24726266  0.81277215  1
  Se  Se195  1  0.60041802  0.58295588  0.29761746  1
  Se  Se196  1  0.58212593  0.57680186  0.81075043  1
  Se  Se197  1  0.57753883  0.90564962  0.30987645  1
  Se  Se198  1  0.58650435  0.91517711  0.79800857  1
  Se  Se199  1  0.90883008  0.24277888  0.31094144  1
  Se  Se200  1  0.90988214  0.24253693  0.80195356  1
  Se  Se201  1  0.92135848  0.58409338  0.30758903  1
  Se  Se202  1  0.93117677  0.59362776  0.79251970  1
  Se  Se203  1  0.91040476  0.91255364  0.31829911  1
  Se  Se204  1  0.91747853  0.91955398  0.80381316  1
  Se  Se205  1  0.09279958  0.09291573  0.30921977  1
  Se  Se206  1  0.08621518  0.07754663  0.80389183  1
  Se  Se207  1  0.09507942  0.43399873  0.30863491  1
  Se  Se208  1  0.05957639  0.40149800  0.79155275  1
  Se  Se209  1  0.08184360  0.74565595  0.30102350  1
  Se  Se210  1  0.08270764  0.75217262  0.80642404  1
  Se  Se211  1  0.41950179  0.08225937  0.31041686  1
  Se  Se212  1  0.41636091  0.08362692  0.80525985  1
  Se  Se213  1  0.41366109  0.40541385  0.31227673  1
  Se  Se214  1  0.41940263  0.41609774  0.79912719  1
  Se  Se215  1  0.41069678  0.74662016  0.29833099  1
  Se  Se216  1  0.41945895  0.74483935  0.79869924  1
  Se  Se217  1  0.74989268  0.08872697  0.31078742  1
  Se  Se218  1  0.74429037  0.08049414  0.80126368  1
  Se  Se219  1  0.76146329  0.41861729  0.31050446  1
  Se  Se220  1  0.76507822  0.42850693  0.79776679  1
  Se  Se221  1  0.75372739  0.74430558  0.30803615  1
  Se  Se222  1  0.76018703  0.74962869  0.81724241  1
  Se  Se223  1  0.24280954  0.08696751  0.18752874  1
  Se  Se224  1  0.25880162  0.08080384  0.69980010  1
  Se  Se225  1  0.25287382  0.40274875  0.19792546  1
  Se  Se226  1  0.26138906  0.41408976  0.70418358  1
  Se  Se227  1  0.25162506  0.74549782  0.18946011  1
  Se  Se228  1  0.24836825  0.75215427  0.69600101  1
  Se  Se229  1  0.57779374  0.09023514  0.19160617  1
  Se  Se230  1  0.58557971  0.08195612  0.70127733  1
  Se  Se231  1  0.57103621  0.42619332  0.19139371  1
  Se  Se232  1  0.58288150  0.42495241  0.68941150  1
  Se  Se233  1  0.59139051  0.74308721  0.19715964  1
  Se  Se234  1  0.57390986  0.75548666  0.68391136  1
  Se  Se235  1  0.91090025  0.08999922  0.19194706  1
  Se  Se236  1  0.91673521  0.07999004  0.69693690  1
  Se  Se237  1  0.91165157  0.42143480  0.18779491  1
  Se  Se238  1  0.94070504  0.39904049  0.69945859  1
  Se  Se239  1  0.92597034  0.74327557  0.19976647  1
  Se  Se240  1  0.90769491  0.75291027  0.69465494  1
  Se  Se241  1  0.08115467  0.24717993  0.19123015  1
  Se  Se242  1  0.09585353  0.23628878  0.69612339  1
  Se  Se243  1  0.08443487  0.57937376  0.18967247  1
  Se  Se244  1  0.05520575  0.59797281  0.70604102  1
  Se  Se245  1  0.09292423  0.91195224  0.18607959  1
  Se  Se246  1  0.07713093  0.91764879  0.69881594  1
  Se  Se247  1  0.41322724  0.24862216  0.19338650  1
  Se  Se248  1  0.41906441  0.25364084  0.69706540  1
  Se  Se249  1  0.41433603  0.58115763  0.20522389  1
  Se  Se250  1  0.41691132  0.58790002  0.69592947  1
  Se  Se251  1  0.42944520  0.90323396  0.18311460  1
  Se  Se252  1  0.40783018  0.91853236  0.69824815  1
  Se  Se253  1  0.74817824  0.24919520  0.18889476  1
  Se  Se254  1  0.75523524  0.24868831  0.68587717  1
  Se  Se255  1  0.75395669  0.58277432  0.19485255  1
  Se  Se256  1  0.75506431  0.57996854  0.69175959  1
  Se  Se257  1  0.76683983  0.90236858  0.19292543  1
  Se  Se258  1  0.74657065  0.91527466  0.70090024  1
