# generated using pymatgen
data_In86Cu29Se144
_symmetry_space_group_name_H-M   'P 1'
_cell_length_a   17.59035879
_cell_length_b   17.59093171
_cell_length_c   23.44287040
_cell_angle_alpha   89.98878125
_cell_angle_beta   89.98840613
_cell_angle_gamma   90.01642746
_symmetry_Int_Tables_number   1
_chemical_formula_structural   In86Cu29Se144
_chemical_formula_sum   'In86 Cu29 Se144'
_cell_volume   7253.94556367
_cell_formula_units_Z   1
loop_
 _symmetry_equiv_pos_site_id
 _symmetry_equiv_pos_as_xyz
  1  'x, y, z'
loop_
 _atom_site_type_symbol
 _atom_site_label
 _atom_site_symmetry_multiplicity
 _atom_site_fract_x
 _atom_site_fract_y
 _atom_site_fract_z
 _atom_site_occupancy
  In  In0  1  0.01113407  0.16481857  0.12470776  1
  In  In1  1  -0.00426353  0.15354392  0.62379356  1
  In  In2  1  0.00021330  0.50157795  0.12908171  1
  In  In3  1  0.00521940  0.51109809  0.62875995  1
  In  In4  1  -0.00059111  0.82780718  0.12581775  1
  In  In5  1  -0.01591175  0.84922669  0.64621320  1
  In  In6  1  0.34382028  0.17373990  0.11265285  1
  In  In7  1  0.32237220  0.16814238  0.62085868  1
  In  In8  1  0.33124795  0.50577391  0.12055058  1
  In  In9  1  0.34011816  0.49033687  0.62349905  1
  In  In10  1  0.32913459  0.83843465  0.12396905  1
  In  In11  1  0.34299412  0.83216334  0.63109043  1
  In  In12  1  0.66478417  0.18623845  0.11605911  1
  In  In13  1  0.66771976  0.16736583  0.63685319  1
  In  In14  1  0.67260692  0.49879025  0.12058179  1
  In  In15  1  0.65323265  0.49942014  0.62376604  1
  In  In16  1  0.67643751  0.81428181  0.13530182  1
  In  In17  1  0.67582867  0.82750280  0.62701730  1
  In  In18  1  0.16294623  0.01307086  0.38003882  1
  In  In19  1  0.16466726  -0.00008020  0.86847686  1
  In  In20  1  0.16377244  0.32355670  0.36172330  1
  In  In21  1  0.16393494  0.32980099  0.88994855  1
  In  In22  1  0.16355513  0.66405362  0.36325629  1
  In  In23  1  0.15367624  0.68603002  0.90998352  1
  In  In24  1  0.49978064  0.00956711  0.38000279  1
  In  In25  1  0.50285191  0.00868398  0.87239988  1
  In  In26  1  0.51304650  0.34766797  0.36144516  1
  In  In27  1  0.50670186  0.33236453  0.88746663  1
  In  In28  1  0.48523393  0.65779645  0.36061883  1
  In  In29  1  0.49186689  0.65517478  0.88396794  1
  In  In30  1  0.83627773  -0.01503020  0.37523957  1
  In  In31  1  0.83115644  -0.01376612  0.86887156  1
  In  In32  1  0.84023774  0.34369077  0.35351629  1
  In  In33  1  0.82548736  0.34786462  0.88229779  1
  In  In34  1  0.84300655  0.68006467  0.34344321  1
  In  In35  1  0.83705544  0.66679377  0.87986841  1
  In  In36  1  0.01015394  0.17083124  0.36655089  1
  In  In37  1  0.01144430  0.16150483  0.88080576  1
  In  In38  1  -0.00122995  0.50874825  0.35424986  1
  In  In39  1  -0.01174089  0.51283356  0.88802292  1
  In  In40  1  -0.01584865  0.82722403  0.35876486  1
  In  In41  1  0.00622399  0.83116767  0.87147934  1
  In  In42  1  0.32091844  0.15993677  0.37228118  1
  In  In43  1  0.33359653  0.16364032  0.87835933  1
  In  In44  1  0.34372062  0.50657883  0.36136911  1
  In  In45  1  0.33595193  0.50499930  0.89708546  1
  In  In46  1  0.33564563  0.82090044  0.36809545  1
  In  In47  1  0.29310171  0.83680077  0.88631291  1
  In  In48  1  0.66090042  0.17585529  0.37111997  1
  In  In49  1  0.66197019  0.16399219  0.87954905  1
  In  In50  1  0.66467146  0.49594539  0.36361001  1
  In  In51  1  0.67278744  0.49533249  0.88667147  1
  In  In52  1  0.67842962  0.83579287  0.37039415  1
  In  In53  1  0.67198176  0.84313687  0.87497713  1
  In  In54  1  0.16039336  -0.01416539  0.11111368  1
  In  In55  1  0.15290192  0.00593272  0.63548773  1
  In  In56  1  0.16881915  0.33450341  0.12466185  1
  In  In57  1  0.18227506  0.33503915  0.62232744  1
  In  In58  1  0.16932295  0.66804919  0.12207495  1
  In  In59  1  0.15317481  0.66615099  0.63200818  1
  In  In60  1  0.49150423  -0.00018448  0.11695917  1
  In  In61  1  0.50344092  -0.00031017  0.63971734  1
  In  In62  1  0.50221821  0.33065389  0.11936768  1
  In  In63  1  0.50120151  0.34586381  0.62256332  1
  In  In64  1  0.51905433  0.66038882  0.13773871  1
  In  In65  1  0.50664351  0.65664251  0.62097059  1
  In  In66  1  0.84974878  -0.00218742  0.12533325  1
  In  In67  1  0.84297981  -0.01243971  0.64080421  1
  In  In68  1  0.81663396  0.35848476  0.14696403  1
  In  In69  1  0.83267444  0.32191204  0.62922453  1
  In  In70  1  0.83412465  0.66633841  0.13102761  1
  In  In71  1  0.83447676  0.67811476  0.62229683  1
  In  In72  1  0.50501634  0.83121387  -0.00065749  1
  In  In73  1  0.15936329  0.83380999  0.50468531  1
  In  In74  1  0.17227997  0.49919883  0.49444742  1
  In  In75  1  0.32510081  0.66880678  0.76304470  1
  In  In76  1  0.82946180  0.49617752  0.48232216  1
  In  In77  1  -0.00683658  0.32996817  0.75624320  1
  In  In78  1  0.83785829  0.17490255  0.00261335  1
  In  In79  1  0.66583912  0.00318493  0.25334998  1
  In  In80  1  0.83318776  0.16341809  0.49808772  1
  In  In81  1  0.50014842  0.17207496  0.49632240  1
  In  In82  1  0.50283880  0.83085731  0.49129783  1
  In  In83  1  0.32448954  -0.00427734  0.24931343  1
  In  In84  1  0.67247086  0.67154781  0.75554653  1
  In  In85  1  0.33693509  0.33237428  0.75203102  1
  Cu  Cu86  1  0.33328834  0.65665031  0.49273481  1
  Cu  Cu87  1  0.66636872  0.66093455  0.49589255  1
  Cu  Cu88  1  0.32656272  0.00187803  0.50415910  1
  Cu  Cu89  1  0.82349271  0.16652086  0.75706211  1
  Cu  Cu90  1  0.16218626  0.16520682  0.74733532  1
  Cu  Cu91  1  0.17302105  0.16295995  0.24270112  1
  Cu  Cu92  1  0.67268325  -0.00343613  -0.00159508  1
  Cu  Cu93  1  0.83767001  0.16594216  0.24184783  1
  Cu  Cu94  1  0.67812398  -0.00876030  0.50682544  1
  Cu  Cu95  1  0.01349267  0.32875096  0.49020951  1
  Cu  Cu96  1  0.32811134  0.33322975  0.00587619  1
  Cu  Cu97  1  0.00245847  -0.01086477  -0.00154612  1
  Cu  Cu98  1  0.67759915  0.66453080  0.00719528  1
  Cu  Cu99  1  -0.00060782  -0.00778562  0.50682588  1
  Cu  Cu100  1  0.82911979  0.50358011  0.75787683  1
  Cu  Cu101  1  0.32751379  -0.00050577  -0.00575731  1
  Cu  Cu102  1  0.49979117  0.49549472  0.75273050  1
  Cu  Cu103  1  0.49646688  0.83539040  0.75788793  1
  Cu  Cu104  1  0.66874557  0.33975096  0.49337460  1
  Cu  Cu105  1  0.15861596  0.83218701  0.24221173  1
  Cu  Cu106  1  -0.01281441  0.67031683  0.49087614  1
  Cu  Cu107  1  0.50147612  0.17024274  0.75898790  1
  Cu  Cu108  1  0.15983543  0.50543788  0.76422250  1
  Cu  Cu109  1  -0.00383009  0.66855811  0.00863880  1
  Cu  Cu110  1  -0.00487671  0.33611215  0.00893933  1
  Cu  Cu111  1  0.49875456  0.49385487  0.23948222  1
  Cu  Cu112  1  0.33875249  0.33532430  0.49498548  1
  Cu  Cu113  1  0.50033658  0.17274237  0.24129043  1
  Cu  Cu114  1  0.17235958  0.50216582  0.24089540  1
  Se  Se115  1  0.08105625  0.08050009  0.04890408  1
  Se  Se116  1  0.08361853  0.08022175  0.55404088  1
  Se  Se117  1  0.08240783  0.41827011  0.05859817  1
  Se  Se118  1  0.07897468  0.41220547  0.55831392  1
  Se  Se119  1  0.08663652  0.75404169  0.05337673  1
  Se  Se120  1  0.06783328  0.74009664  0.55746179  1
  Se  Se121  1  0.41620904  0.08036493  0.04449636  1
  Se  Se122  1  0.41810963  0.07650319  0.55979729  1
  Se  Se123  1  0.41393211  0.41594429  0.05579752  1
  Se  Se124  1  0.42044166  0.41934516  0.54760701  1
  Se  Se125  1  0.42604046  0.74855348  0.06964363  1
  Se  Se126  1  0.41085240  0.74040695  0.55369934  1
  Se  Se127  1  0.74851899  0.07868805  0.06197938  1
  Se  Se128  1  0.74979901  0.07828883  0.56633813  1
  Se  Se129  1  0.75482754  0.40973181  0.05611572  1
  Se  Se130  1  0.75046058  0.41221548  0.55877201  1
  Se  Se131  1  0.75834776  0.75307101  0.05601421  1
  Se  Se132  1  0.74470377  0.74581637  0.55065344  1
  Se  Se133  1  0.24214480  0.24534780  0.05212143  1
  Se  Se134  1  0.25318319  0.25397219  0.54701938  1
  Se  Se135  1  0.24552811  0.58306707  0.05113146  1
  Se  Se136  1  0.25423264  0.58952827  0.56265486  1
  Se  Se137  1  0.25115793  0.90786307  0.04522926  1
  Se  Se138  1  0.25380629  0.91852634  0.56489671  1
  Se  Se139  1  0.56724659  0.23879505  0.04604261  1
  Se  Se140  1  0.59562193  0.25707137  0.55707232  1
  Se  Se141  1  0.58617965  0.58680469  0.05549256  1
  Se  Se142  1  0.58106603  0.57791507  0.54643669  1
  Se  Se143  1  0.59685729  0.91662853  0.06329564  1
  Se  Se144  1  0.58321882  0.92014751  0.56015610  1
  Se  Se145  1  0.91580921  0.26060944  0.07229602  1
  Se  Se146  1  0.92844320  0.25835585  0.55423901  1
  Se  Se147  1  0.91449419  0.58201322  0.05954092  1
  Se  Se148  1  0.91674092  0.58153588  0.55136158  1
  Se  Se149  1  0.91730119  0.91035923  0.05290439  1
  Se  Se150  1  0.91432234  0.91291329  0.56068325  1
  Se  Se151  1  0.09485860  0.24319845  0.44079257  1
  Se  Se152  1  0.07556132  0.24938430  0.95543122  1
  Se  Se153  1  0.07324583  0.58734247  0.43801083  1
  Se  Se154  1  0.08005778  0.57776680  0.96024207  1
  Se  Se155  1  0.07235277  0.91671388  0.43769311  1
  Se  Se156  1  0.08969205  0.91440836  0.94184809  1
  Se  Se157  1  0.41502132  0.25700072  0.43046289  1
  Se  Se158  1  0.40844123  0.25356137  0.94577280  1
  Se  Se159  1  0.41947433  0.57799863  0.44087560  1
  Se  Se160  1  0.42764607  0.57978542  0.96331602  1
  Se  Se161  1  0.40145515  0.92418643  0.44059731  1
  Se  Se162  1  0.41207896  0.91660448  0.93653273  1
  Se  Se163  1  0.75309543  0.26211482  0.43574900  1
  Se  Se164  1  0.73845872  0.26003149  0.94809569  1
  Se  Se165  1  0.74632966  0.59440708  0.42759746  1
  Se  Se166  1  0.75846931  0.58204484  0.94928683  1
  Se  Se167  1  0.75502646  0.90891365  0.44871725  1
  Se  Se168  1  0.75714889  0.91261197  0.94910514  1
  Se  Se169  1  0.24745317  0.08843311  0.45188767  1
  Se  Se170  1  0.24270525  0.08378868  0.94252926  1
  Se  Se171  1  0.25821659  0.41166299  0.43144165  1
  Se  Se172  1  0.24360182  0.41779087  0.95479959  1
  Se  Se173  1  0.24931729  0.74125398  0.44179457  1
  Se  Se174  1  0.28288019  0.72345759  0.95387086  1
  Se  Se175  1  0.60224445  0.07661040  0.44760019  1
  Se  Se176  1  0.58440897  0.07815964  0.94981172  1
  Se  Se177  1  0.58491670  0.42142680  0.44102752  1
  Se  Se178  1  0.56613227  0.43874638  0.94901707  1
  Se  Se179  1  0.58750053  0.73922733  0.43151793  1
  Se  Se180  1  0.59868965  0.73960596  0.94016485  1
  Se  Se181  1  0.92665089  0.07563157  0.44066703  1
  Se  Se182  1  0.91879168  0.07453114  0.94277345  1
  Se  Se183  1  0.93281975  0.40820784  0.43202029  1
  Se  Se184  1  0.91312718  0.41795270  0.95289299  1
  Se  Se185  1  0.90594451  0.74682667  0.43165680  1
  Se  Se186  1  0.92385266  0.75011347  0.94460640  1
  Se  Se187  1  0.25684925  0.24531103  0.29657965  1
  Se  Se188  1  0.23756825  0.24868493  0.80803075  1
  Se  Se189  1  0.25265767  0.58656384  0.29767249  1
  Se  Se190  1  0.24337808  0.57657112  0.82497346  1
  Se  Se191  1  0.23345288  0.90707374  0.31260500  1
  Se  Se192  1  0.25985152  0.92381066  0.80431723  1
  Se  Se193  1  0.58686005  0.25186934  0.29602681  1
  Se  Se194  1  0.58231635  0.25430441  0.81196020  1
  Se  Se195  1  0.57665651  0.57740879  0.29784813  1
  Se  Se196  1  0.57909189  0.57942419  0.80956493  1
  Se  Se197  1  0.57097270  0.91624950  0.31268764  1
  Se  Se198  1  0.58360595  0.91856066  0.80692234  1
  Se  Se199  1  0.92251296  0.24650955  0.29779604  1
  Se  Se200  1  0.90533598  0.24290665  0.81998381  1
  Se  Se201  1  0.90042502  0.56835085  0.28783442  1
  Se  Se202  1  0.91626182  0.58431090  0.80733030  1
  Se  Se203  1  0.91997961  0.92995922  0.29656020  1
  Se  Se204  1  0.92883953  0.92079482  0.80395396  1
  Se  Se205  1  0.09020879  0.08202050  0.29953345  1
  Se  Se206  1  0.07744871  0.08475681  0.80082935  1
  Se  Se207  1  0.09103059  0.42036236  0.29852972  1
  Se  Se208  1  0.08116717  0.41823173  0.81832934  1
  Se  Se209  1  0.07817843  0.74643738  0.29777051  1
  Se  Se210  1  0.10379488  0.74374496  0.81792251  1
  Se  Se211  1  0.42409845  0.09033311  0.30275929  1
  Se  Se212  1  0.41292164  0.08630678  0.80446837  1
  Se  Se213  1  0.41388412  0.41123710  0.29462883  1
  Se  Se214  1  0.41612184  0.42470387  0.81585208  1
  Se  Se215  1  0.41376531  0.75165930  0.29386370  1
  Se  Se216  1  0.42018611  0.75616978  0.81996241  1
  Se  Se217  1  0.76074108  0.09369679  0.31193475  1
  Se  Se218  1  0.74508578  0.08111740  0.81148155  1
  Se  Se219  1  0.74655047  0.41772527  0.29271846  1
  Se  Se220  1  0.74411206  0.41921534  0.80655833  1
  Se  Se221  1  0.73532289  0.75232085  0.29149143  1
  Se  Se222  1  0.76548897  0.76303957  0.80717863  1
  Se  Se223  1  0.24848724  0.08239434  0.17860284  1
  Se  Se224  1  0.25132235  0.08668554  0.69484334  1
  Se  Se225  1  0.25566327  0.41648049  0.19162106  1
  Se  Se226  1  0.24084459  0.43117139  0.69938281  1
  Se  Se227  1  0.24952459  0.75413344  0.19308538  1
  Se  Se228  1  0.24367057  0.75464886  0.69299389  1
  Se  Se229  1  0.57916354  0.08717980  0.18515251  1
  Se  Se230  1  0.58503954  0.08576630  0.70429410  1
  Se  Se231  1  0.58530107  0.41288114  0.18796057  1
  Se  Se232  1  0.58395387  0.41420365  0.69873085  1
  Se  Se233  1  0.57955265  0.75998512  0.20613726  1
  Se  Se234  1  0.57044473  0.75265321  0.69407714  1
  Se  Se235  1  0.92496450  0.08421130  0.19401834  1
  Se  Se236  1  0.91217200  0.09164011  0.70079541  1
  Se  Se237  1  0.92894111  0.41413550  0.20230837  1
  Se  Se238  1  0.90855726  0.42585892  0.69283407  1
  Se  Se239  1  0.91944834  0.74934722  0.19791243  1
  Se  Se240  1  0.92715308  0.73113636  0.69543633  1
  Se  Se241  1  0.08787269  0.25022425  0.19578407  1
  Se  Se242  1  0.08755239  0.25183425  0.68724599  1
  Se  Se243  1  0.08645492  0.58859481  0.19391307  1
  Se  Se244  1  0.07843026  0.58470223  0.70624577  1
  Se  Se245  1  0.08123837  0.92153211  0.19097054  1
  Se  Se246  1  0.09020758  0.91149839  0.70349731  1
  Se  Se247  1  0.41310057  0.25209482  0.19030977  1
  Se  Se248  1  0.42583912  0.24305935  0.68819115  1
  Se  Se249  1  0.41545175  0.58332342  0.19343465  1
  Se  Se250  1  0.41846682  0.57909621  0.69567641  1
  Se  Se251  1  0.42472385  0.91347099  0.19411509  1
  Se  Se252  1  0.41408204  0.91774784  0.70289786  1
  Se  Se253  1  0.74525624  0.24619092  0.19676632  1
  Se  Se254  1  0.74734250  0.25584087  0.70348318  1
  Se  Se255  1  0.72903619  0.59881323  0.19075774  1
  Se  Se256  1  0.75255276  0.57746250  0.68859577  1
  Se  Se257  1  0.75785920  0.91751449  0.19377257  1
  Se  Se258  1  0.73734289  0.91894565  0.69701250  1
