# generated using pymatgen
data_In86Cu29Se144
_symmetry_space_group_name_H-M   'P 1'
_cell_length_a   17.59484674
_cell_length_b   17.59944592
_cell_length_c   23.46072559
_cell_angle_alpha   90.00933087
_cell_angle_beta   90.01347666
_cell_angle_gamma   89.98575182
_symmetry_Int_Tables_number   1
_chemical_formula_structural   In86Cu29Se144
_chemical_formula_sum   'In86 Cu29 Se144'
_cell_volume   7264.83728891
_cell_formula_units_Z   1
loop_
 _symmetry_equiv_pos_site_id
 _symmetry_equiv_pos_as_xyz
  1  'x, y, z'
loop_
 _atom_site_type_symbol
 _atom_site_label
 _atom_site_symmetry_multiplicity
 _atom_site_fract_x
 _atom_site_fract_y
 _atom_site_fract_z
 _atom_site_occupancy
  In  In0  1  -0.00588232  0.18817097  0.12906430  1
  In  In1  1  0.00873537  0.17957252  0.62373879  1
  In  In2  1  -0.01230203  0.50026790  0.13422639  1
  In  In3  1  -0.01369465  0.49643581  0.62085482  1
  In  In4  1  -0.00980998  0.82548252  0.12784581  1
  In  In5  1  -0.01241229  0.83397203  0.62415851  1
  In  In6  1  0.34066577  0.15822136  0.13207592  1
  In  In7  1  0.34566012  0.16195062  0.62425211  1
  In  In8  1  0.34177032  0.49648266  0.13645072  1
  In  In9  1  0.35200074  0.47520870  0.63109113  1
  In  In10  1  0.34547987  0.82616724  0.13031501  1
  In  In11  1  0.35461374  0.84506909  0.61456456  1
  In  In12  1  0.66108199  0.16992676  0.12117800  1
  In  In13  1  0.65066070  0.18465123  0.63056223  1
  In  In14  1  0.67889261  0.48467469  0.13995075  1
  In  In15  1  0.66193194  0.49774900  0.61957457  1
  In  In16  1  0.65632130  0.84134896  0.13308037  1
  In  In17  1  0.65300978  0.84607598  0.63432941  1
  In  In18  1  0.17327606  -0.01236138  0.37634483  1
  In  In19  1  0.17881534  -0.00527566  0.87236963  1
  In  In20  1  0.17259456  0.33710033  0.37010215  1
  In  In21  1  0.17265248  0.33477591  0.87020694  1
  In  In22  1  0.16460482  0.66367052  0.36638990  1
  In  In23  1  0.16354491  0.66625586  0.87677496  1
  In  In24  1  0.49562220  -0.00050485  0.38179716  1
  In  In25  1  0.50258955  0.00218407  0.87457556  1
  In  In26  1  0.49872964  0.33060545  0.37681133  1
  In  In27  1  0.49370080  0.32487175  0.86552291  1
  In  In28  1  0.49954371  0.66799053  0.37701791  1
  In  In29  1  0.51657097  0.66299592  0.88132180  1
  In  In30  1  0.82626049  0.01686193  0.37263051  1
  In  In31  1  0.83719140  0.01462841  0.87713907  1
  In  In32  1  0.83108313  0.34501700  0.36469432  1
  In  In33  1  0.82505949  0.33302935  0.87363437  1
  In  In34  1  0.80765783  0.63619506  0.35045291  1
  In  In35  1  0.81496464  0.66054134  0.87656660  1
  In  In36  1  -0.01534925  0.17536956  0.37288758  1
  In  In37  1  -0.01677520  0.17346256  0.88120232  1
  In  In38  1  -0.01311469  0.48907492  0.36468008  1
  In  In39  1  -0.01322222  0.48229464  0.86806040  1
  In  In40  1  0.00720315  0.82517170  0.37347973  1
  In  In41  1  -0.00251148  0.82071965  0.87644099  1
  In  In42  1  0.34892926  0.17381145  0.37372818  1
  In  In43  1  0.35719673  0.18352798  0.86615255  1
  In  In44  1  0.33711926  0.50136757  0.37407261  1
  In  In45  1  0.34664108  0.47972280  0.87535079  1
  In  In46  1  0.35000535  0.84749745  0.36994698  1
  In  In47  1  0.33509832  0.85141934  0.87108785  1
  In  In48  1  0.65133619  0.16145242  0.36624025  1
  In  In49  1  0.66513228  0.16533029  0.87308149  1
  In  In50  1  0.66377338  0.49424317  0.37277749  1
  In  In51  1  0.67127086  0.50580373  0.86497467  1
  In  In52  1  0.65630969  0.82759564  0.37356004  1
  In  In53  1  0.65379137  0.82437236  0.87173221  1
  In  In54  1  0.17979710  0.01135386  0.12725078  1
  In  In55  1  0.17427907  0.01784942  0.62280658  1
  In  In56  1  0.16527277  0.33294436  0.13456901  1
  In  In57  1  0.16914196  0.32764350  0.63407675  1
  In  In58  1  0.16925511  0.66331627  0.13208657  1
  In  In59  1  0.16901805  0.66989711  0.61898584  1
  In  In60  1  0.50271267  0.00061101  0.12444607  1
  In  In61  1  0.49913044  0.00810104  0.62027486  1
  In  In62  1  0.50414730  0.32460529  0.12815051  1
  In  In63  1  0.50052467  0.33095866  0.61449634  1
  In  In64  1  0.49703828  0.67153858  0.13571194  1
  In  In65  1  0.51546618  0.67150389  0.61809601  1
  In  In66  1  0.81408408  0.00307325  0.12530117  1
  In  In67  1  0.82315938  -0.00839506  0.62442148  1
  In  In68  1  0.83098177  0.33665878  0.12481551  1
  In  In69  1  0.80177357  0.37142856  0.65384233  1
  In  In70  1  0.84056258  0.65064525  0.14304811  1
  In  In71  1  0.81797026  0.64256495  0.61805753  1
  In  In72  1  0.50887648  0.49239126  0.00538048  1
  In  In73  1  0.82961031  0.83064703  0.49946946  1
  In  In74  1  0.81304677  0.83476415  0.00900409  1
  In  In75  1  0.17357761  0.16736270  0.49755244  1
  In  In76  1  0.34185792  0.66259246  0.74458371  1
  In  In77  1  0.00004603  0.66737743  0.75346592  1
  In  In78  1  -0.00229444  0.00825196  0.75207581  1
  In  In79  1  0.17449190  0.50123372  0.49343056  1
  In  In80  1  0.16839154  0.83332666  -0.00429097  1
  In  In81  1  0.16276872  0.50075675  -0.00719066  1
  In  In82  1  0.00451450  -0.00109946  0.25098297  1
  In  In83  1  0.16953223  0.82813942  0.49272676  1
  In  In84  1  0.16975733  0.16770626  0.00217243  1
  In  In85  1  0.83113374  0.17735185  0.50113402  1
  Cu  Cu86  1  -0.00190825  0.00613699  0.00068714  1
  Cu  Cu87  1  0.66107672  0.00427154  0.50089482  1
  Cu  Cu88  1  0.34549094  0.00148286  0.00007058  1
  Cu  Cu89  1  -0.01032150  0.34041726  0.00218257  1
  Cu  Cu90  1  0.49787311  0.83770876  0.74751985  1
  Cu  Cu91  1  0.83154441  0.83294041  0.24921072  1
  Cu  Cu92  1  0.33872070  0.66348712  0.49938309  1
  Cu  Cu93  1  0.49994412  0.83766274  0.25348630  1
  Cu  Cu94  1  0.17450289  0.83107183  0.25015558  1
  Cu  Cu95  1  0.65973277  0.00538149  -0.00101997  1
  Cu  Cu96  1  0.17555010  0.16382561  0.25372707  1
  Cu  Cu97  1  0.16455258  0.49783217  0.25085616  1
  Cu  Cu98  1  -0.01476546  0.65895842  0.00898287  1
  Cu  Cu99  1  0.82459941  0.17103909  0.24733040  1
  Cu  Cu100  1  0.83351266  0.16742522  0.75507981  1
  Cu  Cu101  1  -0.00501188  0.33887312  0.49917724  1
  Cu  Cu102  1  0.67044770  0.33111830  -0.00127556  1
  Cu  Cu103  1  -0.01345363  0.66385977  0.49243831  1
  Cu  Cu104  1  0.50493951  0.16614120  0.24953775  1
  Cu  Cu105  1  0.17040962  0.16795476  0.75083484  1
  Cu  Cu106  1  0.50249751  0.16321404  0.74599098  1
  Cu  Cu107  1  0.66778572  0.65944655  0.00693911  1
  Cu  Cu108  1  0.49887961  0.50156000  0.25634133  1
  Cu  Cu109  1  0.82575856  0.82951171  0.74983622  1
  Cu  Cu110  1  0.66889151  0.33537665  0.50079392  1
  Cu  Cu111  1  0.18012232  0.84780251  0.74067295  1
  Cu  Cu112  1  0.34208048  0.66594413  0.00786227  1
  Cu  Cu113  1  0.16863961  0.50224460  0.75023610  1
  Cu  Cu114  1  0.67076089  0.66234052  0.49241218  1
  Se  Se115  1  0.07533626  0.08105772  0.06450136  1
  Se  Se116  1  0.07331895  0.07939174  0.55411234  1
  Se  Se117  1  0.07866639  0.41402981  0.05997671  1
  Se  Se118  1  0.08543732  0.41189165  0.55806622  1
  Se  Se119  1  0.07639219  0.74157207  0.05632017  1
  Se  Se120  1  0.06711600  0.74200899  0.55312716  1
  Se  Se121  1  0.42136999  0.08763139  0.05556180  1
  Se  Se122  1  0.40781151  0.07599465  0.54893261  1
  Se  Se123  1  0.40965003  0.40941430  0.06082527  1
  Se  Se124  1  0.42059375  0.41787253  0.54637354  1
  Se  Se125  1  0.42589670  0.75066454  0.05653202  1
  Se  Se126  1  0.42265572  0.74767433  0.55110368  1
  Se  Se127  1  0.74648171  0.08644192  0.05103243  1
  Se  Se128  1  0.74124291  0.08471159  0.56042124  1
  Se  Se129  1  0.74615579  0.41793620  0.05504031  1
  Se  Se130  1  0.75565783  0.41580202  0.55397173  1
  Se  Se131  1  0.74323859  0.73629377  0.07342264  1
  Se  Se132  1  0.73731495  0.74693950  0.56137745  1
  Se  Se133  1  0.25540052  0.25412233  0.06559711  1
  Se  Se134  1  0.25721363  0.25767021  0.55979087  1
  Se  Se135  1  0.25627496  0.58416489  0.05942656  1
  Se  Se136  1  0.26283617  0.58388995  0.56151336  1
  Se  Se137  1  0.25854582  0.92165698  0.05678002  1
  Se  Se138  1  0.25081404  0.92286857  0.55435484  1
  Se  Se139  1  0.58083757  0.25250431  0.04989510  1
  Se  Se140  1  0.58387889  0.24591253  0.54467511  1
  Se  Se141  1  0.58932542  0.58281353  0.07077926  1
  Se  Se142  1  0.58527759  0.58137354  0.54714331  1
  Se  Se143  1  0.58503651  0.91635281  0.05397963  1
  Se  Se144  1  0.58227777  0.91747430  0.55411565  1
  Se  Se145  1  0.91031837  0.25074066  0.05232357  1
  Se  Se146  1  0.91619516  0.26551996  0.56408791  1
  Se  Se147  1  0.90520405  0.57510993  0.06052142  1
  Se  Se148  1  0.91070357  0.57695296  0.54760805  1
  Se  Se149  1  0.91926295  0.92287231  0.06034681  1
  Se  Se150  1  0.92232609  0.92842496  0.55287937  1
  Se  Se151  1  0.07545893  0.25784807  0.44093599  1
  Se  Se152  1  0.07740790  0.26175383  0.94438820  1
  Se  Se153  1  0.07537369  0.58608818  0.43852746  1
  Se  Se154  1  0.06302463  0.58963242  0.93842407  1
  Se  Se155  1  0.07122911  0.92357615  0.44447993  1
  Se  Se156  1  0.07222788  0.92615631  0.93875541  1
  Se  Se157  1  0.42999891  0.24107165  0.44966120  1
  Se  Se158  1  0.42047456  0.25739037  0.94665088  1
  Se  Se159  1  0.41939981  0.57962003  0.44527131  1
  Se  Se160  1  0.41346923  0.58266147  0.94380060  1
  Se  Se161  1  0.41744116  0.91377923  0.45179271  1
  Se  Se162  1  0.42235360  0.91441291  0.94525214  1
  Se  Se163  1  0.74231963  0.25648314  0.43278509  1
  Se  Se164  1  0.75052914  0.24503542  0.94384470  1
  Se  Se165  1  0.75263539  0.57676129  0.44164483  1
  Se  Se166  1  0.74400522  0.57593848  0.94866526  1
  Se  Se167  1  0.74355466  0.92711050  0.44080657  1
  Se  Se168  1  0.74207490  0.92513786  0.93786106  1
  Se  Se169  1  0.26015516  0.07653415  0.43825384  1
  Se  Se170  1  0.25991645  0.07934231  0.94191446  1
  Se  Se171  1  0.26373868  0.40216848  0.44472144  1
  Se  Se172  1  0.25977538  0.40396238  0.94863084  1
  Se  Se173  1  0.26000075  0.73944253  0.43498312  1
  Se  Se174  1  0.26380393  0.74196954  0.94093947  1
  Se  Se175  1  0.58177423  0.08784279  0.44604388  1
  Se  Se176  1  0.57899757  0.08889753  0.94455629  1
  Se  Se177  1  0.58364121  0.41531981  0.44504158  1
  Se  Se178  1  0.59107272  0.40995003  0.93564549  1
  Se  Se179  1  0.58284590  0.74951169  0.44869250  1
  Se  Se180  1  0.58881559  0.74793215  0.95396573  1
  Se  Se181  1  0.92267469  0.07922416  0.44548423  1
  Se  Se182  1  0.91079291  0.09016557  0.95412953  1
  Se  Se183  1  0.91156685  0.41690845  0.44253985  1
  Se  Se184  1  0.90605102  0.41850826  0.94586148  1
  Se  Se185  1  0.90816333  0.74216954  0.43156640  1
  Se  Se186  1  0.91004278  0.74545196  0.94886922  1
  Se  Se187  1  0.25583530  0.24884033  0.30711088  1
  Se  Se188  1  0.25498396  0.25141810  0.80310886  1
  Se  Se189  1  0.25070907  0.57903930  0.30361424  1
  Se  Se190  1  0.24947284  0.57887796  0.81189880  1
  Se  Se191  1  0.25464557  0.91821849  0.30137630  1
  Se  Se192  1  0.26103250  0.92958358  0.79504973  1
  Se  Se193  1  0.58296490  0.25796303  0.30022998  1
  Se  Se194  1  0.58497952  0.24580170  0.80105050  1
  Se  Se195  1  0.58230374  0.58614788  0.30751417  1
  Se  Se196  1  0.57338143  0.58062700  0.80366523  1
  Se  Se197  1  0.58084868  0.92107089  0.30935298  1
  Se  Se198  1  0.58284756  0.91718095  0.80395580  1
  Se  Se199  1  0.91205430  0.25310904  0.29892790  1
  Se  Se200  1  0.91689366  0.25382456  0.80473958  1
  Se  Se201  1  0.93565105  0.60085996  0.30521302  1
  Se  Se202  1  0.90436623  0.57887397  0.80599529  1
  Se  Se203  1  0.91043821  0.91366485  0.31183117  1
  Se  Se204  1  0.91107606  0.90685391  0.80907227  1
  Se  Se205  1  0.08911849  0.08973659  0.31485271  1
  Se  Se206  1  0.08942779  0.09368120  0.81612537  1
  Se  Se207  1  0.08263794  0.41136392  0.30268267  1
  Se  Se208  1  0.08730310  0.41783018  0.80420173  1
  Se  Se209  1  0.08489975  0.75066057  0.29865835  1
  Se  Se210  1  0.10091099  0.76602202  0.80203674  1
  Se  Se211  1  0.42309457  0.08325348  0.30533130  1
  Se  Se212  1  0.41927222  0.08129658  0.80210257  1
  Se  Se213  1  0.41614560  0.41421486  0.30660344  1
  Se  Se214  1  0.42320233  0.41810511  0.79670864  1
  Se  Se215  1  0.41774150  0.74978956  0.30469191  1
  Se  Se216  1  0.42202792  0.75503349  0.81140204  1
  Se  Se217  1  0.74308533  0.08413182  0.29829405  1
  Se  Se218  1  0.75037734  0.08004433  0.80386707  1
  Se  Se219  1  0.75516054  0.43259360  0.29765792  1
  Se  Se220  1  0.75270945  0.41742439  0.80095627  1
  Se  Se221  1  0.74596411  0.75454816  0.30371613  1
  Se  Se222  1  0.74451528  0.74705026  0.80496112  1
  Se  Se223  1  0.25885444  0.07742041  0.20444339  1
  Se  Se224  1  0.25459511  0.08782852  0.69663169  1
  Se  Se225  1  0.25133569  0.41549525  0.19978977  1
  Se  Se226  1  0.25132079  0.41638350  0.69853422  1
  Se  Se227  1  0.25550847  0.74728369  0.19567547  1
  Se  Se228  1  0.25326752  0.75920060  0.68414002  1
  Se  Se229  1  0.58600622  0.08325901  0.19314210  1
  Se  Se230  1  0.58690168  0.08003062  0.69280055  1
  Se  Se231  1  0.57392608  0.41681195  0.19803593  1
  Se  Se232  1  0.60387158  0.38874915  0.68159396  1
  Se  Se233  1  0.58430524  0.75193854  0.20291798  1
  Se  Se234  1  0.58123677  0.74961772  0.69921980  1
  Se  Se235  1  0.91138890  0.08722268  0.19146549  1
  Se  Se236  1  0.90966642  0.09154460  0.68663531  1
  Se  Se237  1  0.92479220  0.39916802  0.19695283  1
  Se  Se238  1  0.92943898  0.41329609  0.69844271  1
  Se  Se239  1  0.91955214  0.74847200  0.20366432  1
  Se  Se240  1  0.90270674  0.74743344  0.68884095  1
  Se  Se241  1  0.08774876  0.24467891  0.20233741  1
  Se  Se242  1  0.08125446  0.25097060  0.70285128  1
  Se  Se243  1  0.08263744  0.58084409  0.19578068  1
  Se  Se244  1  0.09050374  0.58085266  0.68857592  1
  Se  Se245  1  0.09351439  0.90961075  0.18655622  1
  Se  Se246  1  0.08459554  0.91751382  0.68667055  1
  Se  Se247  1  0.41717056  0.24890119  0.19870383  1
  Se  Se248  1  0.42282749  0.24991806  0.69110418  1
  Se  Se249  1  0.41498249  0.58692588  0.20337263  1
  Se  Se250  1  0.43427154  0.57597303  0.68723584  1
  Se  Se251  1  0.41890307  0.91963016  0.19560389  1
  Se  Se252  1  0.41902410  0.92284564  0.69351502  1
  Se  Se253  1  0.74372577  0.25250081  0.19108762  1
  Se  Se254  1  0.75231152  0.24543315  0.69685663  1
  Se  Se255  1  0.74640911  0.57991549  0.20793143  1
  Se  Se256  1  0.74244044  0.57580371  0.69479276  1
  Se  Se257  1  0.74778857  0.91934858  0.20000969  1
  Se  Se258  1  0.74643298  0.92055287  0.70122636  1
