# generated using pymatgen
data_In86Cu29Se144
_symmetry_space_group_name_H-M   'P 1'
_cell_length_a   17.57850373
_cell_length_b   17.57177180
_cell_length_c   23.41652450
_cell_angle_alpha   89.98881506
_cell_angle_beta   89.97971154
_cell_angle_gamma   89.99163972
_symmetry_Int_Tables_number   1
_chemical_formula_structural   In86Cu29Se144
_chemical_formula_sum   'In86 Cu29 Se144'
_cell_volume   7233.02318337
_cell_formula_units_Z   1
loop_
 _symmetry_equiv_pos_site_id
 _symmetry_equiv_pos_as_xyz
  1  'x, y, z'
loop_
 _atom_site_type_symbol
 _atom_site_label
 _atom_site_symmetry_multiplicity
 _atom_site_fract_x
 _atom_site_fract_y
 _atom_site_fract_z
 _atom_site_occupancy
  In  In0  1  -0.02328861  0.15155227  0.09788862  1
  In  In1  1  -0.00236903  0.17519160  0.63764855  1
  In  In2  1  -0.00038033  0.48979835  0.12547354  1
  In  In3  1  -0.00528163  0.50029460  0.62726060  1
  In  In4  1  0.00504088  0.84112957  0.12315377  1
  In  In5  1  -0.00246554  0.82966881  0.62798785  1
  In  In6  1  0.34065011  0.17189012  0.12201027  1
  In  In7  1  0.34194287  0.14887234  0.62581774  1
  In  In8  1  0.32290059  0.50723521  0.13255576  1
  In  In9  1  0.33301248  0.51683324  0.62326658  1
  In  In10  1  0.33664371  0.82232540  0.12655954  1
  In  In11  1  0.32756499  0.84025143  0.63066029  1
  In  In12  1  0.67033284  0.15395872  0.11193690  1
  In  In13  1  0.66849168  0.16200084  0.62971356  1
  In  In14  1  0.66442946  0.50613875  0.12527383  1
  In  In15  1  0.68455114  0.49482883  0.64205245  1
  In  In16  1  0.69224577  0.86592282  0.09442196  1
  In  In17  1  0.69318318  0.81076794  0.66891778  1
  In  In18  1  0.15128861  0.00416225  0.37825849  1
  In  In19  1  0.17634210  0.00569331  0.87019057  1
  In  In20  1  0.17215964  0.33164462  0.37566145  1
  In  In21  1  0.15193581  0.32727001  0.87487329  1
  In  In22  1  0.17087734  0.65990619  0.38529331  1
  In  In23  1  0.16702618  0.67012716  0.86659049  1
  In  In24  1  0.52134179  -0.00604212  0.37553621  1
  In  In25  1  0.50360832  -0.00143196  0.87383187  1
  In  In26  1  0.48832380  0.33592434  0.37705929  1
  In  In27  1  0.51109505  0.32039760  0.88010454  1
  In  In28  1  0.49967267  0.68250458  0.37413225  1
  In  In29  1  0.52431191  0.69846367  0.84998041  1
  In  In30  1  0.82228185  -0.00628813  0.36821273  1
  In  In31  1  0.82898879  -0.00778654  0.87166568  1
  In  In32  1  0.83943989  0.33790162  0.37551287  1
  In  In33  1  0.82534604  0.32695919  0.86766209  1
  In  In34  1  0.83637779  0.66474805  0.38863561  1
  In  In35  1  0.84572417  0.68652150  0.84991491  1
  In  In36  1  0.00335623  0.16409505  0.37137537  1
  In  In37  1  0.00244000  0.16391335  0.87601472  1
  In  In38  1  -0.00743863  0.50666047  0.38654199  1
  In  In39  1  -0.01765220  0.49586802  0.85277132  1
  In  In40  1  -0.00940196  0.84309019  0.38724738  1
  In  In41  1  -0.00752731  0.82991348  0.86311160  1
  In  In42  1  0.33241995  0.18025321  0.37446138  1
  In  In43  1  0.35289403  0.15428569  0.88887423  1
  In  In44  1  0.32154741  0.49486536  0.37399979  1
  In  In45  1  0.33158613  0.51352904  0.87153945  1
  In  In46  1  0.33602161  0.81981493  0.37170335  1
  In  In47  1  0.35973817  0.85521321  0.84627319  1
  In  In48  1  0.67003217  0.14560889  0.37764700  1
  In  In49  1  0.66454289  0.15885612  0.87498973  1
  In  In50  1  0.67132644  0.50944121  0.38359205  1
  In  In51  1  0.68569244  0.50702326  0.85466345  1
  In  In52  1  0.66762903  0.84328540  0.37646670  1
  In  In53  1  0.67022027  0.84631595  0.87428195  1
  In  In54  1  0.14566430  -0.00087337  0.12475698  1
  In  In55  1  0.17604690  -0.00734689  0.62974014  1
  In  In56  1  0.17081136  0.33549598  0.12565212  1
  In  In57  1  0.15251490  0.33527651  0.62383887  1
  In  In58  1  0.16932364  0.67688837  0.12556750  1
  In  In59  1  0.16426715  0.66626442  0.62142697  1
  In  In60  1  0.51895471  0.01551029  0.10485174  1
  In  In61  1  0.50021096  -0.00628564  0.63294129  1
  In  In62  1  0.49914284  0.31512424  0.12330267  1
  In  In63  1  0.51866753  0.32907602  0.62526470  1
  In  In64  1  0.49577580  0.66984606  0.12219471  1
  In  In65  1  0.50797934  0.67923437  0.64280217  1
  In  In66  1  0.83974884  0.00019787  0.12133505  1
  In  In67  1  0.85260771  -0.02101657  0.64981678  1
  In  In68  1  0.84470565  0.31671461  0.12288177  1
  In  In69  1  0.82831042  0.34160283  0.63973613  1
  In  In70  1  0.81983883  0.67030673  0.12202157  1
  In  In71  1  0.83929912  0.67172722  0.63548411  1
  In  In72  1  0.33979251  0.00067749  0.24716438  1
  In  In73  1  0.33227171  0.33268606  0.75762784  1
  In  In74  1  0.83127598  0.49559352  -0.00843775  1
  In  In75  1  0.16718848  0.16613534  0.49882906  1
  In  In76  1  0.66171519  0.67056542  0.24997622  1
  In  In77  1  0.50773939  0.84005084  0.50945878  1
  In  In78  1  -0.00069485  0.32686975  0.24935879  1
  In  In79  1  0.82986394  0.16251012  0.50054372  1
  In  In80  1  0.50079859  0.49517070  -0.00310817  1
  In  In81  1  0.16034559  0.49663523  -0.00155265  1
  In  In82  1  0.66318013  0.32813102  0.24427349  1
  In  In83  1  -0.00097960  0.66929334  0.26511088  1
  In  In84  1  0.16879052  0.83441211  -0.00022980  1
  In  In85  1  0.50189697  0.50392337  0.50807719  1
  Cu  Cu86  1  0.83183297  0.16381029  0.75595801  1
  Cu  Cu87  1  -0.00810617  0.34560965  0.50581282  1
  Cu  Cu88  1  0.83471078  0.83655151  0.24688136  1
  Cu  Cu89  1  0.50302766  0.16451015  0.24439549  1
  Cu  Cu90  1  0.33789524  0.67500839  -0.00748656  1
  Cu  Cu91  1  0.50095603  0.49668613  0.74502886  1
  Cu  Cu92  1  -0.00277157  0.66980031  0.50920737  1
  Cu  Cu93  1  0.67092446  0.33237075  0.51237817  1
  Cu  Cu94  1  0.67075638  0.67819145  -0.01185886  1
  Cu  Cu95  1  0.50770128  0.83517636  0.24398588  1
  Cu  Cu96  1  0.16922548  0.83471596  0.24895365  1
  Cu  Cu97  1  0.16592711  0.50594096  0.25448451  1
  Cu  Cu98  1  0.67160519  0.33006418  -0.00453123  1
  Cu  Cu99  1  0.16186825  0.50260808  0.74445022  1
  Cu  Cu100  1  -0.00100188  -0.00364151  0.50859537  1
  Cu  Cu101  1  0.16126821  0.16543052  0.24911895  1
  Cu  Cu102  1  0.33302222  -0.00288404  -0.00491111  1
  Cu  Cu103  1  -0.00627759  -0.00486531  -0.00560384  1
  Cu  Cu104  1  0.33251421  0.33224982  0.49837162  1
  Cu  Cu105  1  0.33925352  -0.00481271  0.50607740  1
  Cu  Cu106  1  0.67623641  0.67019475  0.51670562  1
  Cu  Cu107  1  0.15940442  0.82732560  0.74469762  1
  Cu  Cu108  1  0.48524606  0.49965013  0.25144434  1
  Cu  Cu109  1  0.16966955  0.16152682  0.75321876  1
  Cu  Cu110  1  0.67368587  -0.00607466  0.50717813  1
  Cu  Cu111  1  -0.01004499  0.66048553  -0.01377306  1
  Cu  Cu112  1  0.33202959  0.66981243  0.50105186  1
  Cu  Cu113  1  0.32915095  0.33162446  0.00264527  1
  Cu  Cu114  1  0.50224345  0.16541282  0.75629279  1
  Se  Se115  1  0.08360253  0.07724788  0.04417024  1
  Se  Se116  1  0.07698982  0.08398566  0.56411654  1
  Se  Se117  1  0.06990621  0.40140944  0.05273014  1
  Se  Se118  1  0.08343094  0.42458116  0.55352981  1
  Se  Se119  1  0.07193590  0.73671453  0.05130649  1
  Se  Se120  1  0.08397079  0.75568658  0.55534391  1
  Se  Se121  1  0.41230409  0.08540499  0.04971711  1
  Se  Se122  1  0.42788522  0.07612411  0.55437796  1
  Se  Se123  1  0.40638291  0.41575130  0.06321603  1
  Se  Se124  1  0.41144368  0.40781928  0.56464129  1
  Se  Se125  1  0.41885243  0.75339264  0.05022389  1
  Se  Se126  1  0.41566524  0.74382289  0.56241504  1
  Se  Se127  1  0.74105946  0.05662872  0.04763560  1
  Se  Se128  1  0.75838396  0.06890227  0.56836717  1
  Se  Se129  1  0.74366798  0.41109895  0.06117106  1
  Se  Se130  1  0.75349664  0.41808689  0.56208826  1
  Se  Se131  1  0.76047937  0.75283275  0.04344887  1
  Se  Se132  1  0.74812849  0.76003388  0.57261252  1
  Se  Se133  1  0.24737492  0.24888451  0.05642800  1
  Se  Se134  1  0.25713095  0.25199273  0.56368440  1
  Se  Se135  1  0.25496195  0.59490497  0.05158257  1
  Se  Se136  1  0.24696580  0.58303480  0.54927278  1
  Se  Se137  1  0.25599819  0.92449220  0.06391549  1
  Se  Se138  1  0.24965449  0.91409038  0.55281260  1
  Se  Se139  1  0.58773595  0.24975351  0.05132594  1
  Se  Se140  1  0.58768198  0.23985270  0.55413759  1
  Se  Se141  1  0.59484236  0.59513116  0.05017970  1
  Se  Se142  1  0.58945557  0.59091699  0.57149515  1
  Se  Se143  1  0.56130821  0.89491541  0.05158297  1
  Se  Se144  1  0.60273124  0.91366942  0.57281748  1
  Se  Se145  1  0.90794424  0.25265748  0.03816277  1
  Se  Se146  1  0.91720718  0.25505432  0.56089716  1
  Se  Se147  1  0.92069028  0.58566284  0.05788154  1
  Se  Se148  1  0.91124164  0.58705437  0.56090122  1
  Se  Se149  1  0.91799115  0.90915725  0.05157174  1
  Se  Se150  1  0.91183068  0.91590043  0.55997680  1
  Se  Se151  1  0.06966391  0.26074088  0.44509377  1
  Se  Se152  1  0.08710042  0.24129651  0.94754129  1
  Se  Se153  1  0.07905664  0.58641728  0.45231705  1
  Se  Se154  1  0.07351810  0.58082875  0.93090345  1
  Se  Se155  1  0.08586109  0.91798837  0.45307786  1
  Se  Se156  1  0.07848816  0.91715201  0.93514772  1
  Se  Se157  1  0.41813523  0.24757083  0.44964087  1
  Se  Se158  1  0.42170402  0.25464402  0.95292344  1
  Se  Se159  1  0.41553149  0.59091347  0.44087715  1
  Se  Se160  1  0.42204496  0.59313789  0.93745036  1
  Se  Se161  1  0.41593323  0.91823496  0.43844847  1
  Se  Se162  1  0.41247332  0.91382769  0.93930611  1
  Se  Se163  1  0.74057847  0.25610104  0.44032333  1
  Se  Se164  1  0.75137679  0.24510857  0.94168698  1
  Se  Se165  1  0.75053632  0.58421953  0.45738215  1
  Se  Se166  1  0.75185934  0.59487910  0.93235905  1
  Se  Se167  1  0.75534658  0.91396823  0.44795189  1
  Se  Se168  1  0.73910981  0.93170324  0.94920719  1
  Se  Se169  1  0.26133590  0.07488985  0.44084560  1
  Se  Se170  1  0.24783074  0.08371960  0.94784545  1
  Se  Se171  1  0.24587462  0.41519552  0.44904530  1
  Se  Se172  1  0.25753776  0.41223419  0.93821705  1
  Se  Se173  1  0.25119890  0.75485528  0.44740998  1
  Se  Se174  1  0.25567620  0.75276625  0.93360539  1
  Se  Se175  1  0.58834270  0.07534297  0.45360956  1
  Se  Se176  1  0.56812008  0.09377508  0.94332298  1
  Se  Se177  1  0.58973571  0.40974529  0.44707610  1
  Se  Se178  1  0.60256055  0.42003727  0.93530275  1
  Se  Se179  1  0.59669991  0.74274610  0.44865705  1
  Se  Se180  1  0.58140957  0.75904555  0.94021834  1
  Se  Se181  1  0.92437593  0.07518974  0.44172874  1
  Se  Se182  1  0.91337271  0.07830870  0.93919224  1
  Se  Se183  1  0.90484103  0.42275402  0.45100162  1
  Se  Se184  1  0.92435760  0.40917329  0.93446110  1
  Se  Se185  1  0.91369992  0.75353183  0.45442571  1
  Se  Se186  1  0.91180042  0.75074330  0.93686062  1
  Se  Se187  1  0.24482889  0.24919916  0.30149159  1
  Se  Se188  1  0.25117868  0.23689429  0.81749991  1
  Se  Se189  1  0.25012071  0.58971384  0.30682068  1
  Se  Se190  1  0.24685355  0.58279441  0.79824437  1
  Se  Se191  1  0.24650697  0.91722816  0.31120097  1
  Se  Se192  1  0.24121929  0.91317141  0.79787291  1
  Se  Se193  1  0.57708879  0.24342255  0.31238092  1
  Se  Se194  1  0.58922029  0.25064178  0.80339719  1
  Se  Se195  1  0.57140916  0.57490467  0.31074793  1
  Se  Se196  1  0.58362556  0.58240031  0.79764457  1
  Se  Se197  1  0.59205061  0.91600554  0.29813510  1
  Se  Se198  1  0.56586635  0.90093088  0.80299202  1
  Se  Se199  1  0.90286271  0.23757566  0.30661819  1
  Se  Se200  1  0.91957595  0.24686584  0.80563443  1
  Se  Se201  1  0.90139169  0.57371064  0.31010037  1
  Se  Se202  1  0.90742626  0.58349900  0.78669119  1
  Se  Se203  1  0.91772747  0.91406362  0.30625117  1
  Se  Se204  1  0.90737935  0.91238035  0.79794157  1
  Se  Se205  1  0.07913951  0.08006642  0.30036077  1
  Se  Se206  1  0.08247068  0.07948629  0.80426726  1
  Se  Se207  1  0.08225697  0.42537560  0.31226971  1
  Se  Se208  1  0.08710350  0.41602319  0.80110764  1
  Se  Se209  1  0.09182167  0.76164580  0.31836053  1
  Se  Se210  1  0.07716260  0.74347220  0.79822298  1
  Se  Se211  1  0.42716942  0.08768311  0.31251349  1
  Se  Se212  1  0.41532389  0.08188644  0.80522372  1
  Se  Se213  1  0.40708508  0.41353927  0.30571558  1
  Se  Se214  1  0.42880422  0.42107765  0.81438469  1
  Se  Se215  1  0.42230160  0.75263994  0.29625411  1
  Se  Se216  1  0.39155351  0.72248242  0.80748598  1
  Se  Se217  1  0.74902296  0.08279076  0.30019315  1
  Se  Se218  1  0.74529326  0.07811481  0.80310079  1
  Se  Se219  1  0.74629362  0.42115079  0.30911243  1
  Se  Se220  1  0.76374492  0.41708548  0.79258426  1
  Se  Se221  1  0.75970104  0.75382463  0.31088615  1
  Se  Se222  1  0.73422612  0.75458551  0.79993588  1
  Se  Se223  1  0.24260850  0.08568987  0.18846028  1
  Se  Se224  1  0.25356305  0.08172302  0.69787995  1
  Se  Se225  1  0.24409604  0.41906916  0.19929975  1
  Se  Se226  1  0.24906871  0.42080222  0.68941432  1
  Se  Se227  1  0.25155974  0.74822808  0.19974167  1
  Se  Se228  1  0.24742000  0.74663412  0.69224128  1
  Se  Se229  1  0.58566477  0.08391147  0.18908993  1
  Se  Se230  1  0.58164159  0.08329771  0.69841022  1
  Se  Se231  1  0.56810325  0.42509021  0.18880327  1
  Se  Se232  1  0.58844704  0.41069877  0.69961900  1
  Se  Se233  1  0.58881910  0.75960589  0.18074474  1
  Se  Se234  1  0.55619517  0.78672533  0.70925399  1
  Se  Se235  1  0.92762281  0.08221993  0.18635831  1
  Se  Se236  1  0.92327592  0.08565209  0.70534897  1
  Se  Se237  1  0.90351300  0.42026788  0.19448497  1
  Se  Se238  1  0.93971217  0.39789368  0.69605650  1
  Se  Se239  1  0.91408219  0.74997107  0.19126464  1
  Se  Se240  1  0.90880522  0.76683661  0.70335746  1
  Se  Se241  1  0.08224635  0.24018973  0.18412776  1
  Se  Se242  1  0.09144410  0.25165703  0.70223934  1
  Se  Se243  1  0.08424410  0.58209749  0.19236029  1
  Se  Se244  1  0.08005232  0.58751900  0.69222847  1
  Se  Se245  1  0.07918086  0.91485126  0.20122558  1
  Se  Se246  1  0.08165743  0.91883451  0.69389856  1
  Se  Se247  1  0.41394756  0.25024853  0.19964472  1
  Se  Se248  1  0.42260468  0.24600480  0.69331189  1
  Se  Se249  1  0.41453414  0.58965848  0.19401002  1
  Se  Se250  1  0.41855406  0.58422824  0.69667747  1
  Se  Se251  1  0.42838432  0.91707321  0.18345564  1
  Se  Se252  1  0.40509532  0.92410680  0.69958094  1
  Se  Se253  1  0.75375537  0.23615212  0.18859673  1
  Se  Se254  1  0.74867178  0.24585709  0.69923863  1
  Se  Se255  1  0.75709668  0.57514321  0.19695857  1
  Se  Se256  1  0.73359394  0.60800630  0.69962240  1
  Se  Se257  1  0.75240251  0.91445887  0.18846401  1
  Se  Se258  1  0.73099484  0.94424970  0.70593711  1
