# generated using pymatgen
data_In86Cu29Se144
_symmetry_space_group_name_H-M   'P 1'
_cell_length_a   17.59720322
_cell_length_b   17.58620355
_cell_length_c   23.44964156
_cell_angle_alpha   89.97731931
_cell_angle_beta   90.00362280
_cell_angle_gamma   89.99221141
_symmetry_Int_Tables_number   1
_chemical_formula_structural   In86Cu29Se144
_chemical_formula_sum   'In86 Cu29 Se144'
_cell_volume   7256.91297397
_cell_formula_units_Z   1
loop_
 _symmetry_equiv_pos_site_id
 _symmetry_equiv_pos_as_xyz
  1  'x, y, z'
loop_
 _atom_site_type_symbol
 _atom_site_label
 _atom_site_symmetry_multiplicity
 _atom_site_fract_x
 _atom_site_fract_y
 _atom_site_fract_z
 _atom_site_occupancy
  In  In0  1  0.01022079  0.16030627  0.12737970  1
  In  In1  1  -0.02348709  0.12739140  0.59551254  1
  In  In2  1  -0.01392104  0.50339637  0.12247740  1
  In  In3  1  0.00889041  0.50648958  0.62898997  1
  In  In4  1  0.00065144  0.82972432  0.11187552  1
  In  In5  1  -0.00136252  0.84432344  0.62681853  1
  In  In6  1  0.32933002  0.16004511  0.12325532  1
  In  In7  1  0.31934913  0.14846464  0.61599338  1
  In  In8  1  0.35112688  0.50655676  0.12749500  1
  In  In9  1  0.33236263  0.49193846  0.62182159  1
  In  In10  1  0.32249944  0.82296877  0.12221374  1
  In  In11  1  0.33973754  0.84418775  0.62303690  1
  In  In12  1  0.66672608  0.16895461  0.13140267  1
  In  In13  1  0.66985673  0.16564161  0.62598640  1
  In  In14  1  0.67702574  0.49250326  0.12328230  1
  In  In15  1  0.66122629  0.50586102  0.62945254  1
  In  In16  1  0.67682991  0.83854087  0.11914231  1
  In  In17  1  0.66512370  0.83461564  0.62720930  1
  In  In18  1  0.16522314  -0.00482939  0.38850141  1
  In  In19  1  0.16230208  -0.00421251  0.86611173  1
  In  In20  1  0.15649640  0.33090294  0.36911621  1
  In  In21  1  0.15410274  0.31964224  0.87551212  1
  In  In22  1  0.17244245  0.67016511  0.37523146  1
  In  In23  1  0.16506168  0.70419530  0.87052136  1
  In  In24  1  0.50563523  -0.00791117  0.38401047  1
  In  In25  1  0.49213094  -0.01474908  0.86438756  1
  In  In26  1  0.51327179  0.32095534  0.38348392  1
  In  In27  1  0.50257499  0.32875952  0.87185035  1
  In  In28  1  0.48749135  0.68102336  0.38750727  1
  In  In29  1  0.52712187  0.68519241  0.86891963  1
  In  In30  1  0.83019344  0.00933527  0.38789136  1
  In  In31  1  0.81701126  -0.01399112  0.86196896  1
  In  In32  1  0.82168700  0.32494838  0.36691871  1
  In  In33  1  0.82757486  0.34362604  0.87491407  1
  In  In34  1  0.84097875  0.67497927  0.37709440  1
  In  In35  1  0.82666276  0.67103297  0.87819911  1
  In  In36  1  -0.00883858  0.16734800  0.38539595  1
  In  In37  1  0.01344873  0.15935092  0.87421917  1
  In  In38  1  0.01508550  0.49683871  0.37142554  1
  In  In39  1  -0.02453584  0.51157859  0.88380119  1
  In  In40  1  -0.00547607  0.84240814  0.39189212  1
  In  In41  1  -0.00507498  0.83057189  0.86545660  1
  In  In42  1  0.33871866  0.16311629  0.38370873  1
  In  In43  1  0.33020284  0.13729228  0.87300649  1
  In  In44  1  0.33456554  0.51651181  0.37372761  1
  In  In45  1  0.33375842  0.50477782  0.87944871  1
  In  In46  1  0.32989097  0.83271816  0.38080026  1
  In  In47  1  0.31550973  0.87204459  0.90392101  1
  In  In48  1  0.66848967  0.16301732  0.37820946  1
  In  In49  1  0.66829395  0.16952553  0.86256061  1
  In  In50  1  0.66758147  0.48678680  0.37452520  1
  In  In51  1  0.67649535  0.50836223  0.86854731  1
  In  In52  1  0.65793082  0.84327941  0.38188572  1
  In  In53  1  0.66420764  0.83193845  0.87843345  1
  In  In54  1  0.16017131  -0.01394821  0.11577619  1
  In  In55  1  0.16403346  -0.00350372  0.62908238  1
  In  In56  1  0.16687630  0.31482034  0.12709768  1
  In  In57  1  0.16918239  0.32606349  0.62578003  1
  In  In58  1  0.17263308  0.69263811  0.12460542  1
  In  In59  1  0.14595623  0.68162822  0.64049924  1
  In  In60  1  0.50572509  0.00481305  0.12593701  1
  In  In61  1  0.50312656  0.00186334  0.62543270  1
  In  In62  1  0.51291463  0.34520153  0.12688715  1
  In  In63  1  0.50672430  0.33738530  0.61581314  1
  In  In64  1  0.48997918  0.66548453  0.13019536  1
  In  In65  1  0.50913219  0.67912885  0.61858578  1
  In  In66  1  0.83057122  -0.01210608  0.12275010  1
  In  In67  1  0.83068197  -0.00746327  0.62646429  1
  In  In68  1  0.82389926  0.34277160  0.12960221  1
  In  In69  1  0.83958917  0.31612536  0.62354592  1
  In  In70  1  0.83922110  0.67155649  0.09360921  1
  In  In71  1  0.82017673  0.67826590  0.63324594  1
  In  In72  1  0.00129437  0.66882037  0.24395366  1
  In  In73  1  0.50701760  0.50541290  -0.00067157  1
  In  In74  1  0.83599186  0.16717073  -0.01015414  1
  In  In75  1  0.66575522  0.65945668  0.24419330  1
  In  In76  1  0.33235963  -0.00589728  0.26005586  1
  In  In77  1  0.16254189  0.50605038  0.00000453  1
  In  In78  1  0.33413584  0.32828888  0.74105383  1
  In  In79  1  -0.00279678  -0.00545772  0.24854555  1
  In  In80  1  0.34177767  0.33486468  0.24656861  1
  In  In81  1  0.34446551  0.67497960  0.75242384  1
  In  In82  1  0.83236685  0.50053047  0.49616136  1
  In  In83  1  -0.00285876  0.33142251  0.75137371  1
  In  In84  1  0.17372116  0.50341649  0.49832042  1
  In  In85  1  0.49863059  0.16282043  0.00352456  1
  Cu  Cu86  1  0.34035242  0.33402295  0.49931294  1
  Cu  Cu87  1  0.82923910  0.83219806  0.24658118  1
  Cu  Cu88  1  0.00232529  0.32664475  0.49430226  1
  Cu  Cu89  1  0.50510882  0.50294046  0.25307775  1
  Cu  Cu90  1  0.82736618  0.50406743  0.75289838  1
  Cu  Cu91  1  0.34136276  0.67448199  0.00133527  1
  Cu  Cu92  1  0.83531603  0.49688379  0.24480039  1
  Cu  Cu93  1  0.83069014  0.16791789  0.25818707  1
  Cu  Cu94  1  0.16689365  0.50001860  0.24873026  1
  Cu  Cu95  1  0.00094619  -0.00902063  -0.00609397  1
  Cu  Cu96  1  0.83089252  0.83165444  0.75000427  1
  Cu  Cu97  1  0.66351571  0.00207039  -0.00532910  1
  Cu  Cu98  1  0.16338375  0.16163317  0.25176558  1
  Cu  Cu99  1  0.32808174  0.66923123  0.50407147  1
  Cu  Cu100  1  0.49735618  0.83455328  0.25855858  1
  Cu  Cu101  1  0.66598583  0.00017133  0.50593914  1
  Cu  Cu102  1  0.66348023  0.67004823  0.50711115  1
  Cu  Cu103  1  0.50507231  0.49894803  0.74570775  1
  Cu  Cu104  1  0.67100449  0.32788536  0.49889689  1
  Cu  Cu105  1  0.16469555  0.15973521  0.74406147  1
  Cu  Cu106  1  0.50634876  0.83534943  0.74902458  1
  Cu  Cu107  1  0.33500241  -0.00175658  0.50365899  1
  Cu  Cu108  1  0.83544481  0.16246299  0.74312330  1
  Cu  Cu109  1  -0.00052474  0.32552013  0.00115439  1
  Cu  Cu110  1  0.15819040  0.51080618  0.75908835  1
  Cu  Cu111  1  0.50334984  0.16561631  0.74498308  1
  Cu  Cu112  1  0.32622291  0.32165214  0.00092833  1
  Cu  Cu113  1  -0.00611651  0.67823752  0.50804716  1
  Cu  Cu114  1  0.51417919  0.16822609  0.25167828  1
  Se  Se115  1  0.07709472  0.07519635  0.05281659  1
  Se  Se116  1  0.11253848  0.10552130  0.56306277  1
  Se  Se117  1  0.08077850  0.40633443  0.06075142  1
  Se  Se118  1  0.07749700  0.41106636  0.55530064  1
  Se  Se119  1  0.07557146  0.73386280  0.05032764  1
  Se  Se120  1  0.08344167  0.75600727  0.55837574  1
  Se  Se121  1  0.40399721  0.06826882  0.05436361  1
  Se  Se122  1  0.42149380  0.08312654  0.55280836  1
  Se  Se123  1  0.41069685  0.40587459  0.05408377  1
  Se  Se124  1  0.41911369  0.42205095  0.55063398  1
  Se  Se125  1  0.42353980  0.75433112  0.05767086  1
  Se  Se126  1  0.41493765  0.75320576  0.55441264  1
  Se  Se127  1  0.74501509  0.08197532  0.05560567  1
  Se  Se128  1  0.75222070  0.08255185  0.55726346  1
  Se  Se129  1  0.75599494  0.41746309  0.05046919  1
  Se  Se130  1  0.74915493  0.41028804  0.56041737  1
  Se  Se131  1  0.73868498  0.75158961  0.04335904  1
  Se  Se132  1  0.74942464  0.75440050  0.55523975  1
  Se  Se133  1  0.24513715  0.23815012  0.05323778  1
  Se  Se134  1  0.25484770  0.25554989  0.55436657  1
  Se  Se135  1  0.26273533  0.58823550  0.05942033  1
  Se  Se136  1  0.24671871  0.59550654  0.56859741  1
  Se  Se137  1  0.25213406  0.91211211  0.05239500  1
  Se  Se138  1  0.24772075  0.91746364  0.55581504  1
  Se  Se139  1  0.59214097  0.25819792  0.05619299  1
  Se  Se140  1  0.58737238  0.24564179  0.55319159  1
  Se  Se141  1  0.59124909  0.59161821  0.06509953  1
  Se  Se142  1  0.58138353  0.58048631  0.55434065  1
  Se  Se143  1  0.58614376  0.92297729  0.05635603  1
  Se  Se144  1  0.58154336  0.91442315  0.55630247  1
  Se  Se145  1  0.91856261  0.24752679  0.06269061  1
  Se  Se146  1  0.91523729  0.24594763  0.54576562  1
  Se  Se147  1  0.92948050  0.58111429  0.04129303  1
  Se  Se148  1  0.91757652  0.58810513  0.56226916  1
  Se  Se149  1  0.91302824  0.91544644  0.04970667  1
  Se  Se150  1  0.92091566  0.92478135  0.55436300  1
  Se  Se151  1  0.09150809  0.24667954  0.44435345  1
  Se  Se152  1  0.08324769  0.24043338  0.95162135  1
  Se  Se153  1  0.07242856  0.59490106  0.44669444  1
  Se  Se154  1  0.08830606  0.59265196  0.92984092  1
  Se  Se155  1  0.08170180  0.91883135  0.45755569  1
  Se  Se156  1  0.08150168  0.91124669  0.93627760  1
  Se  Se157  1  0.42269821  0.24605471  0.45004778  1
  Se  Se158  1  0.40680796  0.24858825  0.93652821  1
  Se  Se159  1  0.41234923  0.58477928  0.45216146  1
  Se  Se160  1  0.41927850  0.59769562  0.93832899  1
  Se  Se161  1  0.41532056  0.91316641  0.44840447  1
  Se  Se162  1  0.43820805  0.91632498  0.95197358  1
  Se  Se163  1  0.75599244  0.24601633  0.44591200  1
  Se  Se164  1  0.73696502  0.25662013  0.94046206  1
  Se  Se165  1  0.73963578  0.59379212  0.43943683  1
  Se  Se166  1  0.75798239  0.57242720  0.94447888  1
  Se  Se167  1  0.74824607  0.91705596  0.44978638  1
  Se  Se168  1  0.75003025  0.91808497  0.94561040  1
  Se  Se169  1  0.25270150  0.08278646  0.44919718  1
  Se  Se170  1  0.22961497  0.08720405  0.94036291  1
  Se  Se171  1  0.25847895  0.40937132  0.43522262  1
  Se  Se172  1  0.25138149  0.40646642  0.94061502  1
  Se  Se173  1  0.24411690  0.75104235  0.44985261  1
  Se  Se174  1  0.25142870  0.75468162  0.95161635  1
  Se  Se175  1  0.58466975  0.08300115  0.44835433  1
  Se  Se176  1  0.58595048  0.08268441  0.93456489  1
  Se  Se177  1  0.58699131  0.41593286  0.44994109  1
  Se  Se178  1  0.58891082  0.41277253  0.93776323  1
  Se  Se179  1  0.58235594  0.75479867  0.45086531  1
  Se  Se180  1  0.59491109  0.74545838  0.95369736  1
  Se  Se181  1  0.93136139  0.06983341  0.45377582  1
  Se  Se182  1  0.91893546  0.06908856  0.93296066  1
  Se  Se183  1  0.92430774  0.41149820  0.43577996  1
  Se  Se184  1  0.91609386  0.40860309  0.94928084  1
  Se  Se185  1  0.90626406  0.75561994  0.45397054  1
  Se  Se186  1  0.91242974  0.75890937  0.93990531  1
  Se  Se187  1  0.25223159  0.24111030  0.30580404  1
  Se  Se188  1  0.24462360  0.24215478  0.80497639  1
  Se  Se189  1  0.24566143  0.58535124  0.30250864  1
  Se  Se190  1  0.24630511  0.58767749  0.81314923  1
  Se  Se191  1  0.23304581  0.90705658  0.31088251  1
  Se  Se192  1  0.26472147  0.91981878  0.80890982  1
  Se  Se193  1  0.59348451  0.25298455  0.30621042  1
  Se  Se194  1  0.58089842  0.25388847  0.79773442  1
  Se  Se195  1  0.57778918  0.58539124  0.31726568  1
  Se  Se196  1  0.58369092  0.58303963  0.80150051  1
  Se  Se197  1  0.58316292  0.92058061  0.30537425  1
  Se  Se198  1  0.59322863  0.91761424  0.80245282  1
  Se  Se199  1  0.92108725  0.24734514  0.30802218  1
  Se  Se200  1  0.90812850  0.23972703  0.81256995  1
  Se  Se201  1  0.91193465  0.57573231  0.30791455  1
  Se  Se202  1  0.91001135  0.58838344  0.80461804  1
  Se  Se203  1  0.90629059  0.90941361  0.31129537  1
  Se  Se204  1  0.91582576  0.92028784  0.79689098  1
  Se  Se205  1  0.08478992  0.08227347  0.31276955  1
  Se  Se206  1  0.07783887  0.07901942  0.79600489  1
  Se  Se207  1  0.08254304  0.41354443  0.29569352  1
  Se  Se208  1  0.08016706  0.42502293  0.81622922  1
  Se  Se209  1  0.07531475  0.75613598  0.31543551  1
  Se  Se210  1  0.08412233  0.76152566  0.79148449  1
  Se  Se211  1  0.42831619  0.09075666  0.30924489  1
  Se  Se212  1  0.42080052  0.08113467  0.79769437  1
  Se  Se213  1  0.42568823  0.42016225  0.31393513  1
  Se  Se214  1  0.41777853  0.42495126  0.80489163  1
  Se  Se215  1  0.41164854  0.75190443  0.30869365  1
  Se  Se216  1  0.42376097  0.76677542  0.81616176  1
  Se  Se217  1  0.75215391  0.07901709  0.30945561  1
  Se  Se218  1  0.74706921  0.08269001  0.79593702  1
  Se  Se219  1  0.74935345  0.41773075  0.29889894  1
  Se  Se220  1  0.74592370  0.41262951  0.79901638  1
  Se  Se221  1  0.74975816  0.75321763  0.30852348  1
  Se  Se222  1  0.74601243  0.75185189  0.80577329  1
  Se  Se223  1  0.24088953  0.07867192  0.19280938  1
  Se  Se224  1  0.25518087  0.07628356  0.69866680  1
  Se  Se225  1  0.24761328  0.42213813  0.18595566  1
  Se  Se226  1  0.23450093  0.42923777  0.69692555  1
  Se  Se227  1  0.25677639  0.74791399  0.20303660  1
  Se  Se228  1  0.25107878  0.76106958  0.69431375  1
  Se  Se229  1  0.58998755  0.07906813  0.19812960  1
  Se  Se230  1  0.58863440  0.08123456  0.69504669  1
  Se  Se231  1  0.59058647  0.42369479  0.19924130  1
  Se  Se232  1  0.58356232  0.41119009  0.69316139  1
  Se  Se233  1  0.57792780  0.76005528  0.19284153  1
  Se  Se234  1  0.58617026  0.74683664  0.69768984  1
  Se  Se235  1  0.90482529  0.08851208  0.19171703  1
  Se  Se236  1  0.91984321  0.08041347  0.69071839  1
  Se  Se237  1  0.92190494  0.41285568  0.19565402  1
  Se  Se238  1  0.90799873  0.42471862  0.68999873  1
  Se  Se239  1  0.90462610  0.75274879  0.18363543  1
  Se  Se240  1  0.91660327  0.75373389  0.69407949  1
  Se  Se241  1  0.08015400  0.24695468  0.20120664  1
  Se  Se242  1  0.08047854  0.24149319  0.68850223  1
  Se  Se243  1  0.09244861  0.57948111  0.18357037  1
  Se  Se244  1  0.07111173  0.58942367  0.70708469  1
  Se  Se245  1  0.08533189  0.90051984  0.19160629  1
  Se  Se246  1  0.08673453  0.91289864  0.69999069  1
  Se  Se247  1  0.43071599  0.24021428  0.18731743  1
  Se  Se248  1  0.42149278  0.23993161  0.68073243  1
  Se  Se249  1  0.41620520  0.58583782  0.20621953  1
  Se  Se250  1  0.42226041  0.57826988  0.68711367  1
  Se  Se251  1  0.42018104  0.91292704  0.19289591  1
  Se  Se252  1  0.42198860  0.91829678  0.69638130  1
  Se  Se253  1  0.75190589  0.25045849  0.19816325  1
  Se  Se254  1  0.75154125  0.25126449  0.69661593  1
  Se  Se255  1  0.76903838  0.58718390  0.18327845  1
  Se  Se256  1  0.74372547  0.58660435  0.69846565  1
  Se  Se257  1  0.74578528  0.91886454  0.19734618  1
  Se  Se258  1  0.74622720  0.91635064  0.69807981  1
