# generated using pymatgen
data_In86Cu29Se144
_symmetry_space_group_name_H-M   'P 1'
_cell_length_a   17.58486553
_cell_length_b   17.59526449
_cell_length_c   23.45330456
_cell_angle_alpha   90.02816113
_cell_angle_beta   89.97301299
_cell_angle_gamma   89.99470157
_symmetry_Int_Tables_number   1
_chemical_formula_structural   In86Cu29Se144
_chemical_formula_sum   'In86 Cu29 Se144'
_cell_volume   7256.69369592
_cell_formula_units_Z   1
loop_
 _symmetry_equiv_pos_site_id
 _symmetry_equiv_pos_as_xyz
  1  'x, y, z'
loop_
 _atom_site_type_symbol
 _atom_site_label
 _atom_site_symmetry_multiplicity
 _atom_site_fract_x
 _atom_site_fract_y
 _atom_site_fract_z
 _atom_site_occupancy
  In  In0  1  -0.00639869  0.18098411  0.12245934  1
  In  In1  1  -0.00472304  0.16742770  0.62688485  1
  In  In2  1  0.00153251  0.50512712  0.11891508  1
  In  In3  1  -0.05648615  0.48435539  0.61122030  1
  In  In4  1  -0.01419608  0.82453469  0.12484888  1
  In  In5  1  -0.00378315  0.84001242  0.62600342  1
  In  In6  1  0.33416524  0.15387111  0.13240432  1
  In  In7  1  0.32095651  0.16930374  0.62550949  1
  In  In8  1  0.34274933  0.50991278  0.12157916  1
  In  In9  1  0.34510059  0.49270236  0.62130165  1
  In  In10  1  0.34622996  0.81759549  0.13590741  1
  In  In11  1  0.34888365  0.83267353  0.61982477  1
  In  In12  1  0.67017741  0.15834257  0.12976504  1
  In  In13  1  0.67130741  0.16330388  0.62648550  1
  In  In14  1  0.66742860  0.49961349  0.13184687  1
  In  In15  1  0.67156643  0.49371936  0.62309710  1
  In  In16  1  0.65851067  0.83772052  0.13098719  1
  In  In17  1  0.67499153  0.84451400  0.61228368  1
  In  In18  1  0.17794695  0.00129397  0.37889020  1
  In  In19  1  0.16800316  0.00558649  0.86833587  1
  In  In20  1  0.15780368  0.33753656  0.37786775  1
  In  In21  1  0.16861114  0.34888603  0.87742230  1
  In  In22  1  0.16413866  0.65983347  0.35904143  1
  In  In23  1  0.15993125  0.65910544  0.87916365  1
  In  In24  1  0.49452876  -0.01308718  0.37204285  1
  In  In25  1  0.49697384  -0.00353656  0.86812772  1
  In  In26  1  0.52456420  0.33995989  0.37046849  1
  In  In27  1  0.51195954  0.34466204  0.87207516  1
  In  In28  1  0.50822219  0.66265746  0.37031602  1
  In  In29  1  0.50770071  0.66779130  0.88836315  1
  In  In30  1  0.82440729  0.01054134  0.38420679  1
  In  In31  1  0.84209439  0.00817302  0.86009096  1
  In  In32  1  0.79956763  0.36189779  0.40713840  1
  In  In33  1  0.82439875  0.33908065  0.87113476  1
  In  In34  1  0.83328849  0.66737298  0.37641419  1
  In  In35  1  0.82431857  0.66278932  0.87641584  1
  In  In36  1  -0.00938855  0.17783409  0.38828258  1
  In  In37  1  -0.01249717  0.16276071  0.86614055  1
  In  In38  1  -0.00520749  0.49958216  0.37287762  1
  In  In39  1  0.00088592  0.49547169  0.87572060  1
  In  In40  1  -0.00825049  0.81905768  0.38054949  1
  In  In41  1  -0.00959282  0.84504075  0.86793274  1
  In  In42  1  0.33952519  0.15344770  0.38016860  1
  In  In43  1  0.34349660  0.15961317  0.87224471  1
  In  In44  1  0.34337159  0.51723449  0.36130332  1
  In  In45  1  0.33485235  0.50042362  0.88439259  1
  In  In46  1  0.34077258  0.83375292  0.37202024  1
  In  In47  1  0.34059550  0.84527823  0.87417977  1
  In  In48  1  0.67857799  0.17189464  0.37136794  1
  In  In49  1  0.67841058  0.18200155  0.86544073  1
  In  In50  1  0.66016630  0.50401489  0.37197698  1
  In  In51  1  0.67048679  0.49939151  0.88038738  1
  In  In52  1  0.66678615  0.83050639  0.37574158  1
  In  In53  1  0.65755196  0.82875459  0.87375459  1
  In  In54  1  0.17574792  0.00896138  0.12561373  1
  In  In55  1  0.15300982  0.01057971  0.63346607  1
  In  In56  1  0.15359622  0.33611488  0.12459128  1
  In  In57  1  0.16546885  0.31943166  0.62346684  1
  In  In58  1  0.18095627  0.64484291  0.14537694  1
  In  In59  1  0.15788557  0.66262520  0.62224943  1
  In  In60  1  0.50841406  -0.01241535  0.12994417  1
  In  In61  1  0.51078040  -0.00935967  0.62921651  1
  In  In62  1  0.50800683  0.35476604  0.12765176  1
  In  In63  1  0.52210390  0.35140906  0.62053322  1
  In  In64  1  0.49967323  0.66239878  0.13184013  1
  In  In65  1  0.50219493  0.66328989  0.61262888  1
  In  In66  1  0.82011141  -0.00088752  0.12269591  1
  In  In67  1  0.82706010  -0.00160799  0.62776184  1
  In  In68  1  0.82317322  0.32935349  0.11981360  1
  In  In69  1  0.83223330  0.33084033  0.62960664  1
  In  In70  1  0.84521837  0.65493381  0.13636709  1
  In  In71  1  0.83076561  0.66270229  0.60995697  1
  In  In72  1  -0.00678779  0.33505160  0.25800428  1
  In  In73  1  0.33476703  0.66790716  0.74100362  1
  In  In74  1  0.16601144  0.83790108  0.49685663  1
  In  In75  1  -0.00335568  0.66472115  0.74707756  1
  In  In76  1  0.82646142  0.82881299  -0.00557244  1
  In  In77  1  0.16714170  0.49684782  0.49427895  1
  In  In78  1  0.50761171  0.16968621  0.50493748  1
  In  In79  1  0.66875818  0.66996716  0.74996631  1
  In  In80  1  0.16927961  0.82420308  0.00383937  1
  In  In81  1  -0.00028814  -0.00645302  0.25142761  1
  In  In82  1  0.33537195  0.32956163  0.24291138  1
  In  In83  1  0.16365180  0.17195543  -0.00183691  1
  In  In84  1  0.50494518  0.17483654  -0.00864419  1
  In  In85  1  0.33629306  0.32697702  0.75307782  1
  Cu  Cu86  1  0.33038872  0.00288211  0.49997541  1
  Cu  Cu87  1  0.34182460  0.33421576  0.50036742  1
  Cu  Cu88  1  0.50228441  0.82907973  0.25240001  1
  Cu  Cu89  1  0.50569900  0.15869954  0.25598038  1
  Cu  Cu90  1  0.16172839  0.49753877  0.74988215  1
  Cu  Cu91  1  0.16772168  0.84199580  0.74962868  1
  Cu  Cu92  1  0.00287349  0.32740239  0.50629560  1
  Cu  Cu93  1  0.15979853  0.16226118  0.74805427  1
  Cu  Cu94  1  0.50311899  0.83393751  0.74732847  1
  Cu  Cu95  1  0.66334150  0.66333848  0.49275528  1
  Cu  Cu96  1  0.66559611  0.66524140  0.00870994  1
  Cu  Cu97  1  0.33872583  0.66429350  0.49100807  1
  Cu  Cu98  1  0.66926927  0.00590554  0.00038251  1
  Cu  Cu99  1  -0.01389647  0.33702026  -0.00276472  1
  Cu  Cu100  1  0.83034147  0.16644511  0.25277431  1
  Cu  Cu101  1  0.33667929  0.66563300  0.00975365  1
  Cu  Cu102  1  0.83104781  0.16997836  0.74581821  1
  Cu  Cu103  1  0.82538829  0.82985397  0.25225225  1
  Cu  Cu104  1  0.34522845  -0.00850827  0.00172300  1
  Cu  Cu105  1  0.49661887  0.16363184  0.74487501  1
  Cu  Cu106  1  -0.00279380  0.00545859  0.50905207  1
  Cu  Cu107  1  0.82897494  0.49784295  0.25595912  1
  Cu  Cu108  1  0.16529261  0.83727317  0.25575470  1
  Cu  Cu109  1  0.66200763  -0.00447455  0.49988736  1
  Cu  Cu110  1  0.32871245  0.34126584  0.00471430  1
  Cu  Cu111  1  0.00157760  0.65684474  0.00249894  1
  Cu  Cu112  1  0.17179627  0.15777030  0.25708492  1
  Cu  Cu113  1  0.66772107  0.34124869  -0.00112240  1
  Cu  Cu114  1  -0.00529176  0.00458044  -0.01048457  1
  Se  Se115  1  0.07323755  0.07715030  0.05730999  1
  Se  Se116  1  0.08474898  0.08967945  0.55624287  1
  Se  Se117  1  0.07659157  0.41277373  0.05124212  1
  Se  Se118  1  0.08001021  0.41657036  0.56347708  1
  Se  Se119  1  0.07843301  0.73795638  0.06408765  1
  Se  Se120  1  0.07533829  0.74751275  0.55470365  1
  Se  Se121  1  0.42113050  0.08151862  0.05661627  1
  Se  Se122  1  0.41302164  0.07923021  0.56228127  1
  Se  Se123  1  0.41926097  0.41983094  0.05406381  1
  Se  Se124  1  0.42720162  0.41735316  0.54995180  1
  Se  Se125  1  0.42340434  0.74939194  0.05769707  1
  Se  Se126  1  0.41874137  0.74868345  0.54630407  1
  Se  Se127  1  0.75232090  0.08956428  0.05179675  1
  Se  Se128  1  0.74492431  0.07803824  0.55451537  1
  Se  Se129  1  0.74900404  0.42356274  0.05558051  1
  Se  Se130  1  0.77874422  0.43562979  0.55992115  1
  Se  Se131  1  0.75027143  0.74453544  0.06677299  1
  Se  Se132  1  0.74465254  0.74794396  0.54690496  1
  Se  Se133  1  0.25834801  0.25294200  0.06383193  1
  Se  Se134  1  0.25374163  0.25306195  0.54943503  1
  Se  Se135  1  0.24533798  0.58449469  0.05686436  1
  Se  Se136  1  0.25991003  0.58874344  0.55669375  1
  Se  Se137  1  0.26049511  0.91705332  0.06180839  1
  Se  Se138  1  0.25093325  0.92422589  0.56334852  1
  Se  Se139  1  0.58940103  0.25759342  0.05971008  1
  Se  Se140  1  0.60462891  0.26220661  0.55319866  1
  Se  Se141  1  0.58319698  0.58102489  0.06173872  1
  Se  Se142  1  0.58955383  0.57666185  0.55234123  1
  Se  Se143  1  0.58969844  0.91899623  0.05280940  1
  Se  Se144  1  0.57333008  0.91219248  0.54797948  1
  Se  Se145  1  0.90873712  0.24815921  0.04951224  1
  Se  Se146  1  0.91307773  0.24822157  0.55686564  1
  Se  Se147  1  0.90849611  0.58111274  0.05263563  1
  Se  Se148  1  0.93217196  0.59734404  0.54532454  1
  Se  Se149  1  0.92005892  0.92284980  0.05291851  1
  Se  Se150  1  0.91327971  0.91869867  0.55650738  1
  Se  Se151  1  0.08991692  0.25062644  0.45063551  1
  Se  Se152  1  0.07180286  0.25755697  0.93792422  1
  Se  Se153  1  0.07993608  0.59256428  0.43897011  1
  Se  Se154  1  0.08477806  0.57460894  0.94820913  1
  Se  Se155  1  0.07096497  0.92830410  0.44013249  1
  Se  Se156  1  0.08297118  0.92025705  0.94153412  1
  Se  Se157  1  0.42120837  0.25640961  0.43727691  1
  Se  Se158  1  0.40494512  0.26514515  0.93854649  1
  Se  Se159  1  0.42284448  0.57942017  0.44124900  1
  Se  Se160  1  0.41783431  0.58468414  0.95056603  1
  Se  Se161  1  0.41126752  0.91672434  0.44794923  1
  Se  Se162  1  0.42932143  0.91317832  0.94645360  1
  Se  Se163  1  0.76321578  0.23210479  0.44879797  1
  Se  Se164  1  0.74829022  0.25457318  0.94568708  1
  Se  Se165  1  0.74945318  0.58025703  0.44171670  1
  Se  Se166  1  0.74841821  0.58611167  0.95055142  1
  Se  Se167  1  0.74822078  0.91449136  0.44641077  1
  Se  Se168  1  0.74573248  0.92631865  0.93523943  1
  Se  Se169  1  0.24636197  0.08921065  0.45208179  1
  Se  Se170  1  0.26045365  0.07445380  0.94618853  1
  Se  Se171  1  0.26551456  0.41439179  0.43505706  1
  Se  Se172  1  0.24488485  0.42458286  0.95254648  1
  Se  Se173  1  0.24967359  0.74094667  0.43686012  1
  Se  Se174  1  0.26285724  0.74116177  0.93933721  1
  Se  Se175  1  0.58548098  0.07785794  0.43750061  1
  Se  Se176  1  0.59267204  0.08166267  0.93375862  1
  Se  Se177  1  0.59766027  0.41144279  0.44718055  1
  Se  Se178  1  0.57944850  0.42380713  0.95003089  1
  Se  Se179  1  0.57899577  0.75010036  0.44348181  1
  Se  Se180  1  0.58907309  0.75428346  0.95442640  1
  Se  Se181  1  0.91386456  0.08580587  0.45237719  1
  Se  Se182  1  0.90836190  0.08631523  0.94094774  1
  Se  Se183  1  0.92862675  0.41238258  0.44711830  1
  Se  Se184  1  0.90771107  0.42154132  0.94179259  1
  Se  Se185  1  0.90480411  0.75213582  0.45137284  1
  Se  Se186  1  0.92952578  0.74235509  0.93970295  1
  Se  Se187  1  0.24840869  0.24558115  0.31326721  1
  Se  Se188  1  0.23927685  0.23998952  0.81281689  1
  Se  Se189  1  0.25004006  0.58198592  0.29299439  1
  Se  Se190  1  0.24517703  0.57842058  0.80566193  1
  Se  Se191  1  0.25137370  0.91775413  0.30752840  1
  Se  Se192  1  0.25362447  0.91934077  0.80460232  1
  Se  Se193  1  0.59075088  0.24627041  0.30111434  1
  Se  Se194  1  0.57273649  0.24681320  0.80421882  1
  Se  Se195  1  0.58175499  0.57871760  0.29745231  1
  Se  Se196  1  0.57709508  0.58428432  0.81138405  1
  Se  Se197  1  0.58596410  0.91430638  0.30419737  1
  Se  Se198  1  0.58585473  0.91589758  0.80207539  1
  Se  Se199  1  0.90116154  0.24905082  0.31607684  1
  Se  Se200  1  0.91004176  0.25463280  0.80277758  1
  Se  Se201  1  0.91459332  0.58275297  0.30497086  1
  Se  Se202  1  0.90651563  0.57584064  0.80760296  1
  Se  Se203  1  0.90655455  0.91136559  0.31284269  1
  Se  Se204  1  0.91395908  0.91521754  0.79314937  1
  Se  Se205  1  0.08033831  0.08860097  0.31554490  1
  Se  Se206  1  0.07651046  0.07917644  0.80242588  1
  Se  Se207  1  0.09455649  0.42866344  0.30251032  1
  Se  Se208  1  0.08086913  0.41331954  0.80351451  1
  Se  Se209  1  0.07758452  0.75522404  0.30440560  1
  Se  Se210  1  0.09205187  0.75632257  0.80900207  1
  Se  Se211  1  0.41639316  0.07880637  0.30494499  1
  Se  Se212  1  0.41432005  0.07918426  0.79779898  1
  Se  Se213  1  0.42582502  0.41527652  0.30398268  1
  Se  Se214  1  0.41921357  0.42911826  0.80617329  1
  Se  Se215  1  0.41748202  0.74600094  0.30475889  1
  Se  Se216  1  0.42470428  0.75130793  0.80799498  1
  Se  Se217  1  0.74948706  0.07678641  0.30246041  1
  Se  Se218  1  0.74625562  0.08566257  0.79849975  1
  Se  Se219  1  0.75079562  0.41200020  0.31100758  1
  Se  Se220  1  0.72957206  0.41141443  0.80464708  1
  Se  Se221  1  0.74569548  0.74457627  0.30590781  1
  Se  Se222  1  0.76174176  0.76233794  0.80712450  1
  Se  Se223  1  0.25471726  0.07464989  0.20476949  1
  Se  Se224  1  0.25071971  0.08311113  0.69838728  1
  Se  Se225  1  0.24412724  0.41994874  0.18648334  1
  Se  Se226  1  0.24680642  0.41989902  0.69039599  1
  Se  Se227  1  0.24739857  0.75265838  0.20172075  1
  Se  Se228  1  0.23971166  0.76050594  0.68574630  1
  Se  Se229  1  0.58618822  0.07639524  0.19711340  1
  Se  Se230  1  0.58495862  0.08264261  0.69467073  1
  Se  Se231  1  0.59220949  0.41394647  0.20363464  1
  Se  Se232  1  0.59387187  0.41973476  0.70026675  1
  Se  Se233  1  0.58603898  0.74668425  0.19854194  1
  Se  Se234  1  0.57848468  0.75334026  0.68486541  1
  Se  Se235  1  0.91333508  0.08953080  0.19135707  1
  Se  Se236  1  0.91301936  0.08309224  0.69449881  1
  Se  Se237  1  0.90834205  0.41949927  0.19064402  1
  Se  Se238  1  0.92371238  0.40470325  0.69926722  1
  Se  Se239  1  0.91695695  0.75024529  0.20362986  1
  Se  Se240  1  0.90513090  0.75059386  0.68705716  1
  Se  Se241  1  0.08988341  0.23899112  0.19906884  1
  Se  Se242  1  0.08057571  0.25007838  0.69689904  1
  Se  Se243  1  0.06335441  0.59005654  0.19538108  1
  Se  Se244  1  0.08072891  0.57016477  0.68667218  1
  Se  Se245  1  0.09011937  0.90896223  0.18552448  1
  Se  Se246  1  0.07707871  0.91817287  0.69822482  1
  Se  Se247  1  0.43349772  0.23887701  0.18803762  1
  Se  Se248  1  0.42617490  0.25017064  0.68277355  1
  Se  Se249  1  0.40782860  0.58825657  0.19924079  1
  Se  Se250  1  0.43043052  0.57550111  0.69102805  1
  Se  Se251  1  0.41822564  0.91548967  0.19947387  1
  Se  Se252  1  0.41564295  0.91576346  0.69589763  1
  Se  Se253  1  0.75014826  0.24849639  0.19503528  1
  Se  Se254  1  0.74297714  0.25268242  0.69714409  1
  Se  Se255  1  0.74976493  0.58414289  0.20153382  1
  Se  Se256  1  0.75987135  0.58248366  0.69083564  1
  Se  Se257  1  0.74980605  0.91742627  0.19674375  1
  Se  Se258  1  0.73897060  0.91655563  0.69341825  1
