# generated using pymatgen
data_In86Cu29Se144
_symmetry_space_group_name_H-M   'P 1'
_cell_length_a   17.58217277
_cell_length_b   17.58407316
_cell_length_c   23.44470034
_cell_angle_alpha   89.98382037
_cell_angle_beta   90.00749012
_cell_angle_gamma   89.98680689
_symmetry_Int_Tables_number   1
_chemical_formula_structural   In86Cu29Se144
_chemical_formula_sum   'In86 Cu29 Se144'
_cell_volume   7248.30865718
_cell_formula_units_Z   1
loop_
 _symmetry_equiv_pos_site_id
 _symmetry_equiv_pos_as_xyz
  1  'x, y, z'
loop_
 _atom_site_type_symbol
 _atom_site_label
 _atom_site_symmetry_multiplicity
 _atom_site_fract_x
 _atom_site_fract_y
 _atom_site_fract_z
 _atom_site_occupancy
  In  In0  1  -0.01269336  0.16198671  0.11577533  1
  In  In1  1  -0.00417230  0.16890031  0.62793309  1
  In  In2  1  0.00200692  0.50721897  0.11952058  1
  In  In3  1  0.00523699  0.48342164  0.62619834  1
  In  In4  1  0.01647018  0.82729063  0.12736382  1
  In  In5  1  0.01314893  0.85221694  0.61297407  1
  In  In6  1  0.34337776  0.17818468  0.11541198  1
  In  In7  1  0.34508951  0.16649881  0.62509621  1
  In  In8  1  0.35298406  0.47247834  0.15384181  1
  In  In9  1  0.33452142  0.50142888  0.62577268  1
  In  In10  1  0.31683706  0.83383078  0.12665269  1
  In  In11  1  0.32394728  0.82107599  0.62128901  1
  In  In12  1  0.67284927  0.17402450  0.11679211  1
  In  In13  1  0.66015909  0.15733744  0.62159005  1
  In  In14  1  0.64674430  0.48466236  0.11998691  1
  In  In15  1  0.66274009  0.51237927  0.62192932  1
  In  In16  1  0.66835597  0.84811747  0.12781293  1
  In  In17  1  0.67860058  0.84288158  0.61374901  1
  In  In18  1  0.14950770  -0.00346027  0.37880370  1
  In  In19  1  0.16226798  0.00757686  0.87887291  1
  In  In20  1  0.18630672  0.33897389  0.36666116  1
  In  In21  1  0.15854190  0.32229411  0.86751770  1
  In  In22  1  0.17675281  0.65734535  0.38658360  1
  In  In23  1  0.18210060  0.66570442  0.87380150  1
  In  In24  1  0.50319769  0.00025947  0.38625838  1
  In  In25  1  0.51101103  -0.00174020  0.86530489  1
  In  In26  1  0.49654834  0.33620421  0.37696919  1
  In  In27  1  0.49048860  0.34412079  0.87899166  1
  In  In28  1  0.49337889  0.66824335  0.37756651  1
  In  In29  1  0.48994822  0.66441678  0.87357979  1
  In  In30  1  0.85571391  -0.00725568  0.38840566  1
  In  In31  1  0.84136035  0.01201573  0.86383577  1
  In  In32  1  0.81924245  0.33547086  0.37322679  1
  In  In33  1  0.86193532  0.30748678  0.90153962  1
  In  In34  1  0.84214762  0.67472390  0.37653603  1
  In  In35  1  0.82525099  0.65889284  0.87767530  1
  In  In36  1  0.00329487  0.15107843  0.37570656  1
  In  In37  1  0.00279017  0.16418116  0.87648562  1
  In  In38  1  0.00271214  0.51020456  0.37733882  1
  In  In39  1  0.00624277  0.47479887  0.88087184  1
  In  In40  1  -0.00495660  0.84898653  0.39274802  1
  In  In41  1  0.00396151  0.84986968  0.86866907  1
  In  In42  1  0.33924640  0.18064356  0.37498755  1
  In  In43  1  0.32022456  0.17742653  0.88086214  1
  In  In44  1  0.33305462  0.50112988  0.37079577  1
  In  In45  1  0.33907992  0.50531009  0.86968692  1
  In  In46  1  0.34181033  0.82270694  0.38573796  1
  In  In47  1  0.33253437  0.81875188  0.86802764  1
  In  In48  1  0.66346127  0.17442143  0.37962917  1
  In  In49  1  0.67291270  0.16251169  0.87643563  1
  In  In50  1  0.65905332  0.48278030  0.36678722  1
  In  In51  1  0.67341612  0.49106699  0.88681065  1
  In  In52  1  0.66949669  0.83197574  0.38132072  1
  In  In53  1  0.65234971  0.84434068  0.86656907  1
  In  In54  1  0.15763178  -0.00921191  0.11823597  1
  In  In55  1  0.16094341  -0.01580927  0.62778044  1
  In  In56  1  0.17905009  0.34050880  0.12333477  1
  In  In57  1  0.16341557  0.33738244  0.62939299  1
  In  In58  1  0.16931742  0.66834199  0.12603328  1
  In  In59  1  0.18277831  0.68000563  0.62340740  1
  In  In60  1  0.48775583  0.00524572  0.12110454  1
  In  In61  1  0.50677334  0.00593221  0.61878737  1
  In  In62  1  0.50220175  0.33281233  0.12817408  1
  In  In63  1  0.49110976  0.32675247  0.62034499  1
  In  In64  1  0.49631965  0.64902765  0.13315400  1
  In  In65  1  0.49214670  0.65698554  0.61619585  1
  In  In66  1  0.83186283  0.01258543  0.12674000  1
  In  In67  1  0.83620412  0.00131817  0.62553179  1
  In  In68  1  0.82292935  0.31858154  0.11631920  1
  In  In69  1  0.85057405  0.33116916  0.62688190  1
  In  In70  1  0.84695266  0.66679238  0.12595721  1
  In  In71  1  0.82041670  0.67033537  0.62251968  1
  In  In72  1  0.66472090  0.66220877  0.25811155  1
  In  In73  1  0.66025088  0.67317455  0.74869735  1
  In  In74  1  0.83481526  0.83395873  -0.00327896  1
  In  In75  1  0.00203703  0.33185444  0.24466460  1
  In  In76  1  0.83069788  0.50225552  0.49553120  1
  In  In77  1  0.49132925  0.83289073  -0.01145646  1
  In  In78  1  0.00257623  0.66893050  0.74736175  1
  In  In79  1  0.16955461  0.16336849  0.49846321  1
  In  In80  1  0.33167360  -0.00184354  0.74537060  1
  In  In81  1  0.00849457  0.66948687  0.25181292  1
  In  In82  1  0.67435812  0.00631748  0.25243644  1
  In  In83  1  0.32696575  0.00231334  0.25109425  1
  In  In84  1  0.17190079  0.49868767  0.00424263  1
  In  In85  1  0.66856066  0.33367516  0.75460710  1
  Cu  Cu86  1  0.00785753  0.32732283  0.50148648  1
  Cu  Cu87  1  0.32776132  0.00696890  -0.00105264  1
  Cu  Cu88  1  0.33487932  0.33692240  0.00155154  1
  Cu  Cu89  1  0.83139380  0.84129247  0.74228226  1
  Cu  Cu90  1  0.49750647  0.50170029  0.74914215  1
  Cu  Cu91  1  0.00534693  0.66964912  0.00113076  1
  Cu  Cu92  1  0.16594951  0.16071940  0.24750655  1
  Cu  Cu93  1  -0.00043798  0.00033029  -0.00315846  1
  Cu  Cu94  1  0.82417116  0.49665220  0.24230103  1
  Cu  Cu95  1  0.33563472  0.66457832  0.00116950  1
  Cu  Cu96  1  0.83512650  0.16575988  0.24711624  1
  Cu  Cu97  1  0.16263674  0.83161778  0.25535403  1
  Cu  Cu98  1  0.65733412  0.33293541  0.00079133  1
  Cu  Cu99  1  0.65701674  0.66702105  0.49580403  1
  Cu  Cu100  1  0.66526653  0.00625184  -0.00538658  1
  Cu  Cu101  1  0.49458696  0.16978449  0.74602374  1
  Cu  Cu102  1  0.33770989  0.34167742  0.49663261  1
  Cu  Cu103  1  0.33112557  0.66168620  0.50052269  1
  Cu  Cu104  1  0.17416204  0.50018256  0.75063264  1
  Cu  Cu105  1  0.66554266  0.66045207  0.00580456  1
  Cu  Cu106  1  0.00169776  0.66710673  0.50204226  1
  Cu  Cu107  1  0.49805446  0.82717542  0.25594395  1
  Cu  Cu108  1  0.16159054  0.16849544  0.75335647  1
  Cu  Cu109  1  0.83818547  0.49073779  0.75733421  1
  Cu  Cu110  1  0.33470866  -0.00017384  0.50585203  1
  Cu  Cu111  1  0.50469413  0.17381516  0.25044258  1
  Cu  Cu112  1  0.66548315  0.33257876  0.50003180  1
  Cu  Cu113  1  0.67340799  0.00660847  0.49996141  1
  Cu  Cu114  1  0.83349313  0.16566344  0.75382196  1
  Se  Se115  1  0.08123529  0.08269757  0.05266041  1
  Se  Se116  1  0.07964539  0.07830726  0.55999645  1
  Se  Se117  1  0.07464247  0.40669206  0.05592434  1
  Se  Se118  1  0.08930554  0.41453435  0.55109810  1
  Se  Se119  1  0.09187149  0.74994044  0.05235838  1
  Se  Se120  1  0.08575532  0.74849173  0.55601669  1
  Se  Se121  1  0.41878720  0.08707091  0.04669678  1
  Se  Se122  1  0.41987199  0.08791380  0.55088600  1
  Se  Se123  1  0.41267019  0.41756800  0.06198725  1
  Se  Se124  1  0.41975363  0.42209486  0.55451708  1
  Se  Se125  1  0.41387974  0.74910295  0.06209150  1
  Se  Se126  1  0.41445400  0.74903917  0.55094599  1
  Se  Se127  1  0.75151457  0.08249744  0.05103994  1
  Se  Se128  1  0.75586973  0.08822799  0.55544530  1
  Se  Se129  1  0.74337560  0.41435280  0.05504109  1
  Se  Se130  1  0.74702863  0.41142741  0.56213538  1
  Se  Se131  1  0.74280028  0.74727977  0.06176230  1
  Se  Se132  1  0.74776215  0.74591787  0.54581435  1
  Se  Se133  1  0.24815780  0.25267335  0.05081425  1
  Se  Se134  1  0.25851981  0.25702949  0.55682061  1
  Se  Se135  1  0.26346372  0.58247795  0.06549104  1
  Se  Se136  1  0.24782974  0.58107196  0.55661043  1
  Se  Se137  1  0.25018206  0.91637202  0.05028185  1
  Se  Se138  1  0.24932384  0.91659067  0.55531318  1
  Se  Se139  1  0.57548824  0.24748629  0.05435320  1
  Se  Se140  1  0.58346194  0.24993831  0.55610202  1
  Se  Se141  1  0.57455892  0.58195431  0.05434441  1
  Se  Se142  1  0.57902336  0.57753517  0.54644137  1
  Se  Se143  1  0.58449554  0.92330690  0.05209110  1
  Se  Se144  1  0.58645125  0.92142266  0.54894512  1
  Se  Se145  1  0.91513473  0.25170629  0.04727705  1
  Se  Se146  1  0.91935305  0.24820604  0.55166540  1
  Se  Se147  1  0.91816766  0.58735147  0.05013004  1
  Se  Se148  1  0.92118309  0.58478792  0.56265538  1
  Se  Se149  1  0.92285985  0.91900291  0.06132717  1
  Se  Se150  1  0.89844147  0.90264016  0.55712529  1
  Se  Se151  1  0.08685501  0.25646280  0.43348260  1
  Se  Se152  1  0.07645876  0.25745062  0.94301193  1
  Se  Se153  1  0.08329157  0.57939650  0.45267244  1
  Se  Se154  1  0.08190869  0.58673313  0.93846193  1
  Se  Se155  1  0.08872347  0.91948194  0.45918713  1
  Se  Se156  1  0.08423772  0.91552282  0.94675359  1
  Se  Se157  1  0.42057243  0.25014353  0.45036247  1
  Se  Se158  1  0.41511225  0.25217462  0.94588134  1
  Se  Se159  1  0.41420287  0.58091103  0.44471430  1
  Se  Se160  1  0.41667599  0.58101861  0.94657449  1
  Se  Se161  1  0.41792152  0.91636375  0.45048458  1
  Se  Se162  1  0.40386054  0.92894207  0.93269069  1
  Se  Se163  1  0.75290452  0.25200214  0.44900897  1
  Se  Se164  1  0.74258003  0.24878976  0.94955763  1
  Se  Se165  1  0.73907276  0.58850290  0.43263079  1
  Se  Se166  1  0.75259584  0.58087929  0.95319405  1
  Se  Se167  1  0.75157227  0.91896295  0.44598618  1
  Se  Se168  1  0.74455365  0.92294420  0.93566937  1
  Se  Se169  1  0.26089774  0.07547610  0.43610684  1
  Se  Se170  1  0.24139510  0.09106632  0.94907650  1
  Se  Se171  1  0.24966888  0.42054698  0.44494589  1
  Se  Se172  1  0.25453097  0.41158571  0.93631908  1
  Se  Se173  1  0.24729210  0.75276427  0.45326369  1
  Se  Se174  1  0.25463804  0.74948934  0.94773762  1
  Se  Se175  1  0.58524223  0.08872489  0.44924904  1
  Se  Se176  1  0.57825971  0.08367340  0.94032319  1
  Se  Se177  1  0.58329600  0.41696392  0.44712624  1
  Se  Se178  1  0.57541673  0.42042561  0.95011014  1
  Se  Se179  1  0.57639703  0.75437844  0.44423287  1
  Se  Se180  1  0.59457764  0.74239179  0.94019380  1
  Se  Se181  1  0.91910668  0.09325148  0.45321619  1
  Se  Se182  1  0.91365547  0.08164775  0.94430933  1
  Se  Se183  1  0.92448298  0.40744610  0.44014320  1
  Se  Se184  1  0.90140488  0.43349093  0.94942991  1
  Se  Se185  1  0.91513115  0.75013223  0.45247483  1
  Se  Se186  1  0.92644323  0.74501738  0.93580417  1
  Se  Se187  1  0.25217357  0.24253499  0.29843287  1
  Se  Se188  1  0.25212384  0.25110110  0.79922911  1
  Se  Se189  1  0.24777049  0.58917027  0.30694388  1
  Se  Se190  1  0.25711971  0.58730812  0.79934954  1
  Se  Se191  1  0.24617417  0.91022075  0.31552230  1
  Se  Se192  1  0.24320129  0.91435067  0.80995671  1
  Se  Se193  1  0.58463268  0.25435008  0.30773087  1
  Se  Se194  1  0.57349163  0.24578962  0.81138010  1
  Se  Se195  1  0.56651019  0.57136538  0.30606916  1
  Se  Se196  1  0.58434938  0.57187269  0.81126663  1
  Se  Se197  1  0.57877761  0.91346343  0.30867511  1
  Se  Se198  1  0.57414175  0.91177716  0.79055296  1
  Se  Se199  1  0.91384696  0.24622119  0.30993576  1
  Se  Se200  1  0.91574591  0.24922053  0.80873703  1
  Se  Se201  1  0.90518050  0.57503849  0.30340701  1
  Se  Se202  1  0.91830104  0.57727209  0.81247781  1
  Se  Se203  1  0.92271527  0.91452714  0.31069972  1
  Se  Se204  1  0.91699450  0.92050322  0.79743826  1
  Se  Se205  1  0.08335494  0.07825492  0.30026390  1
  Se  Se206  1  0.08086883  0.08131390  0.80399338  1
  Se  Se207  1  0.08489516  0.42367001  0.30822792  1
  Se  Se208  1  0.08611949  0.41695165  0.79950063  1
  Se  Se209  1  0.08657115  0.75546845  0.32167332  1
  Se  Se210  1  0.09218740  0.75478285  0.80913682  1
  Se  Se211  1  0.42740989  0.08625758  0.30815008  1
  Se  Se212  1  0.41380537  0.09207941  0.80940810  1
  Se  Se213  1  0.40112297  0.40002680  0.30770623  1
  Se  Se214  1  0.41455096  0.41564439  0.80040867  1
  Se  Se215  1  0.41075395  0.74713930  0.30552110  1
  Se  Se216  1  0.43849207  0.76392480  0.80419016  1
  Se  Se217  1  0.76195155  0.09021581  0.31636286  1
  Se  Se218  1  0.74259220  0.08207232  0.79924100  1
  Se  Se219  1  0.74568487  0.40997779  0.29528780  1
  Se  Se220  1  0.76251716  0.41064135  0.81885872  1
  Se  Se221  1  0.75894424  0.75980924  0.30597380  1
  Se  Se222  1  0.75836807  0.76032698  0.80786628  1
  Se  Se223  1  0.24677262  0.08757442  0.18191377  1
  Se  Se224  1  0.23957453  0.09205534  0.68713177  1
  Se  Se225  1  0.23972928  0.41208905  0.20632555  1
  Se  Se226  1  0.25416016  0.41522700  0.69502184  1
  Se  Se227  1  0.24539385  0.75040632  0.20015526  1
  Se  Se228  1  0.25067532  0.75390377  0.70266574  1
  Se  Se229  1  0.57814541  0.08757997  0.18944218  1
  Se  Se230  1  0.57907200  0.08501755  0.69683871  1
  Se  Se231  1  0.57440867  0.42023138  0.20016934  1
  Se  Se232  1  0.58103334  0.42310433  0.69030609  1
  Se  Se233  1  0.58084306  0.75686827  0.19081168  1
  Se  Se234  1  0.58290727  0.75259676  0.67626476  1
  Se  Se235  1  0.92147755  0.08364343  0.19684902  1
  Se  Se236  1  0.91623082  0.08423257  0.69743804  1
  Se  Se237  1  0.90959149  0.42017450  0.18404697  1
  Se  Se238  1  0.92260064  0.41247019  0.70159154  1
  Se  Se239  1  0.91378224  0.76123322  0.19647474  1
  Se  Se240  1  0.90924956  0.75452608  0.68703576  1
  Se  Se241  1  0.08902959  0.24071456  0.18408219  1
  Se  Se242  1  0.08066311  0.25156180  0.69539980  1
  Se  Se243  1  0.09297345  0.57182500  0.19472335  1
  Se  Se244  1  0.09167176  0.57724618  0.68804256  1
  Se  Se245  1  0.08560877  0.91692620  0.19871576  1
  Se  Se246  1  0.07490469  0.91584915  0.70008580  1
  Se  Se247  1  0.41521682  0.24844031  0.19588893  1
  Se  Se248  1  0.41130190  0.25640191  0.69810805  1
  Se  Se249  1  0.39798675  0.59614500  0.20233185  1
  Se  Se250  1  0.41656262  0.58679827  0.69575681  1
  Se  Se251  1  0.42147278  0.90888225  0.19360066  1
  Se  Se252  1  0.41861584  0.91401393  0.68129683  1
  Se  Se253  1  0.74781101  0.24659835  0.19554532  1
  Se  Se254  1  0.75561798  0.24567704  0.69053869  1
  Se  Se255  1  0.74867260  0.58235638  0.18449397  1
  Se  Se256  1  0.75827108  0.57359888  0.69897253  1
  Se  Se257  1  0.76562201  0.91103474  0.19727911  1
  Se  Se258  1  0.74352522  0.92287902  0.69320093  1
