# generated using pymatgen
data_In86Cu29Se144
_symmetry_space_group_name_H-M   'P 1'
_cell_length_a   17.58211700
_cell_length_b   17.58343263
_cell_length_c   23.43479223
_cell_angle_alpha   90.02255576
_cell_angle_beta   89.98310910
_cell_angle_gamma   89.99845309
_symmetry_Int_Tables_number   1
_chemical_formula_structural   In86Cu29Se144
_chemical_formula_sum   'In86 Cu29 Se144'
_cell_volume   7244.95816616
_cell_formula_units_Z   1
loop_
 _symmetry_equiv_pos_site_id
 _symmetry_equiv_pos_as_xyz
  1  'x, y, z'
loop_
 _atom_site_type_symbol
 _atom_site_label
 _atom_site_symmetry_multiplicity
 _atom_site_fract_x
 _atom_site_fract_y
 _atom_site_fract_z
 _atom_site_occupancy
  In  In0  1  -0.00721507  0.16725619  0.13276930  1
  In  In1  1  -0.00415416  0.17442671  0.61440052  1
  In  In2  1  -0.00450677  0.50715396  0.12615034  1
  In  In3  1  -0.00835723  0.47933811  0.61001971  1
  In  In4  1  0.00833396  0.84270546  0.12518888  1
  In  In5  1  -0.00005074  0.84642496  0.62547222  1
  In  In6  1  0.33491717  0.15404894  0.12494106  1
  In  In7  1  0.33713747  0.16566083  0.62704185  1
  In  In8  1  0.32243525  0.50221120  0.12621799  1
  In  In9  1  0.33417932  0.49576431  0.62566567  1
  In  In10  1  0.35236265  0.83666109  0.11812141  1
  In  In11  1  0.34698250  0.82716672  0.64004767  1
  In  In12  1  0.66480999  0.17617869  0.12612387  1
  In  In13  1  0.66620309  0.16482829  0.62039128  1
  In  In14  1  0.68489454  0.49172140  0.13943355  1
  In  In15  1  0.65719534  0.49173914  0.61755177  1
  In  In16  1  0.64861443  0.83733508  0.12717448  1
  In  In17  1  0.67154064  0.83802114  0.61989900  1
  In  In18  1  0.17924057  0.00820481  0.37327515  1
  In  In19  1  0.16568397  0.00038692  0.86751921  1
  In  In20  1  0.15552224  0.33457424  0.40120947  1
  In  In21  1  0.16550538  0.34490701  0.85202915  1
  In  In22  1  0.15827365  0.66042866  0.38062811  1
  In  In23  1  0.18212988  0.66088873  0.86537842  1
  In  In24  1  0.48510702  0.01103920  0.38345547  1
  In  In25  1  0.50038674  0.00262763  0.87029293  1
  In  In26  1  0.51332162  0.32397139  0.38091935  1
  In  In27  1  0.49067634  0.32002168  0.86429485  1
  In  In28  1  0.51211769  0.65689496  0.38283348  1
  In  In29  1  0.49087946  0.67651869  0.87367466  1
  In  In30  1  0.83729983  -0.00953159  0.38183779  1
  In  In31  1  0.83657664  0.01319150  0.86479586  1
  In  In32  1  0.81361827  0.34308008  0.38982564  1
  In  In33  1  0.83835910  0.33665709  0.86362182  1
  In  In34  1  0.82760173  0.66606994  0.38001724  1
  In  In35  1  0.81618699  0.66320635  0.87818299  1
  In  In36  1  0.00732297  0.16097901  0.38772307  1
  In  In37  1  -0.00170565  0.17050352  0.86511712  1
  In  In38  1  -0.01216679  0.49420552  0.39598250  1
  In  In39  1  0.00075632  0.48600406  0.86937316  1
  In  In40  1  -0.01144048  0.83517705  0.37886544  1
  In  In41  1  -0.00546032  0.84765228  0.87227109  1
  In  In42  1  0.34188414  0.15505639  0.38916284  1
  In  In43  1  0.33739915  0.17649653  0.86769719  1
  In  In44  1  0.33938844  0.49423872  0.38771165  1
  In  In45  1  0.33201040  0.50378394  0.85399392  1
  In  In46  1  0.33495086  0.85005588  0.37728265  1
  In  In47  1  0.34925554  0.84291239  0.85801560  1
  In  In48  1  0.64953139  0.17739434  0.38159307  1
  In  In49  1  0.65725807  0.15611295  0.86344092  1
  In  In50  1  0.66841731  0.49624003  0.37471211  1
  In  In51  1  0.67954606  0.49980675  0.87325238  1
  In  In52  1  0.67068854  0.82555303  0.38154599  1
  In  In53  1  0.64528208  0.83468677  0.87225740  1
  In  In54  1  0.16654221  0.01033264  0.13336371  1
  In  In55  1  0.16059775  0.01195803  0.63285517  1
  In  In56  1  0.16760539  0.34358083  0.12804886  1
  In  In57  1  0.17053294  0.33409994  0.62396791  1
  In  In58  1  0.16335060  0.65733161  0.12459311  1
  In  In59  1  0.18203184  0.66069472  0.62797609  1
  In  In60  1  0.49756687  -0.00600678  0.11824435  1
  In  In61  1  0.49973932  -0.00234844  0.62614247  1
  In  In62  1  0.51678718  0.33867778  0.12154071  1
  In  In63  1  0.50104314  0.33139842  0.62550270  1
  In  In64  1  0.50256949  0.68256893  0.12489026  1
  In  In65  1  0.49861908  0.66615063  0.62210887  1
  In  In66  1  0.83677002  0.01037419  0.13137357  1
  In  In67  1  0.83282215  0.00242388  0.61844643  1
  In  In68  1  0.82182434  0.33046805  0.12799957  1
  In  In69  1  0.83241619  0.32927587  0.61755571  1
  In  In70  1  0.83515152  0.65223364  0.12642501  1
  In  In71  1  0.83438105  0.66251950  0.61636909  1
  In  In72  1  0.17225246  0.50357695  -0.00420741  1
  In  In73  1  -0.00350395  0.32990330  0.26049642  1
  In  In74  1  0.17073072  0.83045620  0.50659114  1
  In  In75  1  0.66410932  0.00098106  0.25310668  1
  In  In76  1  0.16496664  0.17016133  0.00212760  1
  In  In77  1  0.50646551  0.50225947  -0.00421537  1
  In  In78  1  0.00403676  0.66115609  0.74596077  1
  In  In79  1  0.17316643  0.83602029  -0.01375664  1
  In  In80  1  0.33593335  0.67405137  0.24390283  1
  In  In81  1  -0.00822644  0.66825280  0.26522773  1
  In  In82  1  0.82807972  0.83508413  0.00075212  1
  In  In83  1  0.34694072  0.31052596  0.26750038  1
  In  In84  1  0.82697618  0.16729250  -0.00020895  1
  In  In85  1  0.65950567  0.67063111  0.75068780  1
  Cu  Cu86  1  0.83573086  0.83163765  0.25707755  1
  Cu  Cu87  1  0.16751860  0.83720790  0.74642798  1
  Cu  Cu88  1  0.66602007  0.66578256  0.50062161  1
  Cu  Cu89  1  -0.00094139  0.66009269  0.50093223  1
  Cu  Cu90  1  0.50323871  0.16558645  0.74395639  1
  Cu  Cu91  1  0.16941307  0.84552113  0.24833294  1
  Cu  Cu92  1  0.49716439  0.83792417  0.25119222  1
  Cu  Cu93  1  0.83131276  0.49617731  0.74379140  1
  Cu  Cu94  1  -0.00314640  0.66250955  -0.00033902  1
  Cu  Cu95  1  0.83478723  0.16318795  0.25762802  1
  Cu  Cu96  1  -0.00519162  0.33568727  -0.01120861  1
  Cu  Cu97  1  0.66298677  0.66202908  0.00122992  1
  Cu  Cu98  1  0.50040470  0.49761952  0.74102115  1
  Cu  Cu99  1  0.16887944  0.16300071  0.26184018  1
  Cu  Cu100  1  0.66357079  0.33390362  0.50297557  1
  Cu  Cu101  1  -0.00134525  -0.00321716  0.50380589  1
  Cu  Cu102  1  0.66874081  0.33225265  -0.00019699  1
  Cu  Cu103  1  0.66649480  0.00032081  0.49949487  1
  Cu  Cu104  1  0.51187726  0.50069213  0.25159711  1
  Cu  Cu105  1  0.83252419  0.84631009  0.74555562  1
  Cu  Cu106  1  0.16552048  0.16719012  0.74239066  1
  Cu  Cu107  1  0.33709979  -0.00166210  -0.00361272  1
  Cu  Cu108  1  0.33994598  0.66745049  0.50680907  1
  Cu  Cu109  1  0.33707095  0.33289071  0.50835809  1
  Cu  Cu110  1  0.65762884  -0.00489902  -0.00646554  1
  Cu  Cu111  1  0.33945778  0.33455810  -0.00825974  1
  Cu  Cu112  1  0.17131416  0.49433268  0.25990283  1
  Cu  Cu113  1  0.83406800  0.16873943  0.73871234  1
  Cu  Cu114  1  0.33399322  -0.00003075  0.50768609  1
  Se  Se115  1  0.07245917  0.08114844  0.05994907  1
  Se  Se116  1  0.08303137  0.08044856  0.55448616  1
  Se  Se117  1  0.07510988  0.41228489  0.05382526  1
  Se  Se118  1  0.09664439  0.41765878  0.54955344  1
  Se  Se119  1  0.07993551  0.74466373  0.05408610  1
  Se  Se120  1  0.07642950  0.74015401  0.56418530  1
  Se  Se121  1  0.41792346  0.08341334  0.05074037  1
  Se  Se122  1  0.42094253  0.08523873  0.55608102  1
  Se  Se123  1  0.40981097  0.41537684  0.05817661  1
  Se  Se124  1  0.42297013  0.41919010  0.55614111  1
  Se  Se125  1  0.41577903  0.74293806  0.04981885  1
  Se  Se126  1  0.41722412  0.75742452  0.55724031  1
  Se  Se127  1  0.73716992  0.07139911  0.05799697  1
  Se  Se128  1  0.75157818  0.08618216  0.54919486  1
  Se  Se129  1  0.74887433  0.41517740  0.05565584  1
  Se  Se130  1  0.75040837  0.41887581  0.55109851  1
  Se  Se131  1  0.74142707  0.74481114  0.06291509  1
  Se  Se132  1  0.75098172  0.74929255  0.55262343  1
  Se  Se133  1  0.25824246  0.26308469  0.05921636  1
  Se  Se134  1  0.25327551  0.24557692  0.55667061  1
  Se  Se135  1  0.26332753  0.59961265  0.05185551  1
  Se  Se136  1  0.25429076  0.58121589  0.55298469  1
  Se  Se137  1  0.25164196  0.92575417  0.05858373  1
  Se  Se138  1  0.25464902  0.91981291  0.56924580  1
  Se  Se139  1  0.58403698  0.24742986  0.04964512  1
  Se  Se140  1  0.57986932  0.24831525  0.55355266  1
  Se  Se141  1  0.59073020  0.58197433  0.06714775  1
  Se  Se142  1  0.58049754  0.58393726  0.55298307  1
  Se  Se143  1  0.57758789  0.90958517  0.04757203  1
  Se  Se144  1  0.58278490  0.91781660  0.55361234  1
  Se  Se145  1  0.92369884  0.25854317  0.05720426  1
  Se  Se146  1  0.92727182  0.26761406  0.54355743  1
  Se  Se147  1  0.91459933  0.57801897  0.05072826  1
  Se  Se148  1  0.91132890  0.57532850  0.54849938  1
  Se  Se149  1  0.91943847  0.92718175  0.05758976  1
  Se  Se150  1  0.91298046  0.91046776  0.55100186  1
  Se  Se151  1  0.08020281  0.24147652  0.46287763  1
  Se  Se152  1  0.08394072  0.26072277  0.93416817  1
  Se  Se153  1  0.08633745  0.57653382  0.45228329  1
  Se  Se154  1  0.07780355  0.59009370  0.93471942  1
  Se  Se155  1  0.08371270  0.91891356  0.44262364  1
  Se  Se156  1  0.07365056  0.93263309  0.94498071  1
  Se  Se157  1  0.41817257  0.25370786  0.44868179  1
  Se  Se158  1  0.42026890  0.24554997  0.94459688  1
  Se  Se159  1  0.42106274  0.58331533  0.45094979  1
  Se  Se160  1  0.40689242  0.57950667  0.93599580  1
  Se  Se161  1  0.41693876  0.91620059  0.45378433  1
  Se  Se162  1  0.41749461  0.91648994  0.93955509  1
  Se  Se163  1  0.74366774  0.24290373  0.45209777  1
  Se  Se164  1  0.74412182  0.25360950  0.93372623  1
  Se  Se165  1  0.74822809  0.57973665  0.44726768  1
  Se  Se166  1  0.74905161  0.57783326  0.95257659  1
  Se  Se167  1  0.75005892  0.91223632  0.44955734  1
  Se  Se168  1  0.74676637  0.92453180  0.93410578  1
  Se  Se169  1  0.24694442  0.08118349  0.45495043  1
  Se  Se170  1  0.25411965  0.08069917  0.94032887  1
  Se  Se171  1  0.25286734  0.41824398  0.45620716  1
  Se  Se172  1  0.25557059  0.41077898  0.93311708  1
  Se  Se173  1  0.25953631  0.74271533  0.44096540  1
  Se  Se174  1  0.26502440  0.74643288  0.93220851  1
  Se  Se175  1  0.57897812  0.08361261  0.44973081  1
  Se  Se176  1  0.58108967  0.08620513  0.94250927  1
  Se  Se177  1  0.58298642  0.41962035  0.44725062  1
  Se  Se178  1  0.58815889  0.40666924  0.93473197  1
  Se  Se179  1  0.58049497  0.75221914  0.45081012  1
  Se  Se180  1  0.58211012  0.74378180  0.94576170  1
  Se  Se181  1  0.91432935  0.07878994  0.44999740  1
  Se  Se182  1  0.92381973  0.08346658  0.94201289  1
  Se  Se183  1  0.92542461  0.38845906  0.45520198  1
  Se  Se184  1  0.90869440  0.41973117  0.94079305  1
  Se  Se185  1  0.91781398  0.74531168  0.44720555  1
  Se  Se186  1  0.92080357  0.74507729  0.93845546  1
  Se  Se187  1  0.23746510  0.24623985  0.32615537  1
  Se  Se188  1  0.24977139  0.24985233  0.79690754  1
  Se  Se189  1  0.25312532  0.58213387  0.31163308  1
  Se  Se190  1  0.22713781  0.56382863  0.79184009  1
  Se  Se191  1  0.25653966  0.92317796  0.30184606  1
  Se  Se192  1  0.25068909  0.92138579  0.79943406  1
  Se  Se193  1  0.57709062  0.24619858  0.30148195  1
  Se  Se194  1  0.58670150  0.25181022  0.79704848  1
  Se  Se195  1  0.58995691  0.58703019  0.30543119  1
  Se  Se196  1  0.57417328  0.57415548  0.81061523  1
  Se  Se197  1  0.57593650  0.91377260  0.31634728  1
  Se  Se198  1  0.58519115  0.92375834  0.80029907  1
  Se  Se199  1  0.90896980  0.24295661  0.32189720  1
  Se  Se200  1  0.91686251  0.25071877  0.79549378  1
  Se  Se201  1  0.90878843  0.56577994  0.31514915  1
  Se  Se202  1  0.90340624  0.58127520  0.80722426  1
  Se  Se203  1  0.91903844  0.91906851  0.30422899  1
  Se  Se204  1  0.91949471  0.92606488  0.79865460  1
  Se  Se205  1  0.07960266  0.08114125  0.31057869  1
  Se  Se206  1  0.08378097  0.08576888  0.80085199  1
  Se  Se207  1  0.08699003  0.42174251  0.32017253  1
  Se  Se208  1  0.06818878  0.41484186  0.78965170  1
  Se  Se209  1  0.09470713  0.76250358  0.31051143  1
  Se  Se210  1  0.08711273  0.75838439  0.80955769  1
  Se  Se211  1  0.41291840  0.08822837  0.30733140  1
  Se  Se212  1  0.41804758  0.08824102  0.80238851  1
  Se  Se213  1  0.42658494  0.42464137  0.31093131  1
  Se  Se214  1  0.41864914  0.41328516  0.79659717  1
  Se  Se215  1  0.42130106  0.75435923  0.31351593  1
  Se  Se216  1  0.41109244  0.73836226  0.79518369  1
  Se  Se217  1  0.75106505  0.08654008  0.31794775  1
  Se  Se218  1  0.75084984  0.08629676  0.79448095  1
  Se  Se219  1  0.75019717  0.41140092  0.30670169  1
  Se  Se220  1  0.74630346  0.41516315  0.79811297  1
  Se  Se221  1  0.75095018  0.74896525  0.30705788  1
  Se  Se222  1  0.75598438  0.76349331  0.80719937  1
  Se  Se223  1  0.25283641  0.08791008  0.20225759  1
  Se  Se224  1  0.25618668  0.08238589  0.69863021  1
  Se  Se225  1  0.25485338  0.41333914  0.20449324  1
  Se  Se226  1  0.25617221  0.41074264  0.69461052  1
  Se  Se227  1  0.24013123  0.76168434  0.18418238  1
  Se  Se228  1  0.25020282  0.74736603  0.70057377  1
  Se  Se229  1  0.57644741  0.08597635  0.18913939  1
  Se  Se230  1  0.58748155  0.08213986  0.69228850  1
  Se  Se231  1  0.58993650  0.41100955  0.19983169  1
  Se  Se232  1  0.58801272  0.41317768  0.69512582  1
  Se  Se233  1  0.58245087  0.75173198  0.20261409  1
  Se  Se234  1  0.57595645  0.76231531  0.69078639  1
  Se  Se235  1  0.92022970  0.08235708  0.20502432  1
  Se  Se236  1  0.91856535  0.08666413  0.68471784  1
  Se  Se237  1  0.91371047  0.41892930  0.19340992  1
  Se  Se238  1  0.91286227  0.41314940  0.69009363  1
  Se  Se239  1  0.91581822  0.75627982  0.19047420  1
  Se  Se240  1  0.90872601  0.75458871  0.69130936  1
  Se  Se241  1  0.09514381  0.24577648  0.19694944  1
  Se  Se242  1  0.08147044  0.24818586  0.68816099  1
  Se  Se243  1  0.08794389  0.57584501  0.20314233  1
  Se  Se244  1  0.07976760  0.57293919  0.67883553  1
  Se  Se245  1  0.07999291  0.92543144  0.19826510  1
  Se  Se246  1  0.08004395  0.92070335  0.69860025  1
  Se  Se247  1  0.42448727  0.24811067  0.18458682  1
  Se  Se248  1  0.41740284  0.25173939  0.69622350  1
  Se  Se249  1  0.42648367  0.57423714  0.18993228  1
  Se  Se250  1  0.41747396  0.58488912  0.69254668  1
  Se  Se251  1  0.41690241  0.91988972  0.19493362  1
  Se  Se252  1  0.40940308  0.93179476  0.69962466  1
  Se  Se253  1  0.75297290  0.24268381  0.20002823  1
  Se  Se254  1  0.74816042  0.25177682  0.68839215  1
  Se  Se255  1  0.75223788  0.59147320  0.20275712  1
  Se  Se256  1  0.75004298  0.58107771  0.68938127  1
  Se  Se257  1  0.75596701  0.90850829  0.19190766  1
  Se  Se258  1  0.74811728  0.92382884  0.69047827  1
