# generated using pymatgen
data_In86Cu29Se144
_symmetry_space_group_name_H-M   'P 1'
_cell_length_a   17.69476540
_cell_length_b   17.69860308
_cell_length_c   23.53663083
_cell_angle_alpha   90.02115334
_cell_angle_beta   89.98468649
_cell_angle_gamma   90.03948903
_symmetry_Int_Tables_number   1
_chemical_formula_structural   In86Cu29Se144
_chemical_formula_sum   'In86 Cu29 Se144'
_cell_volume   7371.02604815
_cell_formula_units_Z   1
loop_
 _symmetry_equiv_pos_site_id
 _symmetry_equiv_pos_as_xyz
  1  'x, y, z'
loop_
 _atom_site_type_symbol
 _atom_site_label
 _atom_site_symmetry_multiplicity
 _atom_site_fract_x
 _atom_site_fract_y
 _atom_site_fract_z
 _atom_site_occupancy
  In  In0  1  0.00960209  0.15041543  0.13406539  1
  In  In1  1  -0.01259782  0.16349890  0.62317143  1
  In  In2  1  0.03128338  0.46641670  0.17349198  1
  In  In3  1  0.00189642  0.50877050  0.61912642  1
  In  In4  1  0.00339203  0.83717303  0.12511968  1
  In  In5  1  0.00614173  0.82852924  0.62486878  1
  In  In6  1  0.34055433  0.17440753  0.12111595  1
  In  In7  1  0.33510568  0.16548811  0.62652878  1
  In  In8  1  0.32694654  0.49192573  0.13651622  1
  In  In9  1  0.32714245  0.48591031  0.62516508  1
  In  In10  1  0.32330245  0.82624985  0.12172570  1
  In  In11  1  0.33538376  0.83731192  0.61911573  1
  In  In12  1  0.73071817  0.12311804  0.19086913  1
  In  In13  1  0.66886585  0.16908324  0.61274149  1
  In  In14  1  0.71998824  0.46787980  0.17093315  1
  In  In15  1  0.67809955  0.50594200  0.61615398  1
  In  In16  1  0.67577332  0.81274301  0.13257145  1
  In  In17  1  0.65572618  0.82936550  0.62036647  1
  In  In18  1  0.14897550  0.00243654  0.36730179  1
  In  In19  1  0.17297966  0.01249404  0.86408610  1
  In  In20  1  0.16640317  0.34052032  0.35297359  1
  In  In21  1  0.16615752  0.32361063  0.89022179  1
  In  In22  1  0.17537595  0.67101402  0.36700848  1
  In  In23  1  0.15328314  0.66929027  0.87765858  1
  In  In24  1  0.50553731  -0.00661077  0.38371895  1
  In  In25  1  0.49558091  0.00922468  0.86736865  1
  In  In26  1  0.49729235  0.33587516  0.37632840  1
  In  In27  1  0.49523728  0.34510027  0.87452377  1
  In  In28  1  0.49645032  0.66782659  0.38064026  1
  In  In29  1  0.49990839  0.65560365  0.87228850  1
  In  In30  1  0.83957317  0.01185155  0.36917939  1
  In  In31  1  0.82912330  -0.01063755  0.87705821  1
  In  In32  1  0.83018613  0.34825271  0.37272582  1
  In  In33  1  0.83863236  0.33362638  0.88214183  1
  In  In34  1  0.82192716  0.64674506  0.35640276  1
  In  In35  1  0.84545077  0.67207907  0.87043087  1
  In  In36  1  0.00248652  0.16290516  0.36674082  1
  In  In37  1  0.01144080  0.17386131  0.87933244  1
  In  In38  1  -0.00972489  0.49536974  0.35228633  1
  In  In39  1  -0.00438914  0.51057565  0.88220388  1
  In  In40  1  -0.00031601  0.83943810  0.37130628  1
  In  In41  1  -0.00639752  0.83020868  0.86891113  1
  In  In42  1  0.32850672  0.18237485  0.37147744  1
  In  In43  1  0.31702890  0.15452308  0.86083200  1
  In  In44  1  0.33199217  0.51360176  0.36624524  1
  In  In45  1  0.32649415  0.48641521  0.87386880  1
  In  In46  1  0.33853532  0.82959808  0.38480344  1
  In  In47  1  0.31959806  0.83564144  0.87139321  1
  In  In48  1  0.66494565  0.17353536  0.37320921  1
  In  In49  1  0.67030387  0.17038401  0.87834997  1
  In  In50  1  0.66129752  0.49921524  0.37394859  1
  In  In51  1  0.65880523  0.50139574  0.87646851  1
  In  In52  1  0.65669241  0.82266117  0.37131756  1
  In  In53  1  0.68121926  0.83076420  0.87698435  1
  In  In54  1  0.16739536  -0.00399674  0.11766284  1
  In  In55  1  0.16967416  -0.00223266  0.62836740  1
  In  In56  1  0.17039854  0.32018530  0.12493045  1
  In  In57  1  0.17410759  0.34984727  0.62608212  1
  In  In58  1  0.17443965  0.64698258  0.14734856  1
  In  In59  1  0.14431246  0.66180201  0.62229370  1
  In  In60  1  0.51005860  0.01086686  0.12561929  1
  In  In61  1  0.49136336  -0.00521196  0.61574998  1
  In  In62  1  0.51353091  0.32706549  0.13453041  1
  In  In63  1  0.49302525  0.32725020  0.61478327  1
  In  In64  1  0.50935788  0.64594474  0.13482544  1
  In  In65  1  0.50817415  0.67208219  0.61821598  1
  In  In66  1  0.84008866  -0.02140066  0.12332365  1
  In  In67  1  0.83244858  0.01032334  0.62198319  1
  In  In68  1  0.86951339  0.30298876  0.20404737  1
  In  In69  1  0.83762633  0.33175782  0.60959065  1
  In  In70  1  0.83546820  0.67017137  0.12937944  1
  In  In71  1  0.84360322  0.65928810  0.62877914  1
  In  In72  1  0.84818674  0.16182156  0.02733087  1
  In  In73  1  0.33995336  0.00072341  0.24694070  1
  In  In74  1  0.15984122  0.50238842  0.49525794  1
  In  In75  1  0.16095983  0.17093356  0.48684559  1
  In  In76  1  0.33109937  0.67066918  0.74826888  1
  In  In77  1  0.83477771  0.50306132  0.01657055  1
  In  In78  1  0.00515498  0.34228080  0.75015418  1
  In  In79  1  0.49780345  0.83080104  -0.00461147  1
  In  In80  1  0.66147929  0.33664585  0.74690691  1
  In  In81  1  0.66283321  -0.00244813  0.73753562  1
  In  In82  1  0.16112271  0.83510509  -0.00507716  1
  In  In83  1  0.49764892  0.17306204  0.00135790  1
  In  In84  1  0.50462677  0.49675624  0.00423490  1
  In  In85  1  0.83317060  0.83317142  0.49317256  1
  Cu  Cu86  1  0.32946856  0.65585653  0.01244547  1
  Cu  Cu87  1  0.33145176  0.66602599  0.49781853  1
  Cu  Cu88  1  0.33237689  0.33259136  0.00054669  1
  Cu  Cu89  1  0.66587596  0.33455593  0.49226325  1
  Cu  Cu90  1  0.50171118  0.50475017  0.74926321  1
  Cu  Cu91  1  0.49272107  0.82998000  0.25600112  1
  Cu  Cu92  1  0.15861378  0.83556462  0.74851955  1
  Cu  Cu93  1  -0.00886551  0.66242889  0.49447459  1
  Cu  Cu94  1  0.66678832  0.66497383  0.49363448  1
  Cu  Cu95  1  0.83768410  0.82853762  0.75186055  1
  Cu  Cu96  1  0.49271811  0.50318429  0.25768067  1
  Cu  Cu97  1  -0.00147953  0.00376698  0.49107142  1
  Cu  Cu98  1  0.50584977  0.16675518  0.25325071  1
  Cu  Cu99  1  0.67290099  0.32066877  0.01329249  1
  Cu  Cu100  1  0.83105719  0.50508982  0.74822479  1
  Cu  Cu101  1  0.83251390  0.84197913  0.25321250  1
  Cu  Cu102  1  0.49979057  0.83709235  0.74100698  1
  Cu  Cu103  1  0.48916706  0.17252602  0.74469601  1
  Cu  Cu104  1  -0.00130069  0.00228079  0.00024332  1
  Cu  Cu105  1  0.67111790  -0.00375238  0.00483962  1
  Cu  Cu106  1  0.67287113  0.00718944  0.49687377  1
  Cu  Cu107  1  0.00497110  0.67138132  0.00149658  1
  Cu  Cu108  1  -0.00014740  0.33541476  0.02407308  1
  Cu  Cu109  1  0.32875484  0.00218893  0.50237649  1
  Cu  Cu110  1  0.16748445  0.84052944  0.24650775  1
  Cu  Cu111  1  0.67746733  0.66298995  0.00512120  1
  Cu  Cu112  1  0.83360023  0.16499235  0.74549769  1
  Cu  Cu113  1  0.33087457  0.33625504  0.49567558  1
  Cu  Cu114  1  0.16518718  0.17510941  0.75087005  1
  Se  Se115  1  0.08336309  0.08199132  0.05280719  1
  Se  Se116  1  0.08032419  0.07998124  0.55435931  1
  Se  Se117  1  0.08241084  0.42157029  0.07490498  1
  Se  Se118  1  0.07457095  0.40696396  0.55479080  1
  Se  Se119  1  0.09158039  0.74286646  0.06402199  1
  Se  Se120  1  0.07417480  0.74561584  0.54848054  1
  Se  Se121  1  0.41229149  0.07215440  0.05398699  1
  Se  Se122  1  0.41249340  0.08739214  0.55293877  1
  Se  Se123  1  0.41814938  0.40378981  0.06165587  1
  Se  Se124  1  0.41206945  0.41845617  0.55116037  1
  Se  Se125  1  0.41777071  0.73726386  0.06172087  1
  Se  Se126  1  0.41430470  0.74782066  0.55447351  1
  Se  Se127  1  0.74147280  0.07589496  0.06933072  1
  Se  Se128  1  0.75781493  0.08893648  0.54831404  1
  Se  Se129  1  0.74662716  0.40896504  0.06843781  1
  Se  Se130  1  0.74965623  0.41512125  0.54825320  1
  Se  Se131  1  0.75782062  0.75101438  0.05338587  1
  Se  Se132  1  0.74760877  0.74332099  0.55670173  1
  Se  Se133  1  0.25201293  0.24361409  0.04978048  1
  Se  Se134  1  0.24872526  0.25623627  0.55458915  1
  Se  Se135  1  0.24727099  0.57584072  0.06649794  1
  Se  Se136  1  0.25109192  0.58825753  0.55998825  1
  Se  Se137  1  0.26215982  0.92089069  0.04828272  1
  Se  Se138  1  0.24591975  0.91855847  0.55474453  1
  Se  Se139  1  0.59396661  0.23743218  0.06798112  1
  Se  Se140  1  0.58411574  0.25244000  0.54879318  1
  Se  Se141  1  0.59921338  0.57932888  0.06126860  1
  Se  Se142  1  0.58594174  0.58349698  0.55165047  1
  Se  Se143  1  0.58871787  0.91284686  0.06066347  1
  Se  Se144  1  0.59104217  0.92502903  0.55303248  1
  Se  Se145  1  0.91707038  0.26474083  0.08642684  1
  Se  Se146  1  0.92325648  0.24710758  0.54933512  1
  Se  Se147  1  0.93114281  0.59210908  0.06538533  1
  Se  Se148  1  0.91144349  0.58025175  0.55042745  1
  Se  Se149  1  0.92262358  0.90984773  0.04822827  1
  Se  Se150  1  0.92139570  0.92331883  0.55482793  1
  Se  Se151  1  0.07850108  0.26616111  0.42857774  1
  Se  Se152  1  0.07262876  0.25407267  0.95906363  1
  Se  Se153  1  0.07518137  0.58964670  0.43198614  1
  Se  Se154  1  0.08527249  0.58304888  0.95138347  1
  Se  Se155  1  0.08246450  0.91843756  0.44309854  1
  Se  Se156  1  0.07662356  0.92733658  0.93382026  1
  Se  Se157  1  0.41357373  0.25061546  0.44497787  1
  Se  Se158  1  0.40889542  0.25485148  0.93548466  1
  Se  Se159  1  0.41079346  0.58060812  0.44508534  1
  Se  Se160  1  0.40853707  0.58401356  0.94486237  1
  Se  Se161  1  0.41554822  0.91847882  0.45153749  1
  Se  Se162  1  0.41049927  0.92276133  0.93580140  1
  Se  Se163  1  0.75185777  0.25649377  0.43868553  1
  Se  Se164  1  0.75605395  0.24648684  0.95166662  1
  Se  Se165  1  0.74955611  0.58334463  0.44022369  1
  Se  Se166  1  0.75171758  0.58314406  0.94001889  1
  Se  Se167  1  0.74503499  0.92437734  0.43391570  1
  Se  Se168  1  0.75202125  0.91314556  0.95119379  1
  Se  Se169  1  0.25379408  0.07557451  0.43422173  1
  Se  Se170  1  0.24253817  0.09066981  0.94066333  1
  Se  Se171  1  0.24920757  0.41267600  0.43480391  1
  Se  Se172  1  0.24822369  0.41830335  0.95125736  1
  Se  Se173  1  0.24619399  0.74770386  0.44633518  1
  Se  Se174  1  0.25938889  0.73748858  0.94527460  1
  Se  Se175  1  0.58668156  0.08735875  0.44390714  1
  Se  Se176  1  0.59217714  0.07313079  0.94214462  1
  Se  Se177  1  0.57952404  0.41924922  0.44489750  1
  Se  Se178  1  0.59817910  0.39895214  0.94763092  1
  Se  Se179  1  0.58033716  0.75224693  0.44935128  1
  Se  Se180  1  0.59264808  0.73537807  0.94175006  1
  Se  Se181  1  0.91888313  0.09097649  0.44139607  1
  Se  Se182  1  0.91562413  0.08425767  0.94211319  1
  Se  Se183  1  0.92334464  0.42865405  0.43438913  1
  Se  Se184  1  0.92643276  0.40851033  0.95311877  1
  Se  Se185  1  0.91382769  0.74056764  0.43114274  1
  Se  Se186  1  0.92145718  0.75009163  0.94498134  1
  Se  Se187  1  0.24220531  0.24134381  0.29691300  1
  Se  Se188  1  0.24255608  0.25945565  0.80741579  1
  Se  Se189  1  0.23723386  0.57625918  0.29711644  1
  Se  Se190  1  0.24517852  0.58455274  0.81236471  1
  Se  Se191  1  0.25036680  0.91492664  0.31007520  1
  Se  Se192  1  0.24643973  0.91666440  0.79900552  1
  Se  Se193  1  0.58203205  0.25699789  0.30563007  1
  Se  Se194  1  0.57355034  0.24250785  0.80862548  1
  Se  Se195  1  0.57662601  0.58680697  0.30973827  1
  Se  Se196  1  0.58758974  0.58368421  0.80221259  1
  Se  Se197  1  0.57677677  0.91384077  0.30716403  1
  Se  Se198  1  0.58107047  0.91022623  0.80786947  1
  Se  Se199  1  0.90781123  0.25359698  0.30525056  1
  Se  Se200  1  0.90992628  0.24732776  0.80708165  1
  Se  Se201  1  0.93620159  0.60720364  0.29295357  1
  Se  Se202  1  0.91917624  0.58005105  0.80361249  1
  Se  Se203  1  0.91875598  0.92423223  0.30327405  1
  Se  Se204  1  0.91262213  0.91978916  0.80379628  1
  Se  Se205  1  0.08150911  0.08606670  0.29486768  1
  Se  Se206  1  0.07903977  0.09302620  0.80280583  1
  Se  Se207  1  0.08436127  0.42465104  0.28519218  1
  Se  Se208  1  0.08662011  0.42037074  0.82131636  1
  Se  Se209  1  0.08898393  0.76073165  0.30570814  1
  Se  Se210  1  0.08115647  0.74929767  0.80311278  1
  Se  Se211  1  0.42385780  0.08759054  0.31334231  1
  Se  Se212  1  0.41252198  0.08216445  0.79594035  1
  Se  Se213  1  0.41168772  0.41625427  0.30783757  1
  Se  Se214  1  0.41813709  0.42178561  0.80151932  1
  Se  Se215  1  0.41124285  0.74880695  0.31056339  1
  Se  Se216  1  0.42496454  0.75977312  0.80909732  1
  Se  Se217  1  0.74675327  0.08767272  0.30425657  1
  Se  Se218  1  0.74981923  0.08726676  0.80484059  1
  Se  Se219  1  0.75233433  0.43193832  0.30162792  1
  Se  Se220  1  0.75775468  0.42075756  0.81015575  1
  Se  Se221  1  0.75042265  0.75470035  0.30352281  1
  Se  Se222  1  0.75222078  0.74761691  0.80432816  1
  Se  Se223  1  0.25092053  0.08549553  0.18519296  1
  Se  Se224  1  0.24454225  0.09096295  0.69351142  1
  Se  Se225  1  0.27338306  0.37907667  0.19183899  1
  Se  Se226  1  0.24585284  0.42361839  0.70209233  1
  Se  Se227  1  0.25211896  0.75262385  0.19924697  1
  Se  Se228  1  0.23843486  0.75514978  0.68668309  1
  Se  Se229  1  0.58600094  0.07914953  0.20328248  1
  Se  Se230  1  0.57430828  0.09548969  0.68538737  1
  Se  Se231  1  0.57631668  0.43279463  0.19485211  1
  Se  Se232  1  0.57653230  0.42484703  0.68480218  1
  Se  Se233  1  0.57354330  0.75006334  0.19657170  1
  Se  Se234  1  0.58357130  0.74935446  0.69532584  1
  Se  Se235  1  0.89451824  0.08792710  0.18748514  1
  Se  Se236  1  0.91659729  0.07919349  0.69707117  1
  Se  Se237  1  0.88512932  0.44665566  0.18374644  1
  Se  Se238  1  0.90677627  0.42050143  0.68851445  1
  Se  Se239  1  0.91337213  0.76416085  0.19368876  1
  Se  Se240  1  0.92045037  0.74972416  0.69369955  1
  Se  Se241  1  0.07687174  0.25062808  0.19435681  1
  Se  Se242  1  0.08671990  0.24885146  0.68575190  1
  Se  Se243  1  0.05131716  0.60942016  0.19945682  1
  Se  Se244  1  0.08558672  0.57088069  0.69460206  1
  Se  Se245  1  0.08696230  0.92240779  0.19141589  1
  Se  Se246  1  0.07860502  0.91935028  0.69329818  1
  Se  Se247  1  0.42273252  0.24396605  0.19615580  1
  Se  Se248  1  0.41135084  0.25917979  0.69175736  1
  Se  Se249  1  0.40917671  0.58185607  0.19935564  1
  Se  Se250  1  0.42071044  0.58182841  0.68747459  1
  Se  Se251  1  0.42466563  0.90744779  0.18509249  1
  Se  Se252  1  0.41448372  0.91887994  0.69139476  1
  Se  Se253  1  0.73060876  0.26837223  0.18068337  1
  Se  Se254  1  0.75460772  0.24775274  0.68874359  1
  Se  Se255  1  0.72716659  0.61162266  0.19020620  1
  Se  Se256  1  0.74802083  0.58515450  0.69371971  1
  Se  Se257  1  0.74576709  0.91381246  0.19422694  1
  Se  Se258  1  0.75954546  0.90465478  0.68616811  1
