# generated using pymatgen
data_In86Cu29Se144
_symmetry_space_group_name_H-M   'P 1'
_cell_length_a   17.57291239
_cell_length_b   17.58104267
_cell_length_c   23.44122837
_cell_angle_alpha   89.95228495
_cell_angle_beta   89.99557061
_cell_angle_gamma   90.00086913
_symmetry_Int_Tables_number   1
_chemical_formula_structural   In86Cu29Se144
_chemical_formula_sum   'In86 Cu29 Se144'
_cell_volume   7242.16784045
_cell_formula_units_Z   1
loop_
 _symmetry_equiv_pos_site_id
 _symmetry_equiv_pos_as_xyz
  1  'x, y, z'
loop_
 _atom_site_type_symbol
 _atom_site_label
 _atom_site_symmetry_multiplicity
 _atom_site_fract_x
 _atom_site_fract_y
 _atom_site_fract_z
 _atom_site_occupancy
  In  In0  1  -0.00232306  0.16713222  0.12189520  1
  In  In1  1  0.00143182  0.16973706  0.63134511  1
  In  In2  1  -0.00821715  0.48937292  0.10936745  1
  In  In3  1  -0.00805986  0.50563873  0.63322667  1
  In  In4  1  0.01209826  0.83859433  0.12284874  1
  In  In5  1  -0.01676256  0.82291267  0.62644727  1
  In  In6  1  0.32726114  0.15656339  0.11833658  1
  In  In7  1  0.34070718  0.15492840  0.63296282  1
  In  In8  1  0.33278762  0.49880619  0.10894300  1
  In  In9  1  0.35022874  0.50986616  0.63289683  1
  In  In10  1  0.34985745  0.83941104  0.12147700  1
  In  In11  1  0.35988634  0.81372164  0.63753996  1
  In  In12  1  0.66833366  0.16743808  0.12063856  1
  In  In13  1  0.65362700  0.17801675  0.63123081  1
  In  In14  1  0.66082648  0.49383015  0.11307638  1
  In  In15  1  0.67026030  0.48661774  0.63711207  1
  In  In16  1  0.66324120  0.84627781  0.12461056  1
  In  In17  1  0.67050703  0.83719550  0.63228764  1
  In  In18  1  0.17151310  0.01134179  0.36106134  1
  In  In19  1  0.17541234  -0.00308667  0.87774991  1
  In  In20  1  0.16137539  0.33184254  0.37477989  1
  In  In21  1  0.15901726  0.34162251  0.88301124  1
  In  In22  1  0.17289234  0.66811149  0.37925637  1
  In  In23  1  0.15652477  0.65628415  0.86251838  1
  In  In24  1  0.50178938  -0.00277840  0.37549087  1
  In  In25  1  0.49780203  0.00297223  0.87704959  1
  In  In26  1  0.49339837  0.31505430  0.37483066  1
  In  In27  1  0.50748297  0.32955153  0.87748752  1
  In  In28  1  0.51538069  0.67457572  0.38845806  1
  In  In29  1  0.50229313  0.66889808  0.87025927  1
  In  In30  1  0.82400672  0.00042277  0.36855006  1
  In  In31  1  0.83014983  0.01353399  0.87615999  1
  In  In32  1  0.82476894  0.35346653  0.38383045  1
  In  In33  1  0.83367598  0.33013761  0.87130272  1
  In  In34  1  0.81165710  0.67417015  0.40259991  1
  In  In35  1  0.79852259  0.64992053  0.84682270  1
  In  In36  1  0.00363140  0.16647441  0.37261409  1
  In  In37  1  -0.01287589  0.17581026  0.88377300  1
  In  In38  1  -0.02319739  0.49413807  0.37766955  1
  In  In39  1  -0.00231368  0.49494625  0.87116287  1
  In  In40  1  -0.01431740  0.83544972  0.37916543  1
  In  In41  1  0.00035162  0.82455133  0.86970298  1
  In  In42  1  0.34562111  0.16269053  0.37497942  1
  In  In43  1  0.34088117  0.15825094  0.88485248  1
  In  In44  1  0.34392751  0.49912205  0.37409497  1
  In  In45  1  0.33071738  0.50414578  0.87691805  1
  In  In46  1  0.33245657  0.84568663  0.37886209  1
  In  In47  1  0.34014312  0.84757317  0.86601022  1
  In  In48  1  0.66043580  0.15801223  0.37012452  1
  In  In49  1  0.66466669  0.16671926  0.87323844  1
  In  In50  1  0.67264274  0.50259208  0.37744216  1
  In  In51  1  0.66786193  0.49889505  0.87263063  1
  In  In52  1  0.65817560  0.84338564  0.39082478  1
  In  In53  1  0.65664614  0.81851057  0.85769465  1
  In  In54  1  0.16074215  0.01570886  0.13859021  1
  In  In55  1  0.17309577  0.01314717  0.62808788  1
  In  In56  1  0.16486379  0.32967516  0.11410270  1
  In  In57  1  0.15621125  0.32781934  0.63115404  1
  In  In58  1  0.17348884  0.66669627  0.11536573  1
  In  In59  1  0.17619544  0.66021106  0.63482987  1
  In  In60  1  0.50178868  -0.00064657  0.12246664  1
  In  In61  1  0.50614778  -0.00108202  0.62728100  1
  In  In62  1  0.51264807  0.34069164  0.11540240  1
  In  In63  1  0.53847345  0.33982994  0.61925162  1
  In  In64  1  0.49994279  0.66559888  0.10964250  1
  In  In65  1  0.49668114  0.66996682  0.63265163  1
  In  In66  1  0.82011339  0.00985400  0.13135319  1
  In  In67  1  0.82145087  -0.03004027  0.62281089  1
  In  In68  1  0.82440196  0.32663518  0.11767227  1
  In  In69  1  0.82573040  0.33914675  0.62925804  1
  In  In70  1  0.84174847  0.66181617  0.11839737  1
  In  In71  1  0.83349759  0.66980702  0.63324357  1
  In  In72  1  0.17042663  0.83100597  -0.00388579  1
  In  In73  1  0.32944951  0.31608303  0.24348221  1
  In  In74  1  0.82581470  0.17167255  0.50611403  1
  In  In75  1  -0.00200680  0.66904676  0.24958070  1
  In  In76  1  -0.00095090  0.00184177  0.74534866  1
  In  In77  1  0.50468051  0.50366783  0.50603488  1
  In  In78  1  0.17145212  0.83687549  0.50298156  1
  In  In79  1  0.34115241  0.33289092  0.75880652  1
  In  In80  1  0.16518135  0.50484834  0.51448854  1
  In  In81  1  0.82912557  0.83098986  -0.00656172  1
  In  In82  1  0.66754848  0.67206014  0.25918746  1
  In  In83  1  -0.00668115  0.32484374  0.24338457  1
  In  In84  1  0.33575199  0.67047982  0.24943759  1
  In  In85  1  0.16730987  0.16881295  0.49063311  1
  Cu  Cu86  1  0.33344503  -0.00112869  0.00039364  1
  Cu  Cu87  1  0.83115418  0.16962424  0.24660471  1
  Cu  Cu88  1  0.15923641  0.49806461  0.24237237  1
  Cu  Cu89  1  0.82328616  0.50371440  0.25305468  1
  Cu  Cu90  1  0.16583910  0.84456065  0.25008110  1
  Cu  Cu91  1  0.66704657  0.66513545  -0.01206319  1
  Cu  Cu92  1  0.83595109  0.49432845  0.75209064  1
  Cu  Cu93  1  -0.00656619  0.65137339  -0.01302721  1
  Cu  Cu94  1  0.33276544  0.66729021  -0.00846305  1
  Cu  Cu95  1  0.34104128  0.33192961  -0.00473575  1
  Cu  Cu96  1  0.66177105  0.00065372  -0.00258097  1
  Cu  Cu97  1  0.16773308  0.83550145  0.74944819  1
  Cu  Cu98  1  0.50448095  0.83796295  0.25174310  1
  Cu  Cu99  1  0.50437286  0.49344207  0.24074807  1
  Cu  Cu100  1  0.16743704  0.49366871  0.75336379  1
  Cu  Cu101  1  0.82975701  0.16606781  0.74997097  1
  Cu  Cu102  1  0.34820702  -0.00788592  0.50559020  1
  Cu  Cu103  1  0.32852498  0.33394969  0.50468290  1
  Cu  Cu104  1  0.66302961  -0.00011240  0.49955101  1
  Cu  Cu105  1  0.16483765  0.16731638  0.75731310  1
  Cu  Cu106  1  0.49946189  0.84020366  0.75082951  1
  Cu  Cu107  1  -0.00267250  0.66092269  0.50826655  1
  Cu  Cu108  1  0.50558297  0.15877367  0.24688296  1
  Cu  Cu109  1  -0.00362151  0.00437394  0.00511387  1
  Cu  Cu110  1  -0.00177837  -0.00227322  0.49689789  1
  Cu  Cu111  1  0.67299423  0.33393734  -0.00695962  1
  Cu  Cu112  1  0.00252799  0.33395630  -0.00396928  1
  Cu  Cu113  1  0.83416025  0.84525920  0.25349092  1
  Cu  Cu114  1  0.49888478  0.16649819  0.75319449  1
  Se  Se115  1  0.08543678  0.08217626  0.05705852  1
  Se  Se116  1  0.07536443  0.07991954  0.55547062  1
  Se  Se117  1  0.08961294  0.41924351  0.04644124  1
  Se  Se118  1  0.07147123  0.40931240  0.56202501  1
  Se  Se119  1  0.06942736  0.73702680  0.04860317  1
  Se  Se120  1  0.08494788  0.74046497  0.56196940  1
  Se  Se121  1  0.41976120  0.08179371  0.05210219  1
  Se  Se122  1  0.42208639  0.08422382  0.55776645  1
  Se  Se123  1  0.42407721  0.41874999  0.04707853  1
  Se  Se124  1  0.41291017  0.40835045  0.56347898  1
  Se  Se125  1  0.41333623  0.75125429  0.04698538  1
  Se  Se126  1  0.42692269  0.74960235  0.55441153  1
  Se  Se127  1  0.74931385  0.08086694  0.05062070  1
  Se  Se128  1  0.74179106  0.07510536  0.56523774  1
  Se  Se129  1  0.75495522  0.41889606  0.04804307  1
  Se  Se130  1  0.72657590  0.39704432  0.55967519  1
  Se  Se131  1  0.73903053  0.74219576  0.05890447  1
  Se  Se132  1  0.77042900  0.77053658  0.56709740  1
  Se  Se133  1  0.25617739  0.25066166  0.05082014  1
  Se  Se134  1  0.25106966  0.24934277  0.56340077  1
  Se  Se135  1  0.24763558  0.58413083  0.04375989  1
  Se  Se136  1  0.26795648  0.59457619  0.55887736  1
  Se  Se137  1  0.24952581  0.92176885  0.06237854  1
  Se  Se138  1  0.26021571  0.92195143  0.56662008  1
  Se  Se139  1  0.59008039  0.25111918  0.04884478  1
  Se  Se140  1  0.57787359  0.23820099  0.54777951  1
  Se  Se141  1  0.58407137  0.58235126  0.04479830  1
  Se  Se142  1  0.59351792  0.58652342  0.56914512  1
  Se  Se143  1  0.58011838  0.91377472  0.04986082  1
  Se  Se144  1  0.58675301  0.91439157  0.55812314  1
  Se  Se145  1  0.91972124  0.25304724  0.05338335  1
  Se  Se146  1  0.92293066  0.25668200  0.56236214  1
  Se  Se147  1  0.90764443  0.57551427  0.04456425  1
  Se  Se148  1  0.91071303  0.58178584  0.56059676  1
  Se  Se149  1  0.91566264  0.91890562  0.06077377  1
  Se  Se150  1  0.91975205  0.91192572  0.55127420  1
  Se  Se151  1  0.06704737  0.26443355  0.44660509  1
  Se  Se152  1  0.08668493  0.24487867  0.94804830  1
  Se  Se153  1  0.07629620  0.58649087  0.44189676  1
  Se  Se154  1  0.08748003  0.57520336  0.93942545  1
  Se  Se155  1  0.08629883  0.92599555  0.43701233  1
  Se  Se156  1  0.07128612  0.92209645  0.94251548  1
  Se  Se157  1  0.40911259  0.24787558  0.45123903  1
  Se  Se158  1  0.42551240  0.24661107  0.94692841  1
  Se  Se159  1  0.41014499  0.59240275  0.44476620  1
  Se  Se160  1  0.42034906  0.58567363  0.94151716  1
  Se  Se161  1  0.42692559  0.90956440  0.44856171  1
  Se  Se162  1  0.41541245  0.91575589  0.94592652  1
  Se  Se163  1  0.73799299  0.25316654  0.43979140  1
  Se  Se164  1  0.75326287  0.24641630  0.94151331  1
  Se  Se165  1  0.74426393  0.56983486  0.45803908  1
  Se  Se166  1  0.75624758  0.58395363  0.94015727  1
  Se  Se167  1  0.75675273  0.92374533  0.44843326  1
  Se  Se168  1  0.73833358  0.91934206  0.93463156  1
  Se  Se169  1  0.26151736  0.06855995  0.44448772  1
  Se  Se170  1  0.24619141  0.08203560  0.95068442  1
  Se  Se171  1  0.25317538  0.41467756  0.44257721  1
  Se  Se172  1  0.25461090  0.41632803  0.94630648  1
  Se  Se173  1  0.26408230  0.74326852  0.44691722  1
  Se  Se174  1  0.25266374  0.74575123  0.92932200  1
  Se  Se175  1  0.58155189  0.08250224  0.44519281  1
  Se  Se176  1  0.58049466  0.08744337  0.94505683  1
  Se  Se177  1  0.57711746  0.41168211  0.43574152  1
  Se  Se178  1  0.58631928  0.41885140  0.94453885  1
  Se  Se179  1  0.61438506  0.73207607  0.45478532  1
  Se  Se180  1  0.58369844  0.75462407  0.94129963  1
  Se  Se181  1  0.91746075  0.08295761  0.44272736  1
  Se  Se182  1  0.91107531  0.08502262  0.95169254  1
  Se  Se183  1  0.91177053  0.42016752  0.45662219  1
  Se  Se184  1  0.91664792  0.41278531  0.94173923  1
  Se  Se185  1  0.92018399  0.74883615  0.45271294  1
  Se  Se186  1  0.91308242  0.73774540  0.93298841  1
  Se  Se187  1  0.23911206  0.23606207  0.31181386  1
  Se  Se188  1  0.24671480  0.24573005  0.81752597  1
  Se  Se189  1  0.24175869  0.57249341  0.30503381  1
  Se  Se190  1  0.25324359  0.58007091  0.80044832  1
  Se  Se191  1  0.25757912  0.91952122  0.30190487  1
  Se  Se192  1  0.24797058  0.92382210  0.79920390  1
  Se  Se193  1  0.58067041  0.24753640  0.30195009  1
  Se  Se194  1  0.58428659  0.25134580  0.80271328  1
  Se  Se195  1  0.56927650  0.57585725  0.30900502  1
  Se  Se196  1  0.61142300  0.60807533  0.80999015  1
  Se  Se197  1  0.59002913  0.91461283  0.30817738  1
  Se  Se198  1  0.58066430  0.92452993  0.80491907  1
  Se  Se199  1  0.90185820  0.25036430  0.31396141  1
  Se  Se200  1  0.91752595  0.24594101  0.80182041  1
  Se  Se201  1  0.90049205  0.58967763  0.31169998  1
  Se  Se202  1  0.91787491  0.58283400  0.80296217  1
  Se  Se203  1  0.92218387  0.92398325  0.30558895  1
  Se  Se204  1  0.91281904  0.91839178  0.81102150  1
  Se  Se205  1  0.07746002  0.08725746  0.30033944  1
  Se  Se206  1  0.08220383  0.08597719  0.81538679  1
  Se  Se207  1  0.07976588  0.42391987  0.30618708  1
  Se  Se208  1  0.08260974  0.40965689  0.80349901  1
  Se  Se209  1  0.09166275  0.75836536  0.31052991  1
  Se  Se210  1  0.08177133  0.74997512  0.79710151  1
  Se  Se211  1  0.42117969  0.08030850  0.30346487  1
  Se  Se212  1  0.41327472  0.08458404  0.80581529  1
  Se  Se213  1  0.41915930  0.41532457  0.29977565  1
  Se  Se214  1  0.43019016  0.42830344  0.81157879  1
  Se  Se215  1  0.42789313  0.75387483  0.31284979  1
  Se  Se216  1  0.41622582  0.75325749  0.80282448  1
  Se  Se217  1  0.74726600  0.08460705  0.29838545  1
  Se  Se218  1  0.74617194  0.08298100  0.80196207  1
  Se  Se219  1  0.74285402  0.41627529  0.30373361  1
  Se  Se220  1  0.74920769  0.41295975  0.80388355  1
  Se  Se221  1  0.76053684  0.76117928  0.31665659  1
  Se  Se222  1  0.76915506  0.77505164  0.79329994  1
  Se  Se223  1  0.26288075  0.08210437  0.19966444  1
  Se  Se224  1  0.24999132  0.08619700  0.70442142  1
  Se  Se225  1  0.24653027  0.42143821  0.18629484  1
  Se  Se226  1  0.24913067  0.41796206  0.69046730  1
  Se  Se227  1  0.24222752  0.75998576  0.18911441  1
  Se  Se228  1  0.25388825  0.75097755  0.69973675  1
  Se  Se229  1  0.58916353  0.07969949  0.18997098  1
  Se  Se230  1  0.58385409  0.08376242  0.69927152  1
  Se  Se231  1  0.59285998  0.41369781  0.19208168  1
  Se  Se232  1  0.56706826  0.42613996  0.70323553  1
  Se  Se233  1  0.57508247  0.75003170  0.19007040  1
  Se  Se234  1  0.58186382  0.75541704  0.69839405  1
  Se  Se235  1  0.91566248  0.08779940  0.19344037  1
  Se  Se236  1  0.90128295  0.08357646  0.68481469  1
  Se  Se237  1  0.90630258  0.42629714  0.19078021  1
  Se  Se238  1  0.91865948  0.40992349  0.69836160  1
  Se  Se239  1  0.90797371  0.76311800  0.18931838  1
  Se  Se240  1  0.92414857  0.74209900  0.70470820  1
  Se  Se241  1  0.09625396  0.24310492  0.19162774  1
  Se  Se242  1  0.07975706  0.24822994  0.70489956  1
  Se  Se243  1  0.08258176  0.57991526  0.18213926  1
  Se  Se244  1  0.08651934  0.58002746  0.69870578  1
  Se  Se245  1  0.07646624  0.92220088  0.19886525  1
  Se  Se246  1  0.08859247  0.91087336  0.68464274  1
  Se  Se247  1  0.43047292  0.24239231  0.18313182  1
  Se  Se248  1  0.42713282  0.25194339  0.68970610  1
  Se  Se249  1  0.42099888  0.57690850  0.18567619  1
  Se  Se250  1  0.41529239  0.59350220  0.70647039  1
  Se  Se251  1  0.42026611  0.91875169  0.19720642  1
  Se  Se252  1  0.41484309  0.92461798  0.69770403  1
  Se  Se253  1  0.74797574  0.25183617  0.19308414  1
  Se  Se254  1  0.74700391  0.25124217  0.69788591  1
  Se  Se255  1  0.74955470  0.58520991  0.18855250  1
  Se  Se256  1  0.75316753  0.57800794  0.69837342  1
  Se  Se257  1  0.74446228  0.91847905  0.19883055  1
  Se  Se258  1  0.75187325  0.91286476  0.70890253  1
