# generated using pymatgen
data_In86Cu29Se144
_symmetry_space_group_name_H-M   'P 1'
_cell_length_a   17.59119577
_cell_length_b   17.58810459
_cell_length_c   23.45947019
_cell_angle_alpha   90.01084516
_cell_angle_beta   90.00772142
_cell_angle_gamma   90.02374110
_symmetry_Int_Tables_number   1
_chemical_formula_structural   In86Cu29Se144
_chemical_formula_sum   'In86 Cu29 Se144'
_cell_volume   7258.26051363
_cell_formula_units_Z   1
loop_
 _symmetry_equiv_pos_site_id
 _symmetry_equiv_pos_as_xyz
  1  'x, y, z'
loop_
 _atom_site_type_symbol
 _atom_site_label
 _atom_site_symmetry_multiplicity
 _atom_site_fract_x
 _atom_site_fract_y
 _atom_site_fract_z
 _atom_site_occupancy
  In  In0  1  -0.00393668  0.17699010  0.12475310  1
  In  In1  1  -0.01259582  0.15401510  0.62385964  1
  In  In2  1  -0.00484534  0.50085181  0.11701548  1
  In  In3  1  0.00318104  0.51888675  0.61346869  1
  In  In4  1  -0.00414081  0.82597891  0.11430738  1
  In  In5  1  0.01339244  0.82135269  0.64164009  1
  In  In6  1  0.33752451  0.15357096  0.12357726  1
  In  In7  1  0.32085948  0.16482113  0.62431328  1
  In  In8  1  0.34638616  0.51358587  0.11592856  1
  In  In9  1  0.32937756  0.51436249  0.62555946  1
  In  In10  1  0.32828067  0.82232690  0.11446653  1
  In  In11  1  0.34043244  0.84174844  0.62313961  1
  In  In12  1  0.66288747  0.15768575  0.11623320  1
  In  In13  1  0.67158683  0.15049381  0.61899093  1
  In  In14  1  0.68248399  0.51996822  0.11861629  1
  In  In15  1  0.68036347  0.49956674  0.62685723  1
  In  In16  1  0.66864789  0.83706247  0.12256697  1
  In  In17  1  0.65496293  0.84276348  0.63095593  1
  In  In18  1  0.16477624  -0.00195037  0.39178483  1
  In  In19  1  0.14704284  -0.03433495  0.84790153  1
  In  In20  1  0.15552750  0.34216128  0.38796050  1
  In  In21  1  0.17233787  0.33994540  0.87564445  1
  In  In22  1  0.17208252  0.66022160  0.38237068  1
  In  In23  1  0.15308192  0.68125925  0.87736595  1
  In  In24  1  0.50153927  -0.01804344  0.37418197  1
  In  In25  1  0.50162576  -0.00383134  0.87411124  1
  In  In26  1  0.50476395  0.33888656  0.37028974  1
  In  In27  1  0.49719944  0.33485093  0.88350794  1
  In  In28  1  0.50809241  0.68013465  0.36553472  1
  In  In29  1  0.51715257  0.65477354  0.88056150  1
  In  In30  1  0.83386809  0.00284353  0.37518783  1
  In  In31  1  0.83184836  -0.00276810  0.87461637  1
  In  In32  1  0.82727031  0.33308651  0.38493457  1
  In  In33  1  0.82842280  0.33848762  0.88292058  1
  In  In34  1  0.81770699  0.66927365  0.37414216  1
  In  In35  1  0.83334311  0.66890398  0.87539128  1
  In  In36  1  -0.00752326  0.17011317  0.38974749  1
  In  In37  1  0.00069765  0.15079503  0.87325650  1
  In  In38  1  -0.00178191  0.51059156  0.38520209  1
  In  In39  1  -0.01073695  0.51080432  0.88076008  1
  In  In40  1  -0.00200745  0.83866931  0.38282545  1
  In  In41  1  -0.00125612  0.82693380  0.87171247  1
  In  In42  1  0.33447667  0.15314530  0.38140052  1
  In  In43  1  0.34587269  0.15369444  0.87896213  1
  In  In44  1  0.31994474  0.50797373  0.37569790  1
  In  In45  1  0.33563458  0.49812157  0.88241825  1
  In  In46  1  0.34027965  0.82620692  0.37868952  1
  In  In47  1  0.32602390  0.84126384  0.87864149  1
  In  In48  1  0.68469883  0.15820302  0.37964924  1
  In  In49  1  0.67474241  0.15996728  0.88004644  1
  In  In50  1  0.66313564  0.50840747  0.37504071  1
  In  In51  1  0.65877515  0.51391243  0.88054784  1
  In  In52  1  0.66511781  0.82300723  0.36771041  1
  In  In53  1  0.66844274  0.83155863  0.87608005  1
  In  In54  1  0.17575210  -0.00523902  0.12227994  1
  In  In55  1  0.16443113  -0.00613898  0.62987025  1
  In  In56  1  0.15224130  0.34211465  0.12707455  1
  In  In57  1  0.16630129  0.33692892  0.62047196  1
  In  In58  1  0.17495754  0.67488214  0.11807634  1
  In  In59  1  0.16068316  0.66739491  0.61855965  1
  In  In60  1  0.50931153  0.00858836  0.11171783  1
  In  In61  1  0.51732079  -0.01435227  0.63702067  1
  In  In62  1  0.50726901  0.33742209  0.11638589  1
  In  In63  1  0.51056588  0.33055561  0.62643438  1
  In  In64  1  0.50367282  0.67120534  0.11958962  1
  In  In65  1  0.49152201  0.68213943  0.62944378  1
  In  In66  1  0.81284581  -0.02038510  0.10736987  1
  In  In67  1  0.82372792  0.00184051  0.63129937  1
  In  In68  1  0.83610408  0.33663204  0.11726253  1
  In  In69  1  0.83198241  0.34155028  0.61477041  1
  In  In70  1  0.82269085  0.66455884  0.12404498  1
  In  In71  1  0.83723461  0.66326991  0.62905665  1
  In  In72  1  -0.00630830  0.33935622  0.25258085  1
  In  In73  1  0.83697979  0.82873648  0.50208813  1
  In  In74  1  0.33538661  0.32867186  0.76131779  1
  In  In75  1  0.66899124  0.33444587  0.74734564  1
  In  In76  1  0.50134548  0.16076427  0.50158994  1
  In  In77  1  -0.00806597  0.66851278  0.24999031  1
  In  In78  1  0.33869210  -0.01321941  0.24936060  1
  In  In79  1  0.50258092  0.50206777  0.49712364  1
  In  In80  1  -0.00258083  0.33187368  0.74291992  1
  In  In81  1  0.33480230  0.33771084  0.25099814  1
  In  In82  1  0.66765369  0.33730065  0.24952621  1
  In  In83  1  0.33155249  0.67120553  0.75385938  1
  In  In84  1  0.17093950  0.16122358  -0.00173004  1
  In  In85  1  -0.00753837  -0.00198805  0.25110629  1
  Cu  Cu86  1  0.66561517  0.33047282  0.00027293  1
  Cu  Cu87  1  0.50473185  0.83038891  0.24334607  1
  Cu  Cu88  1  0.16282851  0.50552586  0.74735635  1
  Cu  Cu89  1  0.82826859  0.15940342  0.24856516  1
  Cu  Cu90  1  0.00027799  0.66872084  -0.00217134  1
  Cu  Cu91  1  0.33140983  0.33598030  0.50095669  1
  Cu  Cu92  1  0.50447728  0.82997687  0.75635803  1
  Cu  Cu93  1  0.33753933  0.66622472  -0.00503378  1
  Cu  Cu94  1  0.50206481  0.51716756  0.24230217  1
  Cu  Cu95  1  0.50252446  0.16159547  0.75209511  1
  Cu  Cu96  1  0.83605641  0.51317667  0.75098532  1
  Cu  Cu97  1  0.83294279  0.16167131  0.75202876  1
  Cu  Cu98  1  0.16740819  0.15272824  0.74785961  1
  Cu  Cu99  1  0.32904339  0.00017233  0.50537199  1
  Cu  Cu100  1  0.33138473  0.67322697  0.50248803  1
  Cu  Cu101  1  0.33267778  -0.00490620  -0.00397061  1
  Cu  Cu102  1  0.65933605  0.67231282  0.49775466  1
  Cu  Cu103  1  -0.00125495  -0.00232842  -0.00927735  1
  Cu  Cu104  1  0.50939720  0.16065764  0.24197320  1
  Cu  Cu105  1  0.67082756  0.67060470  -0.00035971  1
  Cu  Cu106  1  -0.00096413  0.33703489  0.00000412  1
  Cu  Cu107  1  0.00462616  0.33216603  0.50617366  1
  Cu  Cu108  1  0.17164790  0.51217301  0.24997211  1
  Cu  Cu109  1  0.83001250  0.83208529  0.75317162  1
  Cu  Cu110  1  0.00091341  -0.00511129  0.50920518  1
  Cu  Cu111  1  0.16600100  0.82906990  0.24857959  1
  Cu  Cu112  1  0.16888156  0.16481332  0.26537959  1
  Cu  Cu113  1  0.32881340  0.33564951  0.00114201  1
  Cu  Cu114  1  0.66545421  -0.00106498  -0.00608538  1
  Se  Se115  1  0.07443915  0.07485830  0.05927080  1
  Se  Se116  1  0.08438981  0.08126719  0.56018778  1
  Se  Se117  1  0.08426497  0.42123023  0.05030463  1
  Se  Se118  1  0.08533333  0.42242641  0.55473319  1
  Se  Se119  1  0.08801950  0.75194791  0.04894409  1
  Se  Se120  1  0.07173382  0.75056422  0.55618452  1
  Se  Se121  1  0.41414379  0.08439788  0.04644351  1
  Se  Se122  1  0.41478075  0.07487769  0.56600437  1
  Se  Se123  1  0.41790325  0.41688437  0.05168779  1
  Se  Se124  1  0.41251416  0.41228216  0.56231303  1
  Se  Se125  1  0.42112049  0.75115901  0.04732376  1
  Se  Se126  1  0.41867943  0.75606641  0.55178541  1
  Se  Se127  1  0.75117553  0.08524239  0.04544743  1
  Se  Se128  1  0.76039866  0.08028694  0.55052602  1
  Se  Se129  1  0.74650395  0.41697868  0.05388868  1
  Se  Se130  1  0.74363055  0.41971339  0.54934882  1
  Se  Se131  1  0.75344030  0.75491836  0.05296625  1
  Se  Se132  1  0.73937738  0.74738026  0.56269323  1
  Se  Se133  1  0.25174618  0.25605228  0.06530668  1
  Se  Se134  1  0.24925265  0.25198812  0.55375282  1
  Se  Se135  1  0.25124141  0.58523826  0.05028435  1
  Se  Se136  1  0.24916746  0.58497496  0.55151966  1
  Se  Se137  1  0.24740068  0.91332847  0.04939149  1
  Se  Se138  1  0.24623944  0.91470936  0.55676143  1
  Se  Se139  1  0.58050360  0.24507465  0.05065067  1
  Se  Se140  1  0.59502495  0.25420481  0.55554166  1
  Se  Se141  1  0.58516239  0.58500326  0.05116813  1
  Se  Se142  1  0.58338964  0.59244513  0.56271704  1
  Se  Se143  1  0.58464882  0.91406795  0.04887116  1
  Se  Se144  1  0.58373142  0.92000705  0.55394612  1
  Se  Se145  1  0.91681465  0.24970029  0.05021648  1
  Se  Se146  1  0.91850252  0.24983717  0.55686866  1
  Se  Se147  1  0.91433183  0.59010791  0.05428283  1
  Se  Se148  1  0.89433908  0.57361407  0.55288345  1
  Se  Se149  1  0.91837859  0.91454507  0.04744823  1
  Se  Se150  1  0.92036348  0.91494692  0.56922575  1
  Se  Se151  1  0.08681321  0.24539023  0.45315609  1
  Se  Se152  1  0.07763844  0.25429983  0.93953433  1
  Se  Se153  1  0.08900191  0.58188329  0.45095637  1
  Se  Se154  1  0.08452829  0.58514887  0.94511148  1
  Se  Se155  1  0.08242005  0.91036631  0.45563820  1
  Se  Se156  1  0.08398525  0.91444981  0.93980325  1
  Se  Se157  1  0.41333356  0.25971311  0.44033083  1
  Se  Se158  1  0.40960568  0.25076738  0.94727194  1
  Se  Se159  1  0.41313321  0.59479579  0.43912252  1
  Se  Se160  1  0.42282185  0.57983304  0.94715562  1
  Se  Se161  1  0.41058122  0.92024701  0.44718637  1
  Se  Se162  1  0.42027436  0.91374693  0.94534010  1
  Se  Se163  1  0.75593205  0.24137005  0.45071717  1
  Se  Se164  1  0.75138250  0.24847873  0.94833447  1
  Se  Se165  1  0.74323955  0.58651433  0.44787960  1
  Se  Se166  1  0.75384001  0.58429663  0.94697793  1
  Se  Se167  1  0.74664448  0.91320515  0.43883833  1
  Se  Se168  1  0.75207491  0.91420712  0.94544439  1
  Se  Se169  1  0.24760566  0.08808816  0.45493596  1
  Se  Se170  1  0.24628925  0.06750109  0.93383471  1
  Se  Se171  1  0.25031514  0.42224939  0.44844933  1
  Se  Se172  1  0.24574369  0.41980306  0.94954230  1
  Se  Se173  1  0.24802198  0.75502763  0.44697619  1
  Se  Se174  1  0.25053000  0.74897596  0.94448053  1
  Se  Se175  1  0.58763528  0.07214293  0.43977786  1
  Se  Se176  1  0.57999451  0.08417971  0.94385252  1
  Se  Se177  1  0.59433723  0.40550295  0.44371890  1
  Se  Se178  1  0.58642985  0.41701368  0.94623359  1
  Se  Se179  1  0.57860319  0.75660888  0.44423566  1
  Se  Se180  1  0.58461500  0.75180220  0.94739170  1
  Se  Se181  1  0.91696835  0.07315112  0.45057801  1
  Se  Se182  1  0.91260159  0.08453081  0.94529077  1
  Se  Se183  1  0.92464198  0.40986279  0.44508893  1
  Se  Se184  1  0.91407085  0.42111316  0.94859529  1
  Se  Se185  1  0.92236140  0.73490339  0.44143878  1
  Se  Se186  1  0.91563670  0.75196711  0.94533086  1
  Se  Se187  1  0.24832179  0.25064692  0.31841579  1
  Se  Se188  1  0.24025380  0.23333012  0.81270299  1
  Se  Se189  1  0.25368611  0.59570796  0.30215621  1
  Se  Se190  1  0.24309120  0.57752125  0.81291074  1
  Se  Se191  1  0.23874161  0.91316108  0.31226542  1
  Se  Se192  1  0.26509464  0.91600659  0.79581018  1
  Se  Se193  1  0.58162172  0.23944390  0.30823703  1
  Se  Se194  1  0.57878737  0.24702258  0.81090732  1
  Se  Se195  1  0.58810136  0.58918036  0.30174625  1
  Se  Se196  1  0.58935014  0.58453032  0.80039724  1
  Se  Se197  1  0.58449990  0.91309908  0.29986398  1
  Se  Se198  1  0.58851228  0.91721023  0.80577426  1
  Se  Se199  1  0.90794596  0.24011754  0.30894631  1
  Se  Se200  1  0.91018555  0.24734639  0.81032614  1
  Se  Se201  1  0.90826167  0.57493851  0.30992572  1
  Se  Se202  1  0.92273190  0.59245101  0.80395241  1
  Se  Se203  1  0.90631854  0.90222539  0.30759917  1
  Se  Se204  1  0.91451238  0.91498136  0.80581041  1
  Se  Se205  1  0.08286618  0.08457402  0.31750560  1
  Se  Se206  1  0.07529047  0.07659791  0.79735570  1
  Se  Se207  1  0.09102169  0.42926670  0.30762877  1
  Se  Se208  1  0.08402114  0.42199974  0.80722487  1
  Se  Se209  1  0.08545861  0.75482852  0.31145266  1
  Se  Se210  1  0.08840067  0.75806723  0.79906680  1
  Se  Se211  1  0.42569607  0.08725946  0.30557942  1
  Se  Se212  1  0.41763051  0.07734548  0.80205542  1
  Se  Se213  1  0.42601163  0.43527774  0.30580486  1
  Se  Se214  1  0.42770769  0.42661460  0.80837475  1
  Se  Se215  1  0.41515405  0.75563000  0.29905384  1
  Se  Se216  1  0.42540103  0.75085665  0.81791191  1
  Se  Se217  1  0.74792845  0.07513279  0.30158843  1
  Se  Se218  1  0.74745974  0.08043772  0.80475404  1
  Se  Se219  1  0.75807685  0.42325743  0.31009929  1
  Se  Se220  1  0.75755639  0.42605913  0.80789016  1
  Se  Se221  1  0.74889571  0.74574487  0.29745444  1
  Se  Se222  1  0.74724870  0.74683299  0.80561991  1
  Se  Se223  1  0.24278238  0.08812281  0.19923512  1
  Se  Se224  1  0.25630527  0.07551573  0.69649731  1
  Se  Se225  1  0.24660108  0.42713496  0.18908013  1
  Se  Se226  1  0.24776776  0.42047099  0.69606316  1
  Se  Se227  1  0.25181913  0.75177031  0.19403541  1
  Se  Se228  1  0.24751789  0.75467050  0.68712075  1
  Se  Se229  1  0.58959384  0.07546738  0.19089022  1
  Se  Se230  1  0.59127257  0.08598660  0.69800411  1
  Se  Se231  1  0.58011581  0.42815106  0.18800962  1
  Se  Se232  1  0.57585943  0.42883368  0.69398543  1
  Se  Se233  1  0.58891744  0.74802646  0.19039728  1
  Se  Se234  1  0.58462296  0.74790084  0.69967183  1
  Se  Se235  1  0.90931109  0.08552722  0.18528892  1
  Se  Se236  1  0.91580063  0.07646595  0.70075870  1
  Se  Se237  1  0.90562343  0.42830859  0.19248660  1
  Se  Se238  1  0.91017814  0.42857442  0.68869985  1
  Se  Se239  1  0.90757232  0.76138996  0.19015291  1
  Se  Se240  1  0.91283921  0.74713883  0.70073089  1
  Se  Se241  1  0.09130485  0.24211835  0.20111809  1
  Se  Se242  1  0.09236458  0.23992713  0.68951192  1
  Se  Se243  1  0.08595183  0.58261001  0.18764133  1
  Se  Se244  1  0.08179954  0.58701710  0.69265451  1
  Se  Se245  1  0.08726314  0.91095701  0.19005643  1
  Se  Se246  1  0.08040754  0.92187477  0.70345855  1
  Se  Se247  1  0.42378006  0.24423301  0.19037389  1
  Se  Se248  1  0.42316508  0.24320027  0.69275789  1
  Se  Se249  1  0.41381410  0.59601386  0.19175290  1
  Se  Se250  1  0.42407259  0.57774311  0.69675025  1
  Se  Se251  1  0.42580132  0.90979233  0.18019370  1
  Se  Se252  1  0.42116226  0.91179856  0.70079395  1
  Se  Se253  1  0.75481140  0.24512868  0.18778333  1
  Se  Se254  1  0.76001009  0.24445382  0.68865138  1
  Se  Se255  1  0.75050956  0.58678705  0.20091568  1
  Se  Se256  1  0.74574338  0.58949575  0.69896589  1
  Se  Se257  1  0.74704736  0.92222081  0.19325412  1
  Se  Se258  1  0.74585283  0.91581755  0.70035341  1
