# generated using pymatgen
data_In86Cu29Se144
_symmetry_space_group_name_H-M   'P 1'
_cell_length_a   17.58027731
_cell_length_b   17.57987988
_cell_length_c   23.43923195
_cell_angle_alpha   90.03541221
_cell_angle_beta   90.00545358
_cell_angle_gamma   90.00329284
_symmetry_Int_Tables_number   1
_chemical_formula_structural   In86Cu29Se144
_chemical_formula_sum   'In86 Cu29 Se144'
_cell_volume   7244.10798985
_cell_formula_units_Z   1
loop_
 _symmetry_equiv_pos_site_id
 _symmetry_equiv_pos_as_xyz
  1  'x, y, z'
loop_
 _atom_site_type_symbol
 _atom_site_label
 _atom_site_symmetry_multiplicity
 _atom_site_fract_x
 _atom_site_fract_y
 _atom_site_fract_z
 _atom_site_occupancy
  In  In0  1  0.00367345  0.15534513  0.12872550  1
  In  In1  1  -0.00819185  0.15654319  0.61723105  1
  In  In2  1  0.00304505  0.50466807  0.12250441  1
  In  In3  1  0.00144179  0.50203086  0.61785410  1
  In  In4  1  -0.01238845  0.83935933  0.13222722  1
  In  In5  1  0.00749965  0.83736320  0.61750288  1
  In  In6  1  0.32368632  0.17078957  0.12917255  1
  In  In7  1  0.34275153  0.17162997  0.61388269  1
  In  In8  1  0.32863856  0.51094733  0.12458578  1
  In  In9  1  0.31322568  0.51057412  0.64505734  1
  In  In10  1  0.34109017  0.82591260  0.13399220  1
  In  In11  1  0.32268293  0.83264301  0.62019732  1
  In  In12  1  0.65773022  0.16142139  0.13329210  1
  In  In13  1  0.68748852  0.19770798  0.59205987  1
  In  In14  1  0.68535983  0.51217665  0.12028019  1
  In  In15  1  0.67342562  0.48647433  0.62272071  1
  In  In16  1  0.67112360  0.82771521  0.13067284  1
  In  In17  1  0.67668410  0.82242818  0.62024695  1
  In  In18  1  0.16248480  -0.00371017  0.37300618  1
  In  In19  1  0.16985049  0.01292231  0.87483153  1
  In  In20  1  0.16258828  0.33909550  0.38808332  1
  In  In21  1  0.16714045  0.32842470  0.87302309  1
  In  In22  1  0.16949456  0.67301411  0.37590165  1
  In  In23  1  0.16580938  0.65233111  0.87455558  1
  In  In24  1  0.50256191  0.01267029  0.36319999  1
  In  In25  1  0.49392226  -0.00752918  0.87970506  1
  In  In26  1  0.50114162  0.32882634  0.38285854  1
  In  In27  1  0.50197019  0.33390778  0.86241832  1
  In  In28  1  0.49939688  0.66272535  0.36447743  1
  In  In29  1  0.49898576  0.67432311  0.87851796  1
  In  In30  1  0.83554024  -0.00285393  0.37468904  1
  In  In31  1  0.82892149  -0.01183864  0.87430045  1
  In  In32  1  0.82480683  0.33572244  0.39018729  1
  In  In33  1  0.83465087  0.34815595  0.86555768  1
  In  In34  1  0.83817742  0.66542094  0.36914843  1
  In  In35  1  0.83842334  0.66237150  0.88568521  1
  In  In36  1  0.00802587  0.16028312  0.38247124  1
  In  In37  1  0.01479336  0.16961205  0.87063310  1
  In  In38  1  -0.01034888  0.51641236  0.38081010  1
  In  In39  1  -0.00354169  0.50365148  0.88035480  1
  In  In40  1  0.00068002  0.83022651  0.37140254  1
  In  In41  1  -0.01539642  0.83032600  0.87632787  1
  In  In42  1  0.33938570  0.15468991  0.38182777  1
  In  In43  1  0.32298397  0.16137133  0.87385461  1
  In  In44  1  0.32324759  0.50637732  0.38015295  1
  In  In45  1  0.32069151  0.49207233  0.86100467  1
  In  In46  1  0.31808706  0.82271989  0.36832045  1
  In  In47  1  0.34645957  0.83690777  0.87851344  1
  In  In48  1  0.67539531  0.16172544  0.38278739  1
  In  In49  1  0.65648113  0.16870854  0.87100946  1
  In  In50  1  0.66812698  0.50762831  0.37239406  1
  In  In51  1  0.68490828  0.49693045  0.87194830  1
  In  In52  1  0.67547680  0.84207410  0.36863686  1
  In  In53  1  0.67908350  0.81167435  0.89916032  1
  In  In54  1  0.15614078  0.00635239  0.13301360  1
  In  In55  1  0.15903136  -0.01179566  0.61561405  1
  In  In56  1  0.16917206  0.33544931  0.11496324  1
  In  In57  1  0.17896723  0.34418894  0.61984193  1
  In  In58  1  0.17441987  0.65922368  0.13108288  1
  In  In59  1  0.17138606  0.66639712  0.61716915  1
  In  In60  1  0.51701797  -0.01200631  0.14372043  1
  In  In61  1  0.49073209  0.00950185  0.62196156  1
  In  In62  1  0.49395301  0.33003273  0.12605406  1
  In  In63  1  0.50251487  0.32782694  0.62742241  1
  In  In64  1  0.49391479  0.67522496  0.13185546  1
  In  In65  1  0.49559545  0.65637494  0.62456891  1
  In  In66  1  0.84085462  -0.01192513  0.13690301  1
  In  In67  1  0.84180296  0.00575310  0.61869896  1
  In  In68  1  0.82638271  0.34642786  0.12130040  1
  In  In69  1  0.83645515  0.33698007  0.61818712  1
  In  In70  1  0.83024276  0.66802704  0.13127704  1
  In  In71  1  0.83289769  0.66636003  0.61285173  1
  In  In72  1  0.83730226  0.16721343  0.00441740  1
  In  In73  1  0.49901053  0.83982472  0.49517503  1
  In  In74  1  0.50041809  0.50790133  0.00477122  1
  In  In75  1  0.49819039  0.16056825  0.00582833  1
  In  In76  1  0.66520410  0.66183785  0.75455919  1
  In  In77  1  0.66727950  0.33465501  0.25614812  1
  In  In78  1  0.16240859  0.83410311  0.00548548  1
  In  In79  1  -0.00029185  0.66373374  0.75296793  1
  In  In80  1  0.50033034  0.49616814  0.49991199  1
  In  In81  1  0.65612563  0.00254345  0.75065681  1
  In  In82  1  0.33785735  0.32931871  0.25411836  1
  In  In83  1  0.00380661  0.33390653  0.74305585  1
  In  In84  1  -0.00327448  0.33278933  0.25309437  1
  In  In85  1  0.33243403  0.00144342  0.75050858  1
  Cu  Cu86  1  0.32698781  -0.00077615  0.49290808  1
  Cu  Cu87  1  -0.00529475  0.66511753  0.00462821  1
  Cu  Cu88  1  0.33208413  0.33756337  0.50488618  1
  Cu  Cu89  1  0.67245164  0.33925442  -0.00460520  1
  Cu  Cu90  1  0.33479228  -0.00158951  0.00494093  1
  Cu  Cu91  1  0.83184392  0.82924021  0.25324843  1
  Cu  Cu92  1  0.50334629  0.50003836  0.24681530  1
  Cu  Cu93  1  0.83383181  0.16233097  0.25588554  1
  Cu  Cu94  1  0.16746509  0.16275105  0.25703921  1
  Cu  Cu95  1  0.00283229  0.00583930  0.00546902  1
  Cu  Cu96  1  0.00367138  0.66804054  0.49445183  1
  Cu  Cu97  1  0.83886154  0.83724171  0.74939539  1
  Cu  Cu98  1  0.16659442  0.50654232  0.25372524  1
  Cu  Cu99  1  0.32680974  0.33143929  -0.00879853  1
  Cu  Cu100  1  0.16411734  0.83242766  0.74123371  1
  Cu  Cu101  1  0.49441859  0.49630637  0.74539842  1
  Cu  Cu102  1  0.16269239  0.83288213  0.24987914  1
  Cu  Cu103  1  0.00263955  0.33095400  0.50259202  1
  Cu  Cu104  1  -0.00305588  -0.00603437  0.49454727  1
  Cu  Cu105  1  0.66716467  -0.00158633  0.49217349  1
  Cu  Cu106  1  0.50060328  0.83139555  0.75844078  1
  Cu  Cu107  1  0.83099014  0.16868065  0.73668864  1
  Cu  Cu108  1  0.66887135  -0.01151331  0.01108585  1
  Cu  Cu109  1  0.00198226  0.33697293  -0.00554966  1
  Cu  Cu110  1  0.32688668  0.66203399  0.00350911  1
  Cu  Cu111  1  0.49904398  0.83480680  0.25338282  1
  Cu  Cu112  1  0.50399149  0.17429531  0.73999107  1
  Cu  Cu113  1  0.16950044  0.16556464  0.74624955  1
  Cu  Cu114  1  0.67551515  0.66888222  0.49173966  1
  Se  Se115  1  0.08963366  0.08846644  0.05381319  1
  Se  Se116  1  0.08016583  0.07765677  0.54983179  1
  Se  Se117  1  0.08296139  0.41982900  0.05217219  1
  Se  Se118  1  0.08625738  0.41778664  0.55280903  1
  Se  Se119  1  0.07489444  0.74390622  0.06593034  1
  Se  Se120  1  0.08616633  0.74952576  0.55119613  1
  Se  Se121  1  0.41436910  0.07341117  0.07007846  1
  Se  Se122  1  0.41518318  0.08013972  0.54431649  1
  Se  Se123  1  0.40487834  0.40809451  0.05612782  1
  Se  Se124  1  0.40943285  0.41873200  0.56668100  1
  Se  Se125  1  0.40987266  0.74555633  0.05616873  1
  Se  Se126  1  0.41502261  0.74564185  0.55636945  1
  Se  Se127  1  0.74643729  0.07814304  0.06483338  1
  Se  Se128  1  0.75172304  0.07813992  0.54897055  1
  Se  Se129  1  0.75409876  0.42572637  0.04559345  1
  Se  Se130  1  0.75712456  0.42135058  0.54851862  1
  Se  Se131  1  0.76354393  0.76114547  0.06060502  1
  Se  Se132  1  0.75740213  0.75533294  0.54368195  1
  Se  Se133  1  0.25197145  0.24686383  0.05071315  1
  Se  Se134  1  0.24692717  0.24823651  0.55163702  1
  Se  Se135  1  0.24065043  0.57777920  0.05139910  1
  Se  Se136  1  0.25889924  0.57771038  0.55720016  1
  Se  Se137  1  0.25324975  0.92086313  0.06660295  1
  Se  Se138  1  0.24851848  0.91275171  0.54670408  1
  Se  Se139  1  0.59461043  0.25906808  0.05705549  1
  Se  Se140  1  0.56079473  0.24096195  0.54971793  1
  Se  Se141  1  0.58962796  0.59895333  0.06089043  1
  Se  Se142  1  0.59592409  0.59207758  0.55555824  1
  Se  Se143  1  0.58105906  0.91071336  0.06313626  1
  Se  Se144  1  0.59129752  0.92343595  0.56097540  1
  Se  Se145  1  0.92813095  0.26019874  0.06298542  1
  Se  Se146  1  0.91522691  0.24736165  0.55138669  1
  Se  Se147  1  0.91065004  0.58292075  0.05833828  1
  Se  Se148  1  0.91986339  0.58406510  0.54854234  1
  Se  Se149  1  0.91790758  0.92229234  0.05600924  1
  Se  Se150  1  0.91437920  0.91247939  0.55177005  1
  Se  Se151  1  0.08653406  0.24562431  0.45185184  1
  Se  Se152  1  0.08559965  0.24929260  0.94619285  1
  Se  Se153  1  0.08995025  0.58342710  0.44461131  1
  Se  Se154  1  0.07951250  0.58551065  0.94905175  1
  Se  Se155  1  0.08309384  0.91139707  0.44304634  1
  Se  Se156  1  0.07742806  0.92366355  0.94054488  1
  Se  Se157  1  0.40964811  0.25347519  0.44732611  1
  Se  Se158  1  0.41626322  0.25237808  0.93862310  1
  Se  Se159  1  0.41508209  0.59387026  0.44376674  1
  Se  Se160  1  0.40451996  0.58303057  0.93925887  1
  Se  Se161  1  0.40984550  0.92268130  0.43088662  1
  Se  Se162  1  0.41978846  0.91461140  0.95511748  1
  Se  Se163  1  0.74459752  0.24897887  0.45496319  1
  Se  Se164  1  0.74807608  0.25181675  0.93803599  1
  Se  Se165  1  0.75681295  0.58163551  0.44134893  1
  Se  Se166  1  0.72530812  0.60349753  0.93965931  1
  Se  Se167  1  0.75353777  0.91317730  0.44560389  1
  Se  Se168  1  0.75655120  0.91538928  0.95311668  1
  Se  Se169  1  0.23993335  0.08399909  0.44427426  1
  Se  Se170  1  0.25337195  0.08129640  0.95059302  1
  Se  Se171  1  0.25020407  0.42284115  0.45222625  1
  Se  Se172  1  0.24674086  0.41818950  0.93997070  1
  Se  Se173  1  0.25127297  0.75086820  0.44858991  1
  Se  Se174  1  0.25204935  0.74760519  0.94185886  1
  Se  Se175  1  0.57920643  0.08040970  0.44359925  1
  Se  Se176  1  0.59442600  0.07098411  0.94655011  1
  Se  Se177  1  0.59763412  0.40997090  0.44396494  1
  Se  Se178  1  0.58288904  0.41348385  0.93965198  1
  Se  Se179  1  0.58740463  0.74573756  0.43647101  1
  Se  Se180  1  0.56569212  0.75739541  0.95303514  1
  Se  Se181  1  0.91397152  0.08241755  0.44568534  1
  Se  Se182  1  0.92349599  0.08032825  0.93862674  1
  Se  Se183  1  0.92357051  0.41560420  0.44654743  1
  Se  Se184  1  0.91216072  0.41623826  0.94466925  1
  Se  Se185  1  0.91717114  0.74883157  0.44136977  1
  Se  Se186  1  0.91403043  0.75292513  0.95327212  1
  Se  Se187  1  0.24156789  0.24936346  0.31549950  1
  Se  Se188  1  0.25053760  0.24671193  0.80255923  1
  Se  Se189  1  0.25356378  0.58783071  0.30498305  1
  Se  Se190  1  0.25189465  0.59285424  0.79926336  1
  Se  Se191  1  0.24675279  0.91758576  0.30172175  1
  Se  Se192  1  0.24272621  0.90800592  0.80932881  1
  Se  Se193  1  0.57839500  0.24197241  0.31195217  1
  Se  Se194  1  0.58950827  0.25259409  0.79624654  1
  Se  Se195  1  0.58830223  0.58337011  0.29841988  1
  Se  Se196  1  0.57192728  0.57155024  0.81223100  1
  Se  Se197  1  0.58466626  0.91910265  0.30279207  1
  Se  Se198  1  0.58658078  0.90413134  0.81821571  1
  Se  Se199  1  0.90829906  0.24607194  0.31668081  1
  Se  Se200  1  0.91156467  0.24207710  0.80438324  1
  Se  Se201  1  0.92301582  0.58571474  0.29960606  1
  Se  Se202  1  0.90250150  0.57472483  0.80716395  1
  Se  Se203  1  0.91667301  0.91545874  0.30373322  1
  Se  Se204  1  0.92040075  0.92101301  0.80269438  1
  Se  Se205  1  0.07730694  0.08118222  0.30437978  1
  Se  Se206  1  0.08624670  0.08132904  0.79904568  1
  Se  Se207  1  0.08845715  0.42291402  0.31170096  1
  Se  Se208  1  0.08494964  0.42502186  0.80871813  1
  Se  Se209  1  0.08307960  0.74561933  0.30291850  1
  Se  Se210  1  0.08901357  0.75889351  0.81116088  1
  Se  Se211  1  0.40463101  0.08423165  0.29999975  1
  Se  Se212  1  0.43068940  0.09223663  0.80640064  1
  Se  Se213  1  0.42595891  0.42520594  0.31263230  1
  Se  Se214  1  0.41149641  0.41045425  0.79744047  1
  Se  Se215  1  0.41356634  0.74904623  0.30200709  1
  Se  Se216  1  0.41288789  0.74790662  0.80566143  1
  Se  Se217  1  0.74802245  0.08061992  0.30737995  1
  Se  Se218  1  0.75727238  0.09154615  0.80626763  1
  Se  Se219  1  0.76404388  0.42285866  0.30858791  1
  Se  Se220  1  0.73991670  0.40763325  0.79591516  1
  Se  Se221  1  0.74609762  0.74554417  0.30358138  1
  Se  Se222  1  0.75883684  0.75631390  0.81003051  1
  Se  Se223  1  0.24889502  0.08356256  0.19878170  1
  Se  Se224  1  0.24723842  0.08444526  0.68340945  1
  Se  Se225  1  0.24424397  0.41961482  0.19474678  1
  Se  Se226  1  0.24596287  0.40781522  0.70463990  1
  Se  Se227  1  0.24936974  0.74829788  0.19903733  1
  Se  Se228  1  0.24873773  0.74903853  0.69218881  1
  Se  Se229  1  0.58611382  0.08547480  0.20781674  1
  Se  Se230  1  0.58477739  0.09458097  0.68154352  1
  Se  Se231  1  0.58207771  0.42104120  0.18591430  1
  Se  Se232  1  0.58217136  0.41815373  0.69276862  1
  Se  Se233  1  0.58271548  0.75008888  0.20038341  1
  Se  Se234  1  0.57771766  0.75606333  0.69201908  1
  Se  Se235  1  0.91880844  0.08319750  0.20012528  1
  Se  Se236  1  0.91850429  0.07989048  0.69572650  1
  Se  Se237  1  0.90993883  0.42420441  0.19345682  1
  Se  Se238  1  0.91132844  0.42812471  0.69147275  1
  Se  Se239  1  0.91845037  0.74722634  0.20120602  1
  Se  Se240  1  0.91226399  0.75247904  0.68864124  1
  Se  Se241  1  0.09435325  0.24797583  0.19336693  1
  Se  Se242  1  0.08942318  0.24129472  0.68266327  1
  Se  Se243  1  0.08177601  0.58284785  0.19662316  1
  Se  Se244  1  0.08897333  0.57908342  0.69071130  1
  Se  Se245  1  0.07788452  0.91777658  0.19877910  1
  Se  Se246  1  0.07976733  0.91850063  0.69399935  1
  Se  Se247  1  0.42915482  0.23602336  0.19750832  1
  Se  Se248  1  0.40856627  0.25048843  0.69362718  1
  Se  Se249  1  0.41478911  0.58128180  0.19602990  1
  Se  Se250  1  0.41477848  0.59004654  0.70125461  1
  Se  Se251  1  0.41200584  0.91842720  0.20211190  1
  Se  Se252  1  0.42427762  0.90909596  0.69260408  1
  Se  Se253  1  0.76075386  0.24534957  0.19217270  1
  Se  Se254  1  0.74970904  0.25189145  0.68426751  1
  Se  Se255  1  0.74977429  0.58330187  0.20124658  1
  Se  Se256  1  0.75565590  0.58202107  0.68875055  1
  Se  Se257  1  0.74686259  0.91603426  0.20238747  1
  Se  Se258  1  0.75196967  0.91339807  0.69193470  1
