# generated using pymatgen
data_In86Cu29Se144
_symmetry_space_group_name_H-M   'P 1'
_cell_length_a   17.58974403
_cell_length_b   17.59130568
_cell_length_c   23.45761325
_cell_angle_alpha   90.00320255
_cell_angle_beta   89.98504928
_cell_angle_gamma   89.99057618
_symmetry_Int_Tables_number   1
_chemical_formula_structural   In86Cu29Se144
_chemical_formula_sum   'In86 Cu29 Se144'
_cell_volume   7258.40831321
_cell_formula_units_Z   1
loop_
 _symmetry_equiv_pos_site_id
 _symmetry_equiv_pos_as_xyz
  1  'x, y, z'
loop_
 _atom_site_type_symbol
 _atom_site_label
 _atom_site_symmetry_multiplicity
 _atom_site_fract_x
 _atom_site_fract_y
 _atom_site_fract_z
 _atom_site_occupancy
  In  In0  1  -0.01203803  0.15128247  0.10853491  1
  In  In1  1  0.02170580  0.16713291  0.62760268  1
  In  In2  1  0.01242849  0.49802129  0.12669484  1
  In  In3  1  -0.00843374  0.49029687  0.61722085  1
  In  In4  1  -0.00237858  0.83679331  0.13296536  1
  In  In5  1  0.00268644  0.82536258  0.60759135  1
  In  In6  1  0.33378508  0.16752533  0.11144229  1
  In  In7  1  0.32619751  0.16312840  0.63959766  1
  In  In8  1  0.32141065  0.51276421  0.12236990  1
  In  In9  1  0.33312729  0.50357932  0.62815958  1
  In  In10  1  0.33567978  0.83415961  0.11204604  1
  In  In11  1  0.33082959  0.83402106  0.62317980  1
  In  In12  1  0.66312959  0.15283604  0.12306252  1
  In  In13  1  0.65730217  0.16662363  0.62220154  1
  In  In14  1  0.67032212  0.49521073  0.12932619  1
  In  In15  1  0.67480481  0.50402725  0.61626796  1
  In  In16  1  0.68814858  0.85609691  0.11559090  1
  In  In17  1  0.66040643  0.83581197  0.61019578  1
  In  In18  1  0.15765864  0.00854549  0.37910957  1
  In  In19  1  0.17060521  -0.00210928  0.87512612  1
  In  In20  1  0.16546006  0.33238931  0.38556664  1
  In  In21  1  0.17680120  0.32964545  0.86791102  1
  In  In22  1  0.13343212  0.68939623  0.40612051  1
  In  In23  1  0.16608035  0.66291246  0.87656141  1
  In  In24  1  0.52055971  -0.01451495  0.39897003  1
  In  In25  1  0.48605881  0.00893349  0.88155578  1
  In  In26  1  0.50232382  0.33208963  0.38767332  1
  In  In27  1  0.48485738  0.32102448  0.86444324  1
  In  In28  1  0.50084457  0.67193048  0.38664878  1
  In  In29  1  0.49636886  0.67825718  0.87169852  1
  In  In30  1  0.82240937  -0.01219728  0.34298689  1
  In  In31  1  0.83518082  -0.00247668  0.88296640  1
  In  In32  1  0.84094854  0.33160152  0.37868162  1
  In  In33  1  0.82444891  0.32194404  0.87125919  1
  In  In34  1  0.84319363  0.67054824  0.37852190  1
  In  In35  1  0.84327371  0.67185636  0.87871777  1
  In  In36  1  0.00223153  0.16830892  0.37135444  1
  In  In37  1  -0.00026635  0.16921109  0.87575673  1
  In  In38  1  -0.01889276  0.52177929  0.40483889  1
  In  In39  1  0.01491501  0.50390088  0.87188386  1
  In  In40  1  -0.00139054  0.84062641  0.37332223  1
  In  In41  1  -0.00103625  0.83464810  0.88534531  1
  In  In42  1  0.33278745  0.16837628  0.38409781  1
  In  In43  1  0.33479634  0.16390872  0.87000634  1
  In  In44  1  0.32364089  0.51084050  0.39290094  1
  In  In45  1  0.31916657  0.49048134  0.86061281  1
  In  In46  1  0.33647573  0.83637465  0.38109526  1
  In  In47  1  0.32948113  0.83351074  0.87189214  1
  In  In48  1  0.67149593  0.12562613  0.38610958  1
  In  In49  1  0.67113446  0.15852774  0.87928819  1
  In  In50  1  0.66848029  0.50254225  0.38787260  1
  In  In51  1  0.66385575  0.48434558  0.87368706  1
  In  In52  1  0.66994402  0.84146447  0.37645373  1
  In  In53  1  0.66234581  0.83447206  0.88386349  1
  In  In54  1  0.15851266  -0.01129970  0.11607671  1
  In  In55  1  0.17455830  0.00901295  0.61377785  1
  In  In56  1  0.16784376  0.33843980  0.11295131  1
  In  In57  1  0.16594491  0.33107200  0.63405242  1
  In  In58  1  0.15801582  0.66179478  0.12083274  1
  In  In59  1  0.17089356  0.67716033  0.61343972  1
  In  In60  1  0.50673758  0.00692502  0.12061610  1
  In  In61  1  0.49070168  -0.00613245  0.62028882  1
  In  In62  1  0.50805865  0.32043711  0.12171121  1
  In  In63  1  0.47449461  0.31790593  0.62731615  1
  In  In64  1  0.48809337  0.67067245  0.12797457  1
  In  In65  1  0.49416219  0.66330062  0.61753604  1
  In  In66  1  0.83789429  0.00151980  0.13551354  1
  In  In67  1  0.83460463  -0.00622829  0.61800205  1
  In  In68  1  0.84954346  0.33488042  0.12020587  1
  In  In69  1  0.83943633  0.34837684  0.62877489  1
  In  In70  1  0.83774550  0.69511186  0.13274844  1
  In  In71  1  0.83644517  0.66397162  0.61172501  1
  In  In72  1  0.66889282  0.32174284  0.24915385  1
  In  In73  1  0.66564131  0.33411342  0.74749399  1
  In  In74  1  0.83636722  0.50129148  0.00071503  1
  In  In75  1  0.66761452  0.66846788  0.73558253  1
  In  In76  1  0.66760443  0.67495463  0.25581744  1
  In  In77  1  0.33414754  0.00335590  0.25194856  1
  In  In78  1  0.65757046  -0.00226235  0.74231482  1
  In  In79  1  0.33079122  0.33101542  0.24535392  1
  In  In80  1  0.00560022  0.32798312  0.25464412  1
  In  In81  1  0.83143750  0.16204504  0.49621511  1
  In  In82  1  0.00539594  0.66163889  0.74719449  1
  In  In83  1  0.48843547  0.49582914  -0.00311306  1
  In  In84  1  0.01027037  0.00174356  0.75066672  1
  In  In85  1  0.32491220  0.67106940  0.25951723  1
  Cu  Cu86  1  0.32492267  0.00256101  0.50426641  1
  Cu  Cu87  1  0.00354148  0.32415136  0.50386763  1
  Cu  Cu88  1  0.66430199  0.33514426  0.50461494  1
  Cu  Cu89  1  0.66124076  0.66509709  0.00127825  1
  Cu  Cu90  1  0.48746024  0.83937590  0.74906525  1
  Cu  Cu91  1  0.32705630  0.66893010  -0.00369173  1
  Cu  Cu92  1  0.16896965  0.83656804  0.74384469  1
  Cu  Cu93  1  0.16355486  0.16461657  0.24367917  1
  Cu  Cu94  1  0.83507554  0.82775002  0.74994698  1
  Cu  Cu95  1  0.16844837  0.50069425  0.74796780  1
  Cu  Cu96  1  0.00169286  0.00214208  0.00126537  1
  Cu  Cu97  1  0.83681312  0.50822912  0.26101378  1
  Cu  Cu98  1  0.83912741  0.16522893  0.74963419  1
  Cu  Cu99  1  0.50635430  0.15441224  0.25578389  1
  Cu  Cu100  1  0.49217700  0.49254605  0.26363717  1
  Cu  Cu101  1  0.34423221  0.66750684  0.50528979  1
  Cu  Cu102  1  0.51035644  0.84367809  0.25019917  1
  Cu  Cu103  1  0.50822236  0.50703782  0.74072287  1
  Cu  Cu104  1  0.16200851  0.82936769  0.25112634  1
  Cu  Cu105  1  0.00879566  0.33415702  -0.00739785  1
  Cu  Cu106  1  0.33473748  -0.00072849  -0.00670829  1
  Cu  Cu107  1  0.66957468  -0.00847513  0.00362392  1
  Cu  Cu108  1  0.33130380  0.33176839  -0.01000692  1
  Cu  Cu109  1  0.33256428  0.33107354  0.51417819  1
  Cu  Cu110  1  -0.00171137  -0.00452168  0.49566630  1
  Cu  Cu111  1  0.67347546  0.67454000  0.49684528  1
  Cu  Cu112  1  0.15413626  0.50502215  0.25780825  1
  Cu  Cu113  1  -0.00457329  0.67737626  0.00466041  1
  Cu  Cu114  1  0.66317295  0.31386934  -0.00196590  1
  Se  Se115  1  0.09257407  0.08642699  0.04792638  1
  Se  Se116  1  0.07865482  0.08186902  0.54844595  1
  Se  Se117  1  0.08358547  0.42390596  0.04721488  1
  Se  Se118  1  0.08572370  0.40763312  0.55774411  1
  Se  Se119  1  0.08049364  0.75700521  0.05911083  1
  Se  Se120  1  0.07329970  0.73278032  0.54135202  1
  Se  Se121  1  0.41860130  0.08026826  0.04980833  1
  Se  Se122  1  0.40378793  0.08541174  0.56215987  1
  Se  Se123  1  0.40423812  0.40598322  0.06418327  1
  Se  Se124  1  0.41851163  0.42024827  0.55975443  1
  Se  Se125  1  0.41845503  0.74448551  0.04852419  1
  Se  Se126  1  0.42289818  0.76014018  0.55303869  1
  Se  Se127  1  0.75292234  0.07376413  0.05815321  1
  Se  Se128  1  0.73763600  0.07418124  0.55649087  1
  Se  Se129  1  0.73962328  0.40394789  0.05482300  1
  Se  Se130  1  0.75643162  0.41513571  0.55143266  1
  Se  Se131  1  0.74691819  0.74553916  0.05509377  1
  Se  Se132  1  0.75635368  0.75749590  0.54996073  1
  Se  Se133  1  0.24805170  0.25094060  0.04703129  1
  Se  Se134  1  0.24882162  0.24614139  0.56553018  1
  Se  Se135  1  0.24243351  0.58472304  0.04773219  1
  Se  Se136  1  0.25653519  0.58478913  0.55415841  1
  Se  Se137  1  0.25046741  0.91643355  0.04748406  1
  Se  Se138  1  0.24342537  0.90881635  0.55089334  1
  Se  Se139  1  0.57859647  0.23323656  0.05150341  1
  Se  Se140  1  0.57843795  0.25742393  0.56003174  1
  Se  Se141  1  0.58380096  0.58110681  0.06154697  1
  Se  Se142  1  0.59160504  0.59186752  0.55299487  1
  Se  Se143  1  0.57870705  0.91153305  0.05406807  1
  Se  Se144  1  0.58623321  0.93156491  0.55029470  1
  Se  Se145  1  0.92139252  0.25447632  0.04553987  1
  Se  Se146  1  0.91815762  0.24726235  0.56310158  1
  Se  Se147  1  0.91869399  0.59143404  0.06543263  1
  Se  Se148  1  0.92182836  0.58120720  0.54810865  1
  Se  Se149  1  0.92134016  0.92347323  0.06175093  1
  Se  Se150  1  0.91350180  0.91337060  0.54814112  1
  Se  Se151  1  0.08242369  0.24131352  0.44720498  1
  Se  Se152  1  0.09089488  0.25110116  0.93868050  1
  Se  Se153  1  0.11239444  0.55404796  0.44511184  1
  Se  Se154  1  0.07393086  0.59350105  0.94726173  1
  Se  Se155  1  0.08814119  0.91399278  0.44645189  1
  Se  Se156  1  0.08500853  0.92042771  0.94628136  1
  Se  Se157  1  0.41214666  0.25318423  0.45216537  1
  Se  Se158  1  0.41775851  0.24580356  0.94402670  1
  Se  Se159  1  0.42693882  0.58031521  0.45293847  1
  Se  Se160  1  0.40575349  0.58675856  0.93476751  1
  Se  Se161  1  0.41110175  0.91878379  0.45323599  1
  Se  Se162  1  0.41655236  0.90901324  0.94452327  1
  Se  Se163  1  0.73690891  0.25330317  0.43813244  1
  Se  Se164  1  0.75611803  0.23971637  0.94748038  1
  Se  Se165  1  0.75742872  0.58809911  0.44690149  1
  Se  Se166  1  0.73878406  0.58614574  0.93935987  1
  Se  Se167  1  0.75343306  0.93843705  0.43254385  1
  Se  Se168  1  0.75424892  0.91083199  0.94852176  1
  Se  Se169  1  0.24492301  0.08614027  0.44805574  1
  Se  Se170  1  0.25202550  0.08476489  0.94175994  1
  Se  Se171  1  0.25325933  0.40916448  0.45316465  1
  Se  Se172  1  0.24858195  0.42012885  0.94188830  1
  Se  Se173  1  0.26054678  0.74432365  0.44607064  1
  Se  Se174  1  0.24474377  0.75230306  0.94245510  1
  Se  Se175  1  0.55794661  0.10860659  0.45179411  1
  Se  Se176  1  0.58991837  0.07287133  0.94511215  1
  Se  Se177  1  0.58138280  0.42179488  0.45320638  1
  Se  Se178  1  0.58163498  0.39922399  0.94241006  1
  Se  Se179  1  0.58827837  0.75889964  0.44631114  1
  Se  Se180  1  0.57792078  0.74718055  0.94787177  1
  Se  Se181  1  0.91874040  0.07487718  0.43460154  1
  Se  Se182  1  0.91955085  0.08430093  0.94507700  1
  Se  Se183  1  0.91440345  0.40726714  0.45472154  1
  Se  Se184  1  0.91983308  0.41231379  0.93537694  1
  Se  Se185  1  0.93032155  0.74857363  0.44479531  1
  Se  Se186  1  0.90858421  0.75780642  0.95279292  1
  Se  Se187  1  0.24147169  0.24289915  0.30688054  1
  Se  Se188  1  0.28032197  0.26953308  0.80108962  1
  Se  Se189  1  0.23686119  0.58151411  0.31741136  1
  Se  Se190  1  0.24628133  0.59149788  0.80018790  1
  Se  Se191  1  0.24351830  0.91008608  0.30953438  1
  Se  Se192  1  0.24813665  0.91770291  0.80182866  1
  Se  Se193  1  0.57924492  0.24247161  0.31510780  1
  Se  Se194  1  0.58311695  0.23608855  0.80563431  1
  Se  Se195  1  0.57688003  0.57791654  0.31306719  1
  Se  Se196  1  0.58537109  0.58090557  0.80746421  1
  Se  Se197  1  0.58456415  0.92599109  0.30913734  1
  Se  Se198  1  0.57586900  0.90970273  0.80956251  1
  Se  Se199  1  0.90206709  0.24022616  0.30303671  1
  Se  Se200  1  0.91687887  0.24945917  0.80405929  1
  Se  Se201  1  0.92653725  0.58274906  0.31266702  1
  Se  Se202  1  0.91065691  0.57721378  0.80865640  1
  Se  Se203  1  0.94238755  0.93378192  0.29803752  1
  Se  Se204  1  0.91214017  0.91069409  0.80705183  1
  Se  Se205  1  0.08411528  0.08556970  0.30178224  1
  Se  Se206  1  0.09677840  0.09598857  0.80624613  1
  Se  Se207  1  0.08111705  0.42181946  0.31889976  1
  Se  Se208  1  0.08906355  0.41667459  0.80345121  1
  Se  Se209  1  0.08525998  0.74803884  0.31105973  1
  Se  Se210  1  0.08418325  0.76226630  0.80682366  1
  Se  Se211  1  0.42326370  0.08244501  0.31853819  1
  Se  Se212  1  0.41632360  0.07786927  0.80237691  1
  Se  Se213  1  0.40811670  0.41548133  0.31883763  1
  Se  Se214  1  0.43028772  0.42992289  0.80335400  1
  Se  Se215  1  0.43069176  0.76011895  0.30785790  1
  Se  Se216  1  0.41024117  0.74855292  0.80018234  1
  Se  Se217  1  0.74792813  0.09873853  0.29712033  1
  Se  Se218  1  0.75815713  0.08001675  0.80381194  1
  Se  Se219  1  0.75191447  0.42254562  0.31104466  1
  Se  Se220  1  0.76143190  0.42645031  0.80193807  1
  Se  Se221  1  0.76420869  0.76201491  0.30875897  1
  Se  Se222  1  0.75079113  0.75232088  0.80895929  1
  Se  Se223  1  0.24800037  0.08810371  0.18526434  1
  Se  Se224  1  0.23551138  0.07561743  0.69849200  1
  Se  Se225  1  0.23603407  0.42954249  0.19466481  1
  Se  Se226  1  0.25427269  0.41833875  0.69709586  1
  Se  Se227  1  0.24701515  0.75787209  0.18852938  1
  Se  Se228  1  0.24747364  0.74845442  0.69179047  1
  Se  Se229  1  0.58727289  0.07432895  0.19883221  1
  Se  Se230  1  0.56652221  0.09318561  0.69220372  1
  Se  Se231  1  0.57055080  0.41966927  0.19636395  1
  Se  Se232  1  0.58170871  0.42136080  0.68199221  1
  Se  Se233  1  0.58110209  0.75752943  0.18788746  1
  Se  Se234  1  0.57305032  0.76510471  0.68812937  1
  Se  Se235  1  0.92632949  0.09122128  0.19511274  1
  Se  Se236  1  0.91311826  0.08429013  0.68717280  1
  Se  Se237  1  0.91229016  0.42686049  0.19747871  1
  Se  Se238  1  0.92733130  0.41589801  0.69930191  1
  Se  Se239  1  0.93015533  0.74665301  0.20588406  1
  Se  Se240  1  0.91433072  0.75303783  0.68768510  1
  Se  Se241  1  0.08927581  0.24902117  0.18287673  1
  Se  Se242  1  0.07951284  0.25290265  0.70344912  1
  Se  Se243  1  0.07986648  0.58846918  0.19819780  1
  Se  Se244  1  0.09260451  0.57788125  0.68291084  1
  Se  Se245  1  0.08756145  0.92108585  0.19819074  1
  Se  Se246  1  0.08327746  0.90778644  0.68304571  1
  Se  Se247  1  0.42613300  0.23344430  0.19422157  1
  Se  Se248  1  0.39725174  0.25877182  0.70933217  1
  Se  Se249  1  0.41699943  0.57390799  0.19969111  1
  Se  Se250  1  0.41906714  0.59033180  0.69464837  1
  Se  Se251  1  0.41992147  0.91066328  0.18949939  1
  Se  Se252  1  0.40712922  0.92141783  0.69440323  1
  Se  Se253  1  0.76022888  0.24626805  0.18183797  1
  Se  Se254  1  0.75788000  0.24098944  0.68757951  1
  Se  Se255  1  0.75760698  0.58104932  0.19422298  1
  Se  Se256  1  0.76665977  0.57589734  0.68996134  1
  Se  Se257  1  0.75376135  0.91456043  0.20104863  1
  Se  Se258  1  0.75419516  0.90411848  0.68971454  1
