# generated using pymatgen
data_In86Cu29Se144
_symmetry_space_group_name_H-M   'P 1'
_cell_length_a   17.60355636
_cell_length_b   17.59920104
_cell_length_c   23.45655600
_cell_angle_alpha   89.96707971
_cell_angle_beta   89.99487377
_cell_angle_gamma   89.98781687
_symmetry_Int_Tables_number   1
_chemical_formula_structural   In86Cu29Se144
_chemical_formula_sum   'In86 Cu29 Se144'
_cell_volume   7267.03967800
_cell_formula_units_Z   1
loop_
 _symmetry_equiv_pos_site_id
 _symmetry_equiv_pos_as_xyz
  1  'x, y, z'
loop_
 _atom_site_type_symbol
 _atom_site_label
 _atom_site_symmetry_multiplicity
 _atom_site_fract_x
 _atom_site_fract_y
 _atom_site_fract_z
 _atom_site_occupancy
  In  In0  1  0.00524434  0.17617075  0.11471113  1
  In  In1  1  0.00456150  0.17854262  0.62494237  1
  In  In2  1  -0.01418580  0.49199287  0.11577723  1
  In  In3  1  -0.01460584  0.50202173  0.62408561  1
  In  In4  1  -0.00326819  0.83992981  0.12347192  1
  In  In5  1  0.00009184  0.82084540  0.62427231  1
  In  In6  1  0.34550913  0.18433152  0.11331687  1
  In  In7  1  0.33019398  0.17960760  0.61947816  1
  In  In8  1  0.33341228  0.50691732  0.12315280  1
  In  In9  1  0.34819992  0.49775005  0.62241091  1
  In  In10  1  0.34871182  0.81300992  0.13171682  1
  In  In11  1  0.32389996  0.83032915  0.62522823  1
  In  In12  1  0.67779321  0.17866982  0.12049118  1
  In  In13  1  0.67258367  0.15864375  0.63282844  1
  In  In14  1  0.66062057  0.49258007  0.13246700  1
  In  In15  1  0.65293847  0.49053191  0.61606922  1
  In  In16  1  0.63926783  0.81048294  0.11287432  1
  In  In17  1  0.67602007  0.83629009  0.63155695  1
  In  In18  1  0.16891132  0.00218105  0.38368111  1
  In  In19  1  0.17996580  0.00275547  0.87736701  1
  In  In20  1  0.16478843  0.33169217  0.36706255  1
  In  In21  1  0.16031572  0.33903847  0.88133510  1
  In  In22  1  0.19264223  0.65887219  0.37951681  1
  In  In23  1  0.17662003  0.64730860  0.88616862  1
  In  In24  1  0.50331360  -0.00278943  0.37498635  1
  In  In25  1  0.50727104  0.00031993  0.87979748  1
  In  In26  1  0.54003308  0.38170793  0.32822138  1
  In  In27  1  0.51521393  0.32619946  0.88739331  1
  In  In28  1  0.49815014  0.65576524  0.35934856  1
  In  In29  1  0.48629779  0.66689919  0.88843641  1
  In  In30  1  0.84539053  -0.00080245  0.37861651  1
  In  In31  1  0.81869729  0.01303363  0.88222894  1
  In  In32  1  0.83713066  0.33213768  0.37765042  1
  In  In33  1  0.82754633  0.33460209  0.87334148  1
  In  In34  1  0.81632231  0.65671048  0.36820212  1
  In  In35  1  0.84707417  0.66062953  0.89643311  1
  In  In36  1  -0.00361720  0.17263475  0.38229242  1
  In  In37  1  -0.01549243  0.18197637  0.88052443  1
  In  In38  1  0.00146383  0.48091210  0.37143683  1
  In  In39  1  0.00711841  0.49193150  0.88084420  1
  In  In40  1  0.00285091  0.84392829  0.37690884  1
  In  In41  1  -0.00413151  0.81238286  0.88051536  1
  In  In42  1  0.32385117  0.17366949  0.37657333  1
  In  In43  1  0.33727451  0.16713170  0.88683761  1
  In  In44  1  0.35874449  0.51542423  0.34399485  1
  In  In45  1  0.33221721  0.50472987  0.88653639  1
  In  In46  1  0.34177721  0.78728582  0.38032294  1
  In  In47  1  0.34829568  0.83025097  0.87777070  1
  In  In48  1  0.66368543  0.18231231  0.37762079  1
  In  In49  1  0.66292879  0.17618865  0.87344062  1
  In  In50  1  0.67660755  0.50120939  0.37922165  1
  In  In51  1  0.67402925  0.49024283  0.88280110  1
  In  In52  1  0.66423684  0.82084081  0.36484924  1
  In  In53  1  0.66063104  0.83761166  0.88181995  1
  In  In54  1  0.15791217  0.00244656  0.12194376  1
  In  In55  1  0.16611438  0.00410757  0.62241915  1
  In  In56  1  0.16208194  0.33536575  0.12163064  1
  In  In57  1  0.17051690  0.32124073  0.62303519  1
  In  In58  1  0.18833258  0.66182237  0.12335372  1
  In  In59  1  0.16896325  0.67248255  0.62042489  1
  In  In60  1  0.49609555  0.00093198  0.11524604  1
  In  In61  1  0.51394329  0.00670458  0.62964828  1
  In  In62  1  0.50115175  0.34140634  0.13110270  1
  In  In63  1  0.49971044  0.34421737  0.62459822  1
  In  In64  1  0.49335581  0.66001989  0.12948779  1
  In  In65  1  0.49862411  0.64828392  0.62443159  1
  In  In66  1  0.82871102  0.00337270  0.11730429  1
  In  In67  1  0.81617123  0.00031570  0.63283665  1
  In  In68  1  0.83132175  0.33424920  0.12634383  1
  In  In69  1  0.83295025  0.33446353  0.62471578  1
  In  In70  1  0.81019506  0.64145052  0.10769919  1
  In  In71  1  0.83550049  0.66347427  0.62007551  1
  In  In72  1  0.16810590  0.83935844  0.00298608  1
  In  In73  1  0.66595314  0.66384157  0.75585896  1
  In  In74  1  0.49295056  0.17730459  0.50080318  1
  In  In75  1  0.32667316  0.00157033  0.24972073  1
  In  In76  1  0.83511874  0.83574072  0.50319639  1
  In  In77  1  0.16879577  0.49613094  0.49276403  1
  In  In78  1  -0.00090707  0.00217089  0.75727299  1
  In  In79  1  -0.00261751  0.65879330  0.75029259  1
  In  In80  1  0.49767905  0.82278762  0.49170708  1
  In  In81  1  -0.00245000  0.00353228  0.24917551  1
  In  In82  1  0.34055204  0.33413356  0.74939935  1
  In  In83  1  0.34440490  0.00017261  0.75889362  1
  In  In84  1  0.00231380  0.67044503  0.24200105  1
  In  In85  1  0.67146453  0.00282225  0.24932282  1
  Cu  Cu86  1  0.66629574  0.33938790  0.00436485  1
  Cu  Cu87  1  0.66038295  0.66238343  0.00263156  1
  Cu  Cu88  1  0.82446096  0.83761206  0.76104341  1
  Cu  Cu89  1  0.82183129  0.82428864  0.23940101  1
  Cu  Cu90  1  0.66665986  0.00280959  -0.00076453  1
  Cu  Cu91  1  0.32857825  -0.00367123  0.50031579  1
  Cu  Cu92  1  0.50008102  0.16874222  0.24430756  1
  Cu  Cu93  1  -0.00120591  0.32962525  0.49881570  1
  Cu  Cu94  1  0.17583034  0.82663389  0.25781789  1
  Cu  Cu95  1  0.50022765  0.82925474  0.75835867  1
  Cu  Cu96  1  0.33413926  0.00325966  0.00195851  1
  Cu  Cu97  1  0.83569831  0.17810322  0.25127569  1
  Cu  Cu98  1  0.67024313  0.33774492  0.49449365  1
  Cu  Cu99  1  0.16839952  0.16889199  0.75039619  1
  Cu  Cu100  1  -0.00102285  0.66681817  0.49789246  1
  Cu  Cu101  1  0.16606780  0.49415847  0.24492760  1
  Cu  Cu102  1  0.00185299  0.01069684  0.50437141  1
  Cu  Cu103  1  -0.00254155  0.00535661  -0.00207554  1
  Cu  Cu104  1  0.16841386  0.82187164  0.74530594  1
  Cu  Cu105  1  0.32943908  0.33903397  0.00437178  1
  Cu  Cu106  1  0.83031970  0.17357908  0.75435000  1
  Cu  Cu107  1  -0.00664721  0.33200973  -0.00090525  1
  Cu  Cu108  1  0.82739994  0.49208088  0.74945651  1
  Cu  Cu109  1  0.50154625  0.49758549  0.75194120  1
  Cu  Cu110  1  0.16504265  0.17125831  0.24394286  1
  Cu  Cu111  1  0.67114224  0.00055232  0.50461006  1
  Cu  Cu112  1  0.83481796  0.49485478  0.24584037  1
  Cu  Cu113  1  0.16795535  0.49688955  0.75816548  1
  Cu  Cu114  1  0.33722053  0.33996716  0.49037977  1
  Se  Se115  1  0.08492996  0.08522955  0.04948053  1
  Se  Se116  1  0.08661767  0.09231227  0.55772089  1
  Se  Se117  1  0.07862115  0.41565730  0.05058697  1
  Se  Se118  1  0.07893984  0.41228687  0.55937096  1
  Se  Se119  1  0.08519238  0.74721888  0.06487661  1
  Se  Se120  1  0.08199959  0.74920511  0.55075187  1
  Se  Se121  1  0.42050821  0.09091869  0.04836423  1
  Se  Se122  1  0.41108261  0.07405825  0.56059478  1
  Se  Se123  1  0.41682122  0.41658745  0.05824739  1
  Se  Se124  1  0.42153634  0.41714703  0.54780056  1
  Se  Se125  1  0.42774246  0.75069475  0.05435901  1
  Se  Se126  1  0.41106544  0.74178391  0.55998729  1
  Se  Se127  1  0.74985248  0.08942458  0.05006138  1
  Se  Se128  1  0.75281461  0.08515626  0.55597047  1
  Se  Se129  1  0.74967757  0.42103920  0.05966184  1
  Se  Se130  1  0.75134331  0.41739265  0.55411019  1
  Se  Se131  1  0.74627549  0.75165989  0.05074768  1
  Se  Se132  1  0.73870792  0.74427612  0.55619711  1
  Se  Se133  1  0.24299760  0.25048048  0.05106157  1
  Se  Se134  1  0.25369354  0.25625519  0.54498489  1
  Se  Se135  1  0.25355004  0.58173863  0.04673641  1
  Se  Se136  1  0.25644467  0.58346357  0.55640842  1
  Se  Se137  1  0.26255616  0.92090984  0.06702375  1
  Se  Se138  1  0.24627827  0.91622095  0.55684943  1
  Se  Se139  1  0.58260360  0.25743385  0.05982794  1
  Se  Se140  1  0.59276076  0.25656008  0.55997735  1
  Se  Se141  1  0.58361728  0.57973909  0.06210789  1
  Se  Se142  1  0.58357601  0.58545716  0.55038022  1
  Se  Se143  1  0.58150336  0.91836974  0.04989661  1
  Se  Se144  1  0.58765964  0.91508484  0.55631536  1
  Se  Se145  1  0.90818430  0.25017125  0.05265290  1
  Se  Se146  1  0.91509274  0.24976133  0.55506753  1
  Se  Se147  1  0.92315173  0.59190970  0.05017140  1
  Se  Se148  1  0.91467203  0.58334413  0.54860596  1
  Se  Se149  1  0.91822982  0.92169382  0.05335104  1
  Se  Se150  1  0.92318936  0.92810354  0.56613388  1
  Se  Se151  1  0.08846974  0.25416878  0.44434278  1
  Se  Se152  1  0.08139175  0.24922296  0.94725944  1
  Se  Se153  1  0.07601873  0.58818353  0.43357813  1
  Se  Se154  1  0.05825503  0.60485220  0.94008575  1
  Se  Se155  1  0.07930459  0.92267055  0.44995189  1
  Se  Se156  1  0.07621003  0.92392385  0.93674760  1
  Se  Se157  1  0.42010274  0.26299876  0.43032990  1
  Se  Se158  1  0.41549751  0.25668569  0.95143773  1
  Se  Se159  1  0.39725858  0.59953700  0.42957466  1
  Se  Se160  1  0.41179268  0.58263546  0.95890787  1
  Se  Se161  1  0.40525719  0.91905096  0.43701942  1
  Se  Se162  1  0.41694975  0.92160051  0.94628065  1
  Se  Se163  1  0.75437421  0.24818120  0.44823655  1
  Se  Se164  1  0.74542757  0.25586337  0.94551962  1
  Se  Se165  1  0.75973273  0.58012259  0.44963412  1
  Se  Se166  1  0.74834732  0.58012350  0.95164291  1
  Se  Se167  1  0.74061207  0.91882375  0.43748153  1
  Se  Se168  1  0.75014888  0.91623511  0.94825162  1
  Se  Se169  1  0.25147457  0.08816035  0.44945574  1
  Se  Se170  1  0.24785478  0.08592729  0.95196922  1
  Se  Se171  1  0.26037672  0.41934805  0.42730763  1
  Se  Se172  1  0.24410792  0.41931632  0.94924686  1
  Se  Se173  1  0.23394930  0.76246189  0.45067226  1
  Se  Se174  1  0.25790785  0.74869465  0.94507890  1
  Se  Se175  1  0.58766703  0.07931626  0.44575131  1
  Se  Se176  1  0.58611605  0.08927633  0.94553676  1
  Se  Se177  1  0.58329402  0.40856878  0.43434272  1
  Se  Se178  1  0.58079449  0.42435610  0.95416827  1
  Se  Se179  1  0.59046128  0.73348255  0.43626227  1
  Se  Se180  1  0.58140772  0.74863987  0.94747408  1
  Se  Se181  1  0.91425686  0.08652636  0.44970673  1
  Se  Se182  1  0.91195724  0.08893888  0.94678790  1
  Se  Se183  1  0.91770817  0.41729206  0.44825872  1
  Se  Se184  1  0.91208685  0.41561091  0.94352055  1
  Se  Se185  1  0.91776929  0.74625014  0.43618207  1
  Se  Se186  1  0.91281320  0.76045518  0.96021253  1
  Se  Se187  1  0.25036868  0.24899638  0.29907506  1
  Se  Se188  1  0.25006276  0.24664019  0.81175665  1
  Se  Se189  1  0.24589407  0.58490731  0.29320351  1
  Se  Se190  1  0.25395740  0.57844502  0.80786403  1
  Se  Se191  1  0.25111937  0.90984636  0.31789822  1
  Se  Se192  1  0.24545683  0.90360473  0.80690452  1
  Se  Se193  1  0.58994577  0.24565411  0.29661140  1
  Se  Se194  1  0.58544146  0.26336361  0.80474439  1
  Se  Se195  1  0.58133497  0.56001921  0.30440224  1
  Se  Se196  1  0.57621130  0.57724720  0.81727842  1
  Se  Se197  1  0.57488366  0.90998802  0.30210792  1
  Se  Se198  1  0.58290472  0.91564414  0.80708596  1
  Se  Se199  1  0.92350512  0.25238463  0.30704179  1
  Se  Se200  1  0.91639006  0.25816729  0.80173033  1
  Se  Se201  1  0.91711050  0.57699238  0.30487882  1
  Se  Se202  1  0.90462250  0.57472403  0.81097685  1
  Se  Se203  1  0.90349584  0.90302658  0.30036481  1
  Se  Se204  1  0.91244537  0.91108111  0.81818997  1
  Se  Se205  1  0.09120584  0.08928717  0.30823700  1
  Se  Se206  1  0.09028333  0.09285787  0.81454481  1
  Se  Se207  1  0.08133963  0.41109445  0.29568995  1
  Se  Se208  1  0.08125976  0.41310750  0.80481120  1
  Se  Se209  1  0.08773791  0.75052525  0.31410761  1
  Se  Se210  1  0.09211825  0.74498701  0.80957550  1
  Se  Se211  1  0.42411149  0.09001854  0.30844550  1
  Se  Se212  1  0.42843958  0.09880757  0.81198234  1
  Se  Se213  1  0.39771289  0.38833581  0.29971238  1
  Se  Se214  1  0.42220697  0.42083083  0.81601894  1
  Se  Se215  1  0.42968673  0.75886895  0.29768288  1
  Se  Se216  1  0.41749921  0.74215224  0.80607078  1
  Se  Se217  1  0.76195825  0.09020257  0.31145322  1
  Se  Se218  1  0.74664921  0.08888807  0.80508862  1
  Se  Se219  1  0.75715627  0.41554815  0.30792088  1
  Se  Se220  1  0.74085938  0.41338070  0.80277911  1
  Se  Se221  1  0.74382507  0.73976465  0.29443723  1
  Se  Se222  1  0.75835643  0.74536802  0.82020071  1
  Se  Se223  1  0.24602721  0.09307397  0.18386987  1
  Se  Se224  1  0.25163062  0.08871155  0.69433116  1
  Se  Se225  1  0.24940678  0.41559485  0.18806941  1
  Se  Se226  1  0.24561021  0.42231616  0.68971825  1
  Se  Se227  1  0.25457793  0.74552570  0.20067779  1
  Se  Se228  1  0.25430352  0.73950642  0.69610476  1
  Se  Se229  1  0.58040243  0.08793636  0.18626777  1
  Se  Se230  1  0.58456008  0.08521774  0.70252589  1
  Se  Se231  1  0.58046437  0.41525199  0.20790322  1
  Se  Se232  1  0.58462140  0.41686975  0.69754120  1
  Se  Se233  1  0.57726143  0.74627512  0.19778866  1
  Se  Se234  1  0.57711301  0.75258069  0.69205236  1
  Se  Se235  1  0.90919888  0.09319719  0.18939166  1
  Se  Se236  1  0.91068969  0.08954528  0.69414736  1
  Se  Se237  1  0.92025387  0.41275345  0.19505280  1
  Se  Se238  1  0.91718914  0.41550445  0.69643928  1
  Se  Se239  1  0.90460977  0.74770557  0.17996458  1
  Se  Se240  1  0.90173411  0.75786062  0.69765358  1
  Se  Se241  1  0.07836459  0.25145960  0.19195477  1
  Se  Se242  1  0.08620104  0.25374788  0.69872517  1
  Se  Se243  1  0.08764362  0.57608404  0.18328731  1
  Se  Se244  1  0.09176532  0.57293723  0.68955439  1
  Se  Se245  1  0.09466285  0.90656607  0.19837397  1
  Se  Se246  1  0.08640001  0.90840608  0.69368714  1
  Se  Se247  1  0.41392545  0.25273870  0.19581841  1
  Se  Se248  1  0.42823602  0.24029823  0.69017982  1
  Se  Se249  1  0.41174987  0.57910098  0.20010662  1
  Se  Se250  1  0.41559147  0.57943380  0.70010153  1
  Se  Se251  1  0.42373249  0.91755882  0.19274211  1
  Se  Se252  1  0.42500173  0.90857688  0.69113122  1
  Se  Se253  1  0.74712864  0.25606740  0.19922351  1
  Se  Se254  1  0.74989511  0.25357186  0.69508100  1
  Se  Se255  1  0.74965701  0.57951820  0.19624189  1
  Se  Se256  1  0.75244306  0.57786340  0.68957004  1
  Se  Se257  1  0.74686508  0.91061773  0.18198106  1
  Se  Se258  1  0.74208621  0.91984315  0.70757572  1
