# generated using pymatgen
data_In86Cu29Se144
_symmetry_space_group_name_H-M   'P 1'
_cell_length_a   17.58668184
_cell_length_b   17.58698648
_cell_length_c   23.44424667
_cell_angle_alpha   90.01276036
_cell_angle_beta   90.01110558
_cell_angle_gamma   90.02112778
_symmetry_Int_Tables_number   1
_chemical_formula_structural   In86Cu29Se144
_chemical_formula_sum   'In86 Cu29 Se144'
_cell_volume   7251.22815721
_cell_formula_units_Z   1
loop_
 _symmetry_equiv_pos_site_id
 _symmetry_equiv_pos_as_xyz
  1  'x, y, z'
loop_
 _atom_site_type_symbol
 _atom_site_label
 _atom_site_symmetry_multiplicity
 _atom_site_fract_x
 _atom_site_fract_y
 _atom_site_fract_z
 _atom_site_occupancy
  In  In0  1  0.00091388  0.15065826  0.13313612  1
  In  In1  1  0.00875790  0.17912372  0.61394494  1
  In  In2  1  0.00689264  0.50227863  0.12459868  1
  In  In3  1  -0.01361092  0.50042371  0.62350166  1
  In  In4  1  0.00016683  0.83068429  0.12495926  1
  In  In5  1  -0.00077604  0.82977136  0.61595541  1
  In  In6  1  0.32487376  0.18481950  0.13117245  1
  In  In7  1  0.33100934  0.17774973  0.62393163  1
  In  In8  1  0.33196152  0.50403515  0.12508212  1
  In  In9  1  0.33228954  0.48410837  0.62476600  1
  In  In10  1  0.32172282  0.82965109  0.12216097  1
  In  In11  1  0.33299162  0.83171071  0.61632599  1
  In  In12  1  0.66949690  0.16611364  0.12461939  1
  In  In13  1  0.66825635  0.14793692  0.62779688  1
  In  In14  1  0.67637458  0.52183590  0.10294625  1
  In  In15  1  0.67403824  0.51356838  0.62404519  1
  In  In16  1  0.65922353  0.81409746  0.10499474  1
  In  In17  1  0.66999141  0.83428715  0.62451753  1
  In  In18  1  0.15355849  0.00930295  0.37470697  1
  In  In19  1  0.18411397  -0.00450080  0.89526174  1
  In  In20  1  0.16367057  0.31086458  0.37283075  1
  In  In21  1  0.16527235  0.33114642  0.87701579  1
  In  In22  1  0.17554463  0.67734564  0.36464170  1
  In  In23  1  0.16876119  0.66817837  0.88559211  1
  In  In24  1  0.49480906  -0.01455942  0.37515222  1
  In  In25  1  0.50604764  -0.02627432  0.88206802  1
  In  In26  1  0.50004167  0.34512902  0.37534176  1
  In  In27  1  0.49965766  0.35126016  0.87272421  1
  In  In28  1  0.49114805  0.67116426  0.37710103  1
  In  In29  1  0.50800068  0.66501548  0.88349577  1
  In  In30  1  0.84561711  -0.01301040  0.38182394  1
  In  In31  1  0.82261822  -0.01003397  0.86711627  1
  In  In32  1  0.84025971  0.34208500  0.39236231  1
  In  In33  1  0.84952627  0.33232687  0.87156403  1
  In  In34  1  0.84366425  0.65766862  0.37751337  1
  In  In35  1  0.81534667  0.68362001  0.89372041  1
  In  In36  1  0.01489230  0.15756646  0.38946529  1
  In  In37  1  0.00584014  0.17511684  0.87119307  1
  In  In38  1  -0.01407131  0.50446266  0.37122080  1
  In  In39  1  0.00436635  0.49633133  0.88090873  1
  In  In40  1  -0.00063178  0.83352717  0.37041554  1
  In  In41  1  0.00083961  0.83540784  0.87898540  1
  In  In42  1  0.31283018  0.16412332  0.36826432  1
  In  In43  1  0.31778115  0.16376848  0.87764188  1
  In  In44  1  0.33965624  0.50831260  0.36560732  1
  In  In45  1  0.33823043  0.49281889  0.87862047  1
  In  In46  1  0.34058869  0.82361158  0.37691522  1
  In  In47  1  0.34755955  0.82930390  0.89347419  1
  In  In48  1  0.67036632  0.18079351  0.38331965  1
  In  In49  1  0.68182581  0.16097745  0.86683245  1
  In  In50  1  0.66995406  0.49905162  0.38374477  1
  In  In51  1  0.65780691  0.51775385  0.88677054  1
  In  In52  1  0.66543562  0.83024325  0.37989523  1
  In  In53  1  0.66846695  0.82833908  0.87309364  1
  In  In54  1  0.16041728  -0.00874556  0.11757798  1
  In  In55  1  0.16346228  -0.00098762  0.61701930  1
  In  In56  1  0.17169032  0.34503059  0.12051497  1
  In  In57  1  0.17281546  0.32452914  0.62809157  1
  In  In58  1  0.16400484  0.66588755  0.12783850  1
  In  In59  1  0.15678758  0.67058202  0.62042433  1
  In  In60  1  0.49781961  -0.01447577  0.12137599  1
  In  In61  1  0.51287508  -0.00601825  0.62599759  1
  In  In62  1  0.48571648  0.34500557  0.12735008  1
  In  In63  1  0.48389034  0.33318248  0.62646103  1
  In  In64  1  0.49443202  0.65979863  0.11862779  1
  In  In65  1  0.51069152  0.67718695  0.61872213  1
  In  In66  1  0.84827479  -0.00767121  0.13105083  1
  In  In67  1  0.82653710  -0.00847400  0.61519910  1
  In  In68  1  0.82852501  0.34000311  0.12589539  1
  In  In69  1  0.84681405  0.34499782  0.61693734  1
  In  In70  1  0.83835423  0.67309323  0.12005851  1
  In  In71  1  0.82540036  0.66133423  0.62241005  1
  In  In72  1  0.00305952  0.33415372  0.25441504  1
  In  In73  1  0.33662214  0.00128564  0.75931573  1
  In  In74  1  0.66391840  0.34148946  0.25499799  1
  In  In75  1  0.66799065  0.66484774  0.24114018  1
  In  In76  1  0.84173759  0.16587454  -0.00648524  1
  In  In77  1  0.16512302  0.49931386  0.49609392  1
  In  In78  1  0.66921799  0.33605510  0.74910835  1
  In  In79  1  -0.01107249  0.66324341  0.74619588  1
  In  In80  1  0.32278617  -0.00330948  0.24285576  1
  In  In81  1  0.33524128  0.65952694  0.75685235  1
  In  In82  1  0.49688578  0.16751324  0.00144947  1
  In  In83  1  0.67255232  -0.00935781  0.25670437  1
  In  In84  1  -0.00207758  0.00299548  0.75430145  1
  In  In85  1  0.49847178  0.16448318  0.50554604  1
  Cu  Cu86  1  -0.00099259  -0.00597386  0.00194197  1
  Cu  Cu87  1  0.66607189  -0.00686021  0.50169066  1
  Cu  Cu88  1  0.49949507  0.50581707  0.75453497  1
  Cu  Cu89  1  -0.00169107  0.00023279  0.49868129  1
  Cu  Cu90  1  0.50156325  0.50201298  0.24579169  1
  Cu  Cu91  1  0.66994839  0.33879475  0.50710536  1
  Cu  Cu92  1  0.32688190  0.66718893  0.00538369  1
  Cu  Cu93  1  0.16007620  0.48464662  0.75229948  1
  Cu  Cu94  1  0.33002501  0.34012049  0.00143864  1
  Cu  Cu95  1  0.83515462  0.83199085  0.24679357  1
  Cu  Cu96  1  0.51229691  0.83189851  0.74929626  1
  Cu  Cu97  1  0.16608035  0.16906466  0.75131507  1
  Cu  Cu98  1  0.83346822  0.50147529  0.75214734  1
  Cu  Cu99  1  0.66396124  0.66648670  0.50044581  1
  Cu  Cu100  1  0.17029904  0.50078536  0.24576771  1
  Cu  Cu101  1  0.83805445  0.16335609  0.74258843  1
  Cu  Cu102  1  0.83995420  0.16677519  0.25946245  1
  Cu  Cu103  1  0.49474424  0.15988561  0.24496202  1
  Cu  Cu104  1  0.00463325  0.66480565  0.00424108  1
  Cu  Cu105  1  0.32772642  -0.00368873  0.49382625  1
  Cu  Cu106  1  0.00163777  0.67729249  0.49592794  1
  Cu  Cu107  1  0.16824808  0.83265437  0.75257708  1
  Cu  Cu108  1  0.49490679  0.16592573  0.74851264  1
  Cu  Cu109  1  0.66411109  0.34282631  -0.00200043  1
  Cu  Cu110  1  0.67331976  -0.00314150  -0.00344140  1
  Cu  Cu111  1  0.00489248  0.33000473  0.00010796  1
  Cu  Cu112  1  0.33763658  0.66170344  0.49308489  1
  Cu  Cu113  1  0.16136880  0.83519030  0.24626267  1
  Cu  Cu114  1  0.33043483  0.33122547  0.49817101  1
  Se  Se115  1  0.07698036  0.08339132  0.05364006  1
  Se  Se116  1  0.08454263  0.08420317  0.54979213  1
  Se  Se117  1  0.08361255  0.41978272  0.05155391  1
  Se  Se118  1  0.08226402  0.41433832  0.56334087  1
  Se  Se119  1  0.08670117  0.75130043  0.05646370  1
  Se  Se120  1  0.09051877  0.75685419  0.54701624  1
  Se  Se121  1  0.41117118  0.08682315  0.06904433  1
  Se  Se122  1  0.40622091  0.07088780  0.56240900  1
  Se  Se123  1  0.41575078  0.42458637  0.05162780  1
  Se  Se124  1  0.41599110  0.41475870  0.54901432  1
  Se  Se125  1  0.41249716  0.75156144  0.05539569  1
  Se  Se126  1  0.41610799  0.74708793  0.55127565  1
  Se  Se127  1  0.75180058  0.07722301  0.05770468  1
  Se  Se128  1  0.74793605  0.08355385  0.54876462  1
  Se  Se129  1  0.75548876  0.41743577  0.05027269  1
  Se  Se130  1  0.75296252  0.42624651  0.55649091  1
  Se  Se131  1  0.75273498  0.73942738  0.04429602  1
  Se  Se132  1  0.74858726  0.74927188  0.55375893  1
  Se  Se133  1  0.24825989  0.25400418  0.05231463  1
  Se  Se134  1  0.24687743  0.24696025  0.54981282  1
  Se  Se135  1  0.24397717  0.58178699  0.05679157  1
  Se  Se136  1  0.25758566  0.58822737  0.55967847  1
  Se  Se137  1  0.25844903  0.92544603  0.05301220  1
  Se  Se138  1  0.24645821  0.91369976  0.55135105  1
  Se  Se139  1  0.58925426  0.26096360  0.06088101  1
  Se  Se140  1  0.58973670  0.25557769  0.56595293  1
  Se  Se141  1  0.58038194  0.59436627  0.04295923  1
  Se  Se142  1  0.58130502  0.58039412  0.55314469  1
  Se  Se143  1  0.58442991  0.91796413  0.04844850  1
  Se  Se144  1  0.58029152  0.90962239  0.55192264  1
  Se  Se145  1  0.92281616  0.25281818  0.06281250  1
  Se  Se146  1  0.90722275  0.24433076  0.55194049  1
  Se  Se147  1  0.92029842  0.58172446  0.05650002  1
  Se  Se148  1  0.92220225  0.59394903  0.55350270  1
  Se  Se149  1  0.91403729  0.91164568  0.05386463  1
  Se  Se150  1  0.91609045  0.91319071  0.54931626  1
  Se  Se151  1  0.07273165  0.26588932  0.45060925  1
  Se  Se152  1  0.08590026  0.24425689  0.94764926  1
  Se  Se153  1  0.08188219  0.59492395  0.43589562  1
  Se  Se154  1  0.08605172  0.58074070  0.94911806  1
  Se  Se155  1  0.07994217  0.91731638  0.44173800  1
  Se  Se156  1  0.08587722  0.91223561  0.94919010  1
  Se  Se157  1  0.41249616  0.24895540  0.43824145  1
  Se  Se158  1  0.41208104  0.26113356  0.93953318  1
  Se  Se159  1  0.42042120  0.57470702  0.44437662  1
  Se  Se160  1  0.40803831  0.59027207  0.94335444  1
  Se  Se161  1  0.41582113  0.91112078  0.44885636  1
  Se  Se162  1  0.39759926  0.94427108  0.95070331  1
  Se  Se163  1  0.75256516  0.25455462  0.45462610  1
  Se  Se164  1  0.74359527  0.25898460  0.94010339  1
  Se  Se165  1  0.75207184  0.58670432  0.44771982  1
  Se  Se166  1  0.76584167  0.56855948  0.94985629  1
  Se  Se167  1  0.75023516  0.91244061  0.44623288  1
  Se  Se168  1  0.75422627  0.91140309  0.94400586  1
  Se  Se169  1  0.24516129  0.08387409  0.44518576  1
  Se  Se170  1  0.24991299  0.09457884  0.95857280  1
  Se  Se171  1  0.25567073  0.41220792  0.43411669  1
  Se  Se172  1  0.24531357  0.41935312  0.94490751  1
  Se  Se173  1  0.25102062  0.74660450  0.44514468  1
  Se  Se174  1  0.24696001  0.75529889  0.95250151  1
  Se  Se175  1  0.58632499  0.07536892  0.44013063  1
  Se  Se176  1  0.59432663  0.08288055  0.93989596  1
  Se  Se177  1  0.58467188  0.41427476  0.44920808  1
  Se  Se178  1  0.57616597  0.42409497  0.94862481  1
  Se  Se179  1  0.57989641  0.74763213  0.44551697  1
  Se  Se180  1  0.55946438  0.77973671  0.93923114  1
  Se  Se181  1  0.91212031  0.08486337  0.44837167  1
  Se  Se182  1  0.92550819  0.07057097  0.93289917  1
  Se  Se183  1  0.92304437  0.43150415  0.45348310  1
  Se  Se184  1  0.91858388  0.41166172  0.94846124  1
  Se  Se185  1  0.91396009  0.75555315  0.44214456  1
  Se  Se186  1  0.92473539  0.75000162  0.94905977  1
  Se  Se187  1  0.25615478  0.25873314  0.29732125  1
  Se  Se188  1  0.25039788  0.25141011  0.80486830  1
  Se  Se189  1  0.25311650  0.58692791  0.29831661  1
  Se  Se190  1  0.23580279  0.57238252  0.81026779  1
  Se  Se191  1  0.24101744  0.91077747  0.31201181  1
  Se  Se192  1  0.24953015  0.90463125  0.81568038  1
  Se  Se193  1  0.57372294  0.23979785  0.30757021  1
  Se  Se194  1  0.57782145  0.24530510  0.81031972  1
  Se  Se195  1  0.58317565  0.57696033  0.30887162  1
  Se  Se196  1  0.58309646  0.58830442  0.80670759  1
  Se  Se197  1  0.57267268  0.89873765  0.30378740  1
  Se  Se198  1  0.59058337  0.91957774  0.80271263  1
  Se  Se199  1  0.91390688  0.24990908  0.31939348  1
  Se  Se200  1  0.91900850  0.24547228  0.79838388  1
  Se  Se201  1  0.91781410  0.58921440  0.29831976  1
  Se  Se202  1  0.90939333  0.58056516  0.81649571  1
  Se  Se203  1  0.91643375  0.91798682  0.30008480  1
  Se  Se204  1  0.90981808  0.90060962  0.80176266  1
  Se  Se205  1  0.08540588  0.09926921  0.30429535  1
  Se  Se206  1  0.09995333  0.07971962  0.81395319  1
  Se  Se207  1  0.09413492  0.42596111  0.31348076  1
  Se  Se208  1  0.07480515  0.40812156  0.80779628  1
  Se  Se209  1  0.07930773  0.74965273  0.29998902  1
  Se  Se210  1  0.08726382  0.74863096  0.80748040  1
  Se  Se211  1  0.41872382  0.08227490  0.30853908  1
  Se  Se212  1  0.42809536  0.08842986  0.81959866  1
  Se  Se213  1  0.42032293  0.41680268  0.29987614  1
  Se  Se214  1  0.41246406  0.41897419  0.79920001  1
  Se  Se215  1  0.40841692  0.73956773  0.30247934  1
  Se  Se216  1  0.42203236  0.75966064  0.80820088  1
  Se  Se217  1  0.75370808  0.08919660  0.31687311  1
  Se  Se218  1  0.75459234  0.07897914  0.79388393  1
  Se  Se219  1  0.76155251  0.42281858  0.31247441  1
  Se  Se220  1  0.75240705  0.42327972  0.81494027  1
  Se  Se221  1  0.75372078  0.75324071  0.30706449  1
  Se  Se222  1  0.75064468  0.74255426  0.80661915  1
  Se  Se223  1  0.23490765  0.09071165  0.18875402  1
  Se  Se224  1  0.24542085  0.08458337  0.69260206  1
  Se  Se225  1  0.25424629  0.41626990  0.19545619  1
  Se  Se226  1  0.25070280  0.41075447  0.69834098  1
  Se  Se227  1  0.24721710  0.75049802  0.19693755  1
  Se  Se228  1  0.24650182  0.75093625  0.69270975  1
  Se  Se229  1  0.58117368  0.08170960  0.19119180  1
  Se  Se230  1  0.57953187  0.08034544  0.70063485  1
  Se  Se231  1  0.58787620  0.42974016  0.18403418  1
  Se  Se232  1  0.57569290  0.42386924  0.68994459  1
  Se  Se233  1  0.57510461  0.75612904  0.18735950  1
  Se  Se234  1  0.59067443  0.74657691  0.69521229  1
  Se  Se235  1  0.91576293  0.07849247  0.20562894  1
  Se  Se236  1  0.91869446  0.08495271  0.68202694  1
  Se  Se237  1  0.91151066  0.42252655  0.19503428  1
  Se  Se238  1  0.91597004  0.41791890  0.69901751  1
  Se  Se239  1  0.91833430  0.74715485  0.19518016  1
  Se  Se240  1  0.90699355  0.76032770  0.68808584  1
  Se  Se241  1  0.08768526  0.25031601  0.18763112  1
  Se  Se242  1  0.08188113  0.24793918  0.69595593  1
  Se  Se243  1  0.08155052  0.58357263  0.19860566  1
  Se  Se244  1  0.08983433  0.57318333  0.69187944  1
  Se  Se245  1  0.07926284  0.91981737  0.19358883  1
  Se  Se246  1  0.08817065  0.91021812  0.69227608  1
  Se  Se247  1  0.41860866  0.25476032  0.19905239  1
  Se  Se248  1  0.41054070  0.25017935  0.70008572  1
  Se  Se249  1  0.41644715  0.58583350  0.19476706  1
  Se  Se250  1  0.42097235  0.57936382  0.68704697  1
  Se  Se251  1  0.42015554  0.90456090  0.19459866  1
  Se  Se252  1  0.41983471  0.90794294  0.69391204  1
  Se  Se253  1  0.75738705  0.24186053  0.19865986  1
  Se  Se254  1  0.75557958  0.24694278  0.68623206  1
  Se  Se255  1  0.76022691  0.57260914  0.18804023  1
  Se  Se256  1  0.75047425  0.58679890  0.70116856  1
  Se  Se257  1  0.74791068  0.90276373  0.18473981  1
  Se  Se258  1  0.74047282  0.93017218  0.69083811  1
