# generated using pymatgen
data_In86Cu29Se144
_symmetry_space_group_name_H-M   'P 1'
_cell_length_a   17.57672162
_cell_length_b   17.57603424
_cell_length_c   23.43313606
_cell_angle_alpha   89.96920561
_cell_angle_beta   90.01175603
_cell_angle_gamma   90.01843718
_symmetry_Int_Tables_number   1
_chemical_formula_structural   In86Cu29Se144
_chemical_formula_sum   'In86 Cu29 Se144'
_cell_volume   7239.17514874
_cell_formula_units_Z   1
loop_
 _symmetry_equiv_pos_site_id
 _symmetry_equiv_pos_as_xyz
  1  'x, y, z'
loop_
 _atom_site_type_symbol
 _atom_site_label
 _atom_site_symmetry_multiplicity
 _atom_site_fract_x
 _atom_site_fract_y
 _atom_site_fract_z
 _atom_site_occupancy
  In  In0  1  0.02253555  0.16011606  0.11629091  1
  In  In1  1  -0.00996793  0.15961950  0.62854679  1
  In  In2  1  0.00083690  0.50124601  0.12683644  1
  In  In3  1  0.01769220  0.50041194  0.62592415  1
  In  In4  1  -0.01774821  0.82743797  0.12198817  1
  In  In5  1  -0.01662684  0.83960921  0.64239773  1
  In  In6  1  0.33450134  0.16743856  0.12598129  1
  In  In7  1  0.34432992  0.17763474  0.62488676  1
  In  In8  1  0.33577561  0.49747162  0.12426922  1
  In  In9  1  0.33561556  0.50328059  0.62347148  1
  In  In10  1  0.34412722  0.82358980  0.13606290  1
  In  In11  1  0.33337994  0.81616785  0.62335987  1
  In  In12  1  0.65224585  0.16737644  0.12422182  1
  In  In13  1  0.67386417  0.16680656  0.62765987  1
  In  In14  1  0.67043194  0.50575507  0.11940310  1
  In  In15  1  0.64736048  0.50323416  0.62557757  1
  In  In16  1  0.68808559  0.81672764  0.14227484  1
  In  In17  1  0.66594249  0.82982554  0.61312073  1
  In  In18  1  0.16885676  -0.01278317  0.37277386  1
  In  In19  1  0.16713503  0.01408369  0.87573724  1
  In  In20  1  0.18744031  0.35728451  0.36216230  1
  In  In21  1  0.17374359  0.32863645  0.88193489  1
  In  In22  1  0.15776668  0.65707579  0.36910476  1
  In  In23  1  0.16041941  0.66240373  0.87621876  1
  In  In24  1  0.49271721  -0.00617753  0.36916120  1
  In  In25  1  0.51003407  -0.00027478  0.87875276  1
  In  In26  1  0.48552530  0.35433587  0.37859063  1
  In  In27  1  0.49673599  0.33780531  0.87856165  1
  In  In28  1  0.50293006  0.66480375  0.36667382  1
  In  In29  1  0.48084625  0.66922500  0.87332200  1
  In  In30  1  0.82324206  -0.00154656  0.37026530  1
  In  In31  1  0.83756196  -0.01841998  0.88124445  1
  In  In32  1  0.83619168  0.32346207  0.36729493  1
  In  In33  1  0.83911831  0.35021241  0.87585844  1
  In  In34  1  0.84347327  0.68236041  0.36050004  1
  In  In35  1  0.83642924  0.66439295  0.88053819  1
  In  In36  1  -0.01166488  0.16975182  0.37172101  1
  In  In37  1  0.01463820  0.16887789  0.87624273  1
  In  In38  1  0.01220476  0.50895722  0.37090867  1
  In  In39  1  -0.00507443  0.51219712  0.88566937  1
  In  In40  1  0.00347440  0.82723157  0.37630570  1
  In  In41  1  -0.01367726  0.82478374  0.86436423  1
  In  In42  1  0.33631971  0.17417727  0.36757606  1
  In  In43  1  0.32250027  0.17992276  0.88090668  1
  In  In44  1  0.33339832  0.49834149  0.37055063  1
  In  In45  1  0.33207733  0.49928031  0.87953039  1
  In  In46  1  0.33956341  0.84100676  0.36660980  1
  In  In47  1  0.34058767  0.81320599  0.87033635  1
  In  In48  1  0.67807907  0.16506544  0.36726776  1
  In  In49  1  0.64770280  0.16530307  0.88384277  1
  In  In50  1  0.64362116  0.50816258  0.37342188  1
  In  In51  1  0.67405880  0.49423260  0.88204692  1
  In  In52  1  0.66677939  0.82814977  0.36979354  1
  In  In53  1  0.67147161  0.84216351  0.87550094  1
  In  In54  1  0.16734243  0.01263827  0.12175978  1
  In  In55  1  0.15719440  -0.01254327  0.62559893  1
  In  In56  1  0.16949220  0.33427260  0.12385307  1
  In  In57  1  0.17185882  0.35334932  0.62129190  1
  In  In58  1  0.18012881  0.65115532  0.13262890  1
  In  In59  1  0.17288727  0.65939429  0.63118231  1
  In  In60  1  0.49959902  0.00281342  0.13037739  1
  In  In61  1  0.50835962  -0.00405467  0.62020062  1
  In  In62  1  0.49321699  0.32558887  0.12088138  1
  In  In63  1  0.48138662  0.35280146  0.64264807  1
  In  In64  1  0.51128535  0.65124646  0.13794073  1
  In  In65  1  0.49521235  0.65635301  0.61630979  1
  In  In66  1  0.84042356  -0.03292388  0.12472521  1
  In  In67  1  0.84726623  -0.01534025  0.62968378  1
  In  In68  1  0.83175481  0.35268563  0.12378290  1
  In  In69  1  0.83238055  0.31972404  0.63140838  1
  In  In70  1  0.83873672  0.66579777  0.12780441  1
  In  In71  1  0.83405384  0.68585434  0.62574560  1
  In  In72  1  0.16543657  0.82282243  0.49940090  1
  In  In73  1  0.83266260  0.16694244  0.00091706  1
  In  In74  1  0.66584703  0.00011917  0.75133829  1
  In  In75  1  0.00484449  0.33632375  0.75389820  1
  In  In76  1  0.15924219  0.84181861  0.00395514  1
  In  In77  1  0.66548380  0.66568416  0.74726505  1
  In  In78  1  0.50423079  0.83337090  -0.00149540  1
  In  In79  1  0.82833755  0.50530506  0.49757205  1
  In  In80  1  0.16098210  0.17036394  0.50548025  1
  In  In81  1  0.66061798  0.33745019  0.25123637  1
  In  In82  1  0.32844961  0.00021663  0.74672020  1
  In  In83  1  0.50509386  0.17209523  0.49298669  1
  In  In84  1  0.00303954  -0.00077360  0.24359748  1
  In  In85  1  0.83244416  0.15941297  0.49948663  1
  Cu  Cu86  1  0.66132221  0.33799554  0.00223913  1
  Cu  Cu87  1  0.83897722  0.16736199  0.24198911  1
  Cu  Cu88  1  0.33741929  0.66171123  0.49553576  1
  Cu  Cu89  1  0.50305780  0.83761858  0.25163701  1
  Cu  Cu90  1  0.82529656  0.16234125  0.75348528  1
  Cu  Cu91  1  0.16740326  0.17048995  0.75199996  1
  Cu  Cu92  1  0.66775897  -0.00494377  0.00574644  1
  Cu  Cu93  1  0.33247208  0.65867625  0.00463965  1
  Cu  Cu94  1  0.66988555  0.66776775  0.00638557  1
  Cu  Cu95  1  0.66842266  -0.01402209  0.49530490  1
  Cu  Cu96  1  0.00845671  0.33843202  0.49289454  1
  Cu  Cu97  1  0.49576034  0.50038192  0.75269036  1
  Cu  Cu98  1  0.17492651  0.50475973  0.75408990  1
  Cu  Cu99  1  0.00130649  0.66458273  0.00235668  1
  Cu  Cu100  1  0.33588618  0.00471043  0.00365689  1
  Cu  Cu101  1  0.00156900  0.66770023  0.49891570  1
  Cu  Cu102  1  0.16416376  0.82955704  0.75083310  1
  Cu  Cu103  1  0.16974847  0.17042310  0.24540798  1
  Cu  Cu104  1  0.16459692  0.49725128  0.24640528  1
  Cu  Cu105  1  0.49393344  0.17542358  0.75859085  1
  Cu  Cu106  1  0.16832278  0.82981067  0.24965868  1
  Cu  Cu107  1  0.83457395  0.50460667  0.24838369  1
  Cu  Cu108  1  0.65931090  0.33755813  0.50546848  1
  Cu  Cu109  1  0.00304688  0.33873637  0.00155047  1
  Cu  Cu110  1  0.66307484  0.66938776  0.49348053  1
  Cu  Cu111  1  0.33401247  0.33262926  0.00248690  1
  Cu  Cu112  1  0.83178465  0.50293627  0.75540813  1
  Cu  Cu113  1  0.33361904  -0.00180761  0.49147625  1
  Cu  Cu114  1  0.49571643  0.16694616  0.24980654  1
  Se  Se115  1  0.08700448  0.07362899  0.04278519  1
  Se  Se116  1  0.06952397  0.07248216  0.55711737  1
  Se  Se117  1  0.08543818  0.42028382  0.05716041  1
  Se  Se118  1  0.08719654  0.42339090  0.54720127  1
  Se  Se119  1  0.08396237  0.74003407  0.06488356  1
  Se  Se120  1  0.07691146  0.74384320  0.56649181  1
  Se  Se121  1  0.42105884  0.08396034  0.05794168  1
  Se  Se122  1  0.41164292  0.07853598  0.55377322  1
  Se  Se123  1  0.41870080  0.41719796  0.05322571  1
  Se  Se124  1  0.42211122  0.41933210  0.55788411  1
  Se  Se125  1  0.41740078  0.74122762  0.05888937  1
  Se  Se126  1  0.41784651  0.74826465  0.54881936  1
  Se  Se127  1  0.74798697  0.07738642  0.06506437  1
  Se  Se128  1  0.74294376  0.06714808  0.56010483  1
  Se  Se129  1  0.75007615  0.42195584  0.04852357  1
  Se  Se130  1  0.74775221  0.41056431  0.56395612  1
  Se  Se131  1  0.75488373  0.75068954  0.05727295  1
  Se  Se132  1  0.75153452  0.74778713  0.54660188  1
  Se  Se133  1  0.25061217  0.24757116  0.05553187  1
  Se  Se134  1  0.25838049  0.26109054  0.55647212  1
  Se  Se135  1  0.24629868  0.57442634  0.05264812  1
  Se  Se136  1  0.25165545  0.58715291  0.55433365  1
  Se  Se137  1  0.26452392  0.91670623  0.06345738  1
  Se  Se138  1  0.25735138  0.92032417  0.55658287  1
  Se  Se139  1  0.58002844  0.24856260  0.04994329  1
  Se  Se140  1  0.58374567  0.25500632  0.56612544  1
  Se  Se141  1  0.57964936  0.58543285  0.05291047  1
  Se  Se142  1  0.58320632  0.58102017  0.54565163  1
  Se  Se143  1  0.59121679  0.91191077  0.06750110  1
  Se  Se144  1  0.57704274  0.91059330  0.54708390  1
  Se  Se145  1  0.92170988  0.25799246  0.06184252  1
  Se  Se146  1  0.92701900  0.25840636  0.55333794  1
  Se  Se147  1  0.91633443  0.58170284  0.05616314  1
  Se  Se148  1  0.92213381  0.58709442  0.56137343  1
  Se  Se149  1  0.93398294  0.92502668  0.04769878  1
  Se  Se150  1  0.91830911  0.90398566  0.55636762  1
  Se  Se151  1  0.08252956  0.25452298  0.43310563  1
  Se  Se152  1  0.08482693  0.25155749  0.95058763  1
  Se  Se153  1  0.08636978  0.58292014  0.44942887  1
  Se  Se154  1  0.08985441  0.58207774  0.95309778  1
  Se  Se155  1  0.07690108  0.92312625  0.44672537  1
  Se  Se156  1  0.07772982  0.91697015  0.93038323  1
  Se  Se157  1  0.40364131  0.26067504  0.44582650  1
  Se  Se158  1  0.41768371  0.24934687  0.94759048  1
  Se  Se159  1  0.41965941  0.58318585  0.43773255  1
  Se  Se160  1  0.41857026  0.58150527  0.94844484  1
  Se  Se161  1  0.41882620  0.91282036  0.44417194  1
  Se  Se162  1  0.40595187  0.91993944  0.93918789  1
  Se  Se163  1  0.74136464  0.25941121  0.44519834  1
  Se  Se164  1  0.74468943  0.25965537  0.94037739  1
  Se  Se165  1  0.74534906  0.59233136  0.43202025  1
  Se  Se166  1  0.75124478  0.58424457  0.94884615  1
  Se  Se167  1  0.75372330  0.90856631  0.44064262  1
  Se  Se168  1  0.75024778  0.91053080  0.95362147  1
  Se  Se169  1  0.25137880  0.08246954  0.43902618  1
  Se  Se170  1  0.25116933  0.08547111  0.94891563  1
  Se  Se171  1  0.24838351  0.42600807  0.44553314  1
  Se  Se172  1  0.24967673  0.41724823  0.94991860  1
  Se  Se173  1  0.25721006  0.74286876  0.43447145  1
  Se  Se174  1  0.25432608  0.74687173  0.94820403  1
  Se  Se175  1  0.59627986  0.07736205  0.43790881  1
  Se  Se176  1  0.57931546  0.07747529  0.95704349  1
  Se  Se177  1  0.58052871  0.41929485  0.44879980  1
  Se  Se178  1  0.57903669  0.42181088  0.94788712  1
  Se  Se179  1  0.57865610  0.75079358  0.43944388  1
  Se  Se180  1  0.59174885  0.74006417  0.93739934  1
  Se  Se181  1  0.92316773  0.07040793  0.44077414  1
  Se  Se182  1  0.92247156  0.08113183  0.93944944  1
  Se  Se183  1  0.91720872  0.41230045  0.43730860  1
  Se  Se184  1  0.91583816  0.42190787  0.95218385  1
  Se  Se185  1  0.91743124  0.74707285  0.44444634  1
  Se  Se186  1  0.92087226  0.74933557  0.94726381  1
  Se  Se187  1  0.25250333  0.25417174  0.29916265  1
  Se  Se188  1  0.24913891  0.25583257  0.80290586  1
  Se  Se189  1  0.24646546  0.58101014  0.30193926  1
  Se  Se190  1  0.25502487  0.58897592  0.81005858  1
  Se  Se191  1  0.25063396  0.91909440  0.29785105  1
  Se  Se192  1  0.24538705  0.90867579  0.81267377  1
  Se  Se193  1  0.57249000  0.24708945  0.31476915  1
  Se  Se194  1  0.58307932  0.25330556  0.81003195  1
  Se  Se195  1  0.57629693  0.57925061  0.29373195  1
  Se  Se196  1  0.57927594  0.57869894  0.81282549  1
  Se  Se197  1  0.58724860  0.92160454  0.30413341  1
  Se  Se198  1  0.57085406  0.90487067  0.80405857  1
  Se  Se199  1  0.92087080  0.25162649  0.29441271  1
  Se  Se200  1  0.91008469  0.24389131  0.81095277  1
  Se  Se201  1  0.92162298  0.58333351  0.30275162  1
  Se  Se202  1  0.91666644  0.58326259  0.80796005  1
  Se  Se203  1  0.91592457  0.91254464  0.30703928  1
  Se  Se204  1  0.91100533  0.91921836  0.79985225  1
  Se  Se205  1  0.09073559  0.08981647  0.30832129  1
  Se  Se206  1  0.08322552  0.08487560  0.80023729  1
  Se  Se207  1  0.07828060  0.41440151  0.30060614  1
  Se  Se208  1  0.09043657  0.42682658  0.81529979  1
  Se  Se209  1  0.08170608  0.75002049  0.30290856  1
  Se  Se210  1  0.08270339  0.74495304  0.80491329  1
  Se  Se211  1  0.41238110  0.08198682  0.30310453  1
  Se  Se212  1  0.41727515  0.08547845  0.81369675  1
  Se  Se213  1  0.41195721  0.41626175  0.29785753  1
  Se  Se214  1  0.41294837  0.41729687  0.80768277  1
  Se  Se215  1  0.41704188  0.75184232  0.30070906  1
  Se  Se216  1  0.42232505  0.75069869  0.79351566  1
  Se  Se217  1  0.75511295  0.08491252  0.29545458  1
  Se  Se218  1  0.74983700  0.08657887  0.82000847  1
  Se  Se219  1  0.75370190  0.42655131  0.31199774  1
  Se  Se220  1  0.74834122  0.41668202  0.80399559  1
  Se  Se221  1  0.74118546  0.74390971  0.29754725  1
  Se  Se222  1  0.75483110  0.75429835  0.80841208  1
  Se  Se223  1  0.25160741  0.08229924  0.19565175  1
  Se  Se224  1  0.24067016  0.09261107  0.68419940  1
  Se  Se225  1  0.25115169  0.41529556  0.19453451  1
  Se  Se226  1  0.25328353  0.42139250  0.69687148  1
  Se  Se227  1  0.25286338  0.74462367  0.19973171  1
  Se  Se228  1  0.25132148  0.74847775  0.69942778  1
  Se  Se229  1  0.58373658  0.08541997  0.20038806  1
  Se  Se230  1  0.57036223  0.09457157  0.69516531  1
  Se  Se231  1  0.57640138  0.42197814  0.18571950  1
  Se  Se232  1  0.58657421  0.41814826  0.70390758  1
  Se  Se233  1  0.58352177  0.74898231  0.20091107  1
  Se  Se234  1  0.57763427  0.75211723  0.68410461  1
  Se  Se235  1  0.91482757  0.08719940  0.17944969  1
  Se  Se236  1  0.91008413  0.08151178  0.70005716  1
  Se  Se237  1  0.91759462  0.41790637  0.19835230  1
  Se  Se238  1  0.91239109  0.42379438  0.69128149  1
  Se  Se239  1  0.90768544  0.75720244  0.19902720  1
  Se  Se240  1  0.92247955  0.73491866  0.70408992  1
  Se  Se241  1  0.08314799  0.24883707  0.19163135  1
  Se  Se242  1  0.08861136  0.24848626  0.68618970  1
  Se  Se243  1  0.07982420  0.58533336  0.19803968  1
  Se  Se244  1  0.08508226  0.58271170  0.70183972  1
  Se  Se245  1  0.09190977  0.90706918  0.18401711  1
  Se  Se246  1  0.08090623  0.91836166  0.70337894  1
  Se  Se247  1  0.41448667  0.25190994  0.19686429  1
  Se  Se248  1  0.40724626  0.25463936  0.70552128  1
  Se  Se249  1  0.39399237  0.60105565  0.19071188  1
  Se  Se250  1  0.41837516  0.58484522  0.69479604  1
  Se  Se251  1  0.41692145  0.92029928  0.19941984  1
  Se  Se252  1  0.41987259  0.91279660  0.68730937  1
  Se  Se253  1  0.75281915  0.24994375  0.18756510  1
  Se  Se254  1  0.74451900  0.24954361  0.70298533  1
  Se  Se255  1  0.74885602  0.58258900  0.19366396  1
  Se  Se256  1  0.75671625  0.57597979  0.68567337  1
  Se  Se257  1  0.74344806  0.92987261  0.19992175  1
  Se  Se258  1  0.74904297  0.90466573  0.69226324  1
