# generated using pymatgen
data_In86Cu29Se144
_symmetry_space_group_name_H-M   'P 1'
_cell_length_a   17.57667626
_cell_length_b   17.57999395
_cell_length_c   23.44518504
_cell_angle_alpha   90.00978000
_cell_angle_beta   89.99762249
_cell_angle_gamma   90.01564200
_symmetry_Int_Tables_number   1
_chemical_formula_structural   In86Cu29Se144
_chemical_formula_sum   'In86 Cu29 Se144'
_cell_volume   7244.51167875
_cell_formula_units_Z   1
loop_
 _symmetry_equiv_pos_site_id
 _symmetry_equiv_pos_as_xyz
  1  'x, y, z'
loop_
 _atom_site_type_symbol
 _atom_site_label
 _atom_site_symmetry_multiplicity
 _atom_site_fract_x
 _atom_site_fract_y
 _atom_site_fract_z
 _atom_site_occupancy
  In  In0  1  -0.02626711  0.16443251  0.13085985  1
  In  In1  1  0.00271203  0.15312665  0.62437013  1
  In  In2  1  -0.00159682  0.50895240  0.12723436  1
  In  In3  1  0.00331825  0.50843588  0.61595315  1
  In  In4  1  -0.00389024  0.83236118  0.12758059  1
  In  In5  1  0.00258483  0.82730677  0.63168272  1
  In  In6  1  0.34419306  0.16199319  0.13069802  1
  In  In7  1  0.33482731  0.16507385  0.61568343  1
  In  In8  1  0.32579051  0.49547324  0.13371180  1
  In  In9  1  0.32942446  0.49602836  0.61601796  1
  In  In10  1  0.33709751  0.83943031  0.11415484  1
  In  In11  1  0.33608029  0.84066227  0.61796423  1
  In  In12  1  0.67123516  0.16658295  0.13260325  1
  In  In13  1  0.65588229  0.16370273  0.62161770  1
  In  In14  1  0.66730603  0.48497259  0.13043759  1
  In  In15  1  0.67930783  0.50957226  0.60892521  1
  In  In16  1  0.68482541  0.85352928  0.11213929  1
  In  In17  1  0.65709092  0.83928022  0.63861253  1
  In  In18  1  0.16126797  0.00748833  0.38052465  1
  In  In19  1  0.14221211  0.00036679  0.87080515  1
  In  In20  1  0.17558511  0.31970733  0.38050570  1
  In  In21  1  0.17284456  0.32790387  0.87498463  1
  In  In22  1  0.16004597  0.67586834  0.38419567  1
  In  In23  1  0.16644620  0.68426684  0.87362284  1
  In  In24  1  0.50941315  -0.00792405  0.38138571  1
  In  In25  1  0.51743779  -0.01126304  0.88294291  1
  In  In26  1  0.50370503  0.33191567  0.37706524  1
  In  In27  1  0.49268882  0.32601863  0.87841674  1
  In  In28  1  0.49916292  0.67004162  0.38452287  1
  In  In29  1  0.51933651  0.67352035  0.86589125  1
  In  In30  1  0.84143105  0.00598882  0.34754116  1
  In  In31  1  0.83103106  -0.00322619  0.87717350  1
  In  In32  1  0.83541606  0.34238387  0.37193785  1
  In  In33  1  0.83446804  0.33634926  0.89345917  1
  In  In34  1  0.83360837  0.65795182  0.37011045  1
  In  In35  1  0.83375909  0.66748076  0.87586262  1
  In  In36  1  0.01184527  0.16349664  0.36585902  1
  In  In37  1  -0.00052074  0.15181638  0.87893178  1
  In  In38  1  -0.00869751  0.50952176  0.38077731  1
  In  In39  1  -0.01965332  0.50087892  0.87611480  1
  In  In40  1  0.00870398  0.84434327  0.36073571  1
  In  In41  1  -0.00354185  0.83293843  0.87498638  1
  In  In42  1  0.32346111  0.17943342  0.37631086  1
  In  In43  1  0.33810191  0.17515644  0.87857959  1
  In  In44  1  0.34535518  0.48536785  0.38563669  1
  In  In45  1  0.33206864  0.49412598  0.87477428  1
  In  In46  1  0.33819212  0.82944954  0.38444990  1
  In  In47  1  0.33337287  0.83489743  0.88146111  1
  In  In48  1  0.66471078  0.15521744  0.36928055  1
  In  In49  1  0.67773735  0.15509564  0.88367725  1
  In  In50  1  0.67363529  0.49052857  0.39035286  1
  In  In51  1  0.67396016  0.51083003  0.87246762  1
  In  In52  1  0.66564958  0.83421045  0.37189818  1
  In  In53  1  0.66705397  0.83683570  0.87595263  1
  In  In54  1  0.16820750  -0.01258687  0.12530477  1
  In  In55  1  0.16316649  -0.00399521  0.61827839  1
  In  In56  1  0.16434718  0.33943909  0.13516433  1
  In  In57  1  0.16196889  0.33129633  0.61295237  1
  In  In58  1  0.14929836  0.67218296  0.13001501  1
  In  In59  1  0.15884040  0.66320723  0.62079674  1
  In  In60  1  0.51103864  0.01160725  0.11701211  1
  In  In61  1  0.50458717  0.00047478  0.62015990  1
  In  In62  1  0.51469584  0.32116480  0.14081373  1
  In  In63  1  0.50436819  0.32437200  0.60833755  1
  In  In64  1  0.49353557  0.67389060  0.12245307  1
  In  In65  1  0.51320369  0.68013654  0.62054865  1
  In  In66  1  0.82950025  -0.00362408  0.13270973  1
  In  In67  1  0.83782292  -0.00700613  0.63553645  1
  In  In68  1  0.81977424  0.31580998  0.10928673  1
  In  In69  1  0.81902966  0.34095770  0.61642368  1
  In  In70  1  0.84627735  0.67977697  0.11530050  1
  In  In71  1  0.83607690  0.66636632  0.63134914  1
  In  In72  1  0.66826810  0.67050280  0.25063984  1
  In  In73  1  0.66442510  0.33095533  0.74380554  1
  In  In74  1  0.32815762  0.00465346  0.25274791  1
  In  In75  1  0.16094579  0.50580410  0.01199243  1
  In  In76  1  -0.00350486  0.33044080  0.74891624  1
  In  In77  1  0.15982855  0.16317738  0.00042388  1
  In  In78  1  0.50086344  0.50186973  -0.00095539  1
  In  In79  1  0.83115055  0.83301710  0.49482301  1
  In  In80  1  0.33125389  0.66351054  0.26002495  1
  In  In81  1  0.83821549  0.16957638  0.49238389  1
  In  In82  1  0.33347714  0.66930611  0.75071891  1
  In  In83  1  0.33244447  0.33005416  0.75196559  1
  In  In84  1  0.33659357  0.00048704  0.74346259  1
  In  In85  1  -0.00449561  0.33261220  0.24915969  1
  Cu  Cu86  1  0.50886845  0.84528771  0.24698565  1
  Cu  Cu87  1  0.33989628  0.32989847  0.00838357  1
  Cu  Cu88  1  0.50322285  0.15893516  0.74853412  1
  Cu  Cu89  1  0.67039747  0.66794084  -0.00468940  1
  Cu  Cu90  1  0.33824141  0.00258130  0.49765098  1
  Cu  Cu91  1  0.83003638  0.83364836  0.75770288  1
  Cu  Cu92  1  0.33588544  0.67226778  -0.00235161  1
  Cu  Cu93  1  0.32847655  0.66595376  0.50454431  1
  Cu  Cu94  1  0.00663072  -0.00363589  0.49542825  1
  Cu  Cu95  1  0.50162701  0.49509562  0.26099850  1
  Cu  Cu96  1  0.15494545  0.50324714  0.74354582  1
  Cu  Cu97  1  0.66192746  0.32739948  0.00789992  1
  Cu  Cu98  1  0.67210981  0.00078331  0.49918442  1
  Cu  Cu99  1  0.33299824  0.33142171  0.49626338  1
  Cu  Cu100  1  0.16554553  0.82910716  0.25029147  1
  Cu  Cu101  1  0.16934389  0.49109797  0.25820343  1
  Cu  Cu102  1  0.82894884  0.50353530  0.74822639  1
  Cu  Cu103  1  -0.00022555  0.67127875  0.00004725  1
  Cu  Cu104  1  0.83549462  0.15970002  0.75509035  1
  Cu  Cu105  1  0.66430778  0.67295992  0.49887286  1
  Cu  Cu106  1  -0.00252782  0.33631097  0.49217421  1
  Cu  Cu107  1  0.50757939  0.50488870  0.73918199  1
  Cu  Cu108  1  0.33194407  0.00169181  0.00074938  1
  Cu  Cu109  1  0.83306240  0.50207964  0.25095198  1
  Cu  Cu110  1  0.49960981  0.16792131  0.25294300  1
  Cu  Cu111  1  -0.00908977  -0.00645914  0.00153245  1
  Cu  Cu112  1  -0.00203323  0.67130428  0.50302433  1
  Cu  Cu113  1  0.66783323  0.00223597  0.00245121  1
  Cu  Cu114  1  0.15942864  0.83824244  0.74822436  1
  Se  Se115  1  0.07269407  0.07390925  0.06212429  1
  Se  Se116  1  0.08523757  0.08463587  0.54841027  1
  Se  Se117  1  0.07291146  0.40553602  0.06107498  1
  Se  Se118  1  0.08020585  0.41879993  0.54884401  1
  Se  Se119  1  0.08295616  0.75424870  0.05403605  1
  Se  Se120  1  0.08199108  0.75577944  0.55484605  1
  Se  Se121  1  0.41436376  0.08620456  0.05274017  1
  Se  Se122  1  0.42349116  0.08455867  0.55148044  1
  Se  Se123  1  0.41835585  0.41362958  0.06694043  1
  Se  Se124  1  0.41574132  0.41436221  0.55056252  1
  Se  Se125  1  0.42239375  0.75535294  0.04806389  1
  Se  Se126  1  0.41582026  0.74967323  0.55450847  1
  Se  Se127  1  0.74915972  0.08140682  0.06167268  1
  Se  Se128  1  0.75687234  0.07648542  0.55917177  1
  Se  Se129  1  0.74576755  0.41984327  0.05103443  1
  Se  Se130  1  0.74363702  0.41301297  0.54127539  1
  Se  Se131  1  0.75259707  0.75262417  0.04914125  1
  Se  Se132  1  0.74407117  0.75103339  0.56208230  1
  Se  Se133  1  0.25051524  0.25325774  0.06343027  1
  Se  Se134  1  0.24928138  0.24745378  0.54965564  1
  Se  Se135  1  0.26029920  0.59679702  0.06424048  1
  Se  Se136  1  0.24248632  0.58065072  0.55303623  1
  Se  Se137  1  0.24591417  0.91588015  0.04807805  1
  Se  Se138  1  0.25143219  0.91969593  0.54973147  1
  Se  Se139  1  0.58040154  0.24401743  0.06112111  1
  Se  Se140  1  0.59623138  0.24810637  0.54528512  1
  Se  Se141  1  0.59234066  0.58986164  0.06078585  1
  Se  Se142  1  0.58011017  0.58717319  0.55006310  1
  Se  Se143  1  0.57916559  0.91537452  0.04990005  1
  Se  Se144  1  0.59311655  0.91590820  0.55585625  1
  Se  Se145  1  0.91912502  0.24459047  0.04908601  1
  Se  Se146  1  0.92445656  0.25725025  0.56042576  1
  Se  Se147  1  0.91970186  0.58239486  0.05100468  1
  Se  Se148  1  0.91002111  0.58914844  0.55384229  1
  Se  Se149  1  0.91013656  0.91371500  0.05994654  1
  Se  Se150  1  0.92271079  0.92105874  0.55671206  1
  Se  Se151  1  0.07748099  0.24528392  0.44403764  1
  Se  Se152  1  0.07478813  0.25881752  0.94085037  1
  Se  Se153  1  0.08041190  0.58547663  0.44954903  1
  Se  Se154  1  0.08181665  0.58987194  0.93946014  1
  Se  Se155  1  0.08583343  0.90855158  0.44270132  1
  Se  Se156  1  0.07882028  0.91564400  0.94672861  1
  Se  Se157  1  0.41767811  0.24750534  0.44475383  1
  Se  Se158  1  0.42043110  0.24627797  0.95389051  1
  Se  Se159  1  0.41335218  0.58637119  0.44905871  1
  Se  Se160  1  0.41266186  0.59233053  0.93540534  1
  Se  Se161  1  0.42217716  0.91421674  0.44974780  1
  Se  Se162  1  0.41685926  0.91968656  0.94691333  1
  Se  Se163  1  0.74394572  0.25465396  0.43545070  1
  Se  Se164  1  0.74806012  0.24702318  0.95284232  1
  Se  Se165  1  0.75173712  0.59187955  0.44721280  1
  Se  Se166  1  0.75463906  0.58050649  0.94739537  1
  Se  Se167  1  0.75390727  0.93142391  0.43307026  1
  Se  Se168  1  0.74890212  0.91636544  0.94814325  1
  Se  Se169  1  0.25289182  0.08471052  0.44489649  1
  Se  Se170  1  0.25094085  0.07652172  0.93638547  1
  Se  Se171  1  0.24406930  0.41536178  0.44798716  1
  Se  Se172  1  0.25620705  0.41092471  0.95115131  1
  Se  Se173  1  0.24914477  0.75288399  0.45131175  1
  Se  Se174  1  0.24682579  0.75433258  0.94905015  1
  Se  Se175  1  0.58675202  0.08387595  0.44761613  1
  Se  Se176  1  0.58157628  0.08682063  0.95113124  1
  Se  Se177  1  0.56218022  0.43324895  0.44550444  1
  Se  Se178  1  0.59143401  0.40908967  0.93933284  1
  Se  Se179  1  0.58440903  0.75977500  0.44604457  1
  Se  Se180  1  0.58325609  0.75073528  0.94584301  1
  Se  Se181  1  0.92234464  0.07148449  0.43452042  1
  Se  Se182  1  0.91111259  0.08128497  0.94899885  1
  Se  Se183  1  0.90987743  0.42153680  0.44726071  1
  Se  Se184  1  0.92062869  0.42085751  0.95471910  1
  Se  Se185  1  0.92425585  0.74763058  0.43522969  1
  Se  Se186  1  0.91444519  0.75178558  0.94539388  1
  Se  Se187  1  0.23986787  0.24387731  0.29988318  1
  Se  Se188  1  0.23977321  0.23330447  0.80313264  1
  Se  Se189  1  0.24503444  0.57329315  0.32031077  1
  Se  Se190  1  0.23999642  0.57455393  0.80773462  1
  Se  Se191  1  0.24791815  0.90516519  0.31196858  1
  Se  Se192  1  0.24408396  0.91419294  0.80826065  1
  Se  Se193  1  0.58426435  0.24969182  0.30642299  1
  Se  Se194  1  0.57991441  0.24232096  0.81011165  1
  Se  Se195  1  0.58101678  0.58257900  0.31462657  1
  Se  Se196  1  0.58972625  0.58065078  0.79809391  1
  Se  Se197  1  0.59062593  0.92437617  0.30321141  1
  Se  Se198  1  0.58851297  0.91955127  0.80412000  1
  Se  Se199  1  0.90601504  0.24047620  0.30777129  1
  Se  Se200  1  0.90567538  0.24838094  0.81439171  1
  Se  Se201  1  0.92144154  0.58392801  0.29969142  1
  Se  Se202  1  0.91384274  0.58524730  0.80171888  1
  Se  Se203  1  0.91614998  0.90701174  0.29088927  1
  Se  Se204  1  0.91667219  0.91903603  0.80642807  1
  Se  Se205  1  0.07887532  0.06622730  0.30127041  1
  Se  Se206  1  0.08186072  0.09346531  0.80030402  1
  Se  Se207  1  0.08199224  0.41668678  0.31688110  1
  Se  Se208  1  0.08712671  0.42207417  0.81121490  1
  Se  Se209  1  0.08541763  0.74116240  0.30240986  1
  Se  Se210  1  0.07901323  0.75157141  0.80157527  1
  Se  Se211  1  0.42215505  0.08614450  0.31510946  1
  Se  Se212  1  0.42223896  0.08586951  0.81226557  1
  Se  Se213  1  0.41359998  0.40973595  0.30619796  1
  Se  Se214  1  0.43094650  0.42610567  0.80342619  1
  Se  Se215  1  0.42931207  0.76157496  0.30568365  1
  Se  Se216  1  0.42278460  0.76161671  0.80714621  1
  Se  Se217  1  0.74679445  0.08811104  0.29279745  1
  Se  Se218  1  0.74750695  0.07902718  0.80552277  1
  Se  Se219  1  0.74762679  0.42547884  0.30693315  1
  Se  Se220  1  0.75798982  0.41416804  0.80802488  1
  Se  Se221  1  0.76323969  0.76048511  0.30525998  1
  Se  Se222  1  0.74699119  0.74740151  0.80822481  1
  Se  Se223  1  0.23789682  0.09057913  0.19101869  1
  Se  Se224  1  0.24502329  0.09055951  0.68734041  1
  Se  Se225  1  0.25428866  0.41026156  0.20586314  1
  Se  Se226  1  0.23929576  0.41957463  0.69105853  1
  Se  Se227  1  0.25313239  0.75500942  0.19059041  1
  Se  Se228  1  0.24352997  0.75930770  0.68955016  1
  Se  Se229  1  0.58033978  0.08344192  0.19777164  1
  Se  Se230  1  0.58632509  0.07788917  0.69455408  1
  Se  Se231  1  0.58730017  0.41528596  0.20686453  1
  Se  Se232  1  0.57996213  0.41951541  0.67953235  1
  Se  Se233  1  0.58202760  0.75935751  0.18650455  1
  Se  Se234  1  0.58589442  0.74242002  0.70255105  1
  Se  Se235  1  0.91255173  0.07628277  0.20418456  1
  Se  Se236  1  0.92089925  0.08183495  0.69926254  1
  Se  Se237  1  0.90622885  0.41956073  0.18704371  1
  Se  Se238  1  0.90811858  0.42176060  0.68775007  1
  Se  Se239  1  0.93035415  0.73373598  0.19464018  1
  Se  Se240  1  0.91321322  0.75309721  0.69991735  1
  Se  Se241  1  0.08284538  0.23800727  0.19095774  1
  Se  Se242  1  0.09006423  0.24531112  0.68960973  1
  Se  Se243  1  0.09088370  0.57334207  0.19971149  1
  Se  Se244  1  0.07360147  0.58880187  0.69364500  1
  Se  Se245  1  0.08427732  0.91320771  0.19670839  1
  Se  Se246  1  0.08063609  0.92377677  0.69342543  1
  Se  Se247  1  0.41262991  0.25070410  0.20244959  1
  Se  Se248  1  0.42623810  0.24414472  0.69021985  1
  Se  Se249  1  0.42650723  0.57681455  0.19721581  1
  Se  Se250  1  0.41718944  0.57960435  0.68554698  1
  Se  Se251  1  0.42013250  0.91864525  0.18905810  1
  Se  Se252  1  0.42895446  0.90605697  0.69228554  1
  Se  Se253  1  0.74485000  0.26552607  0.19444969  1
  Se  Se254  1  0.76038848  0.23838845  0.68918294  1
  Se  Se255  1  0.75572160  0.58210247  0.18706331  1
  Se  Se256  1  0.74386896  0.58177649  0.69269474  1
  Se  Se257  1  0.74258905  0.91413188  0.20022713  1
  Se  Se258  1  0.74893837  0.91807191  0.70269785  1
