# generated using pymatgen
data_In86Cu29Se144
_symmetry_space_group_name_H-M   'P 1'
_cell_length_a   17.57746307
_cell_length_b   17.58009146
_cell_length_c   23.43857776
_cell_angle_alpha   90.04439297
_cell_angle_beta   89.99062658
_cell_angle_gamma   89.99897275
_symmetry_Int_Tables_number   1
_chemical_formula_structural   In86Cu29Se144
_chemical_formula_sum   'In86 Cu29 Se144'
_cell_volume   7242.83252937
_cell_formula_units_Z   1
loop_
 _symmetry_equiv_pos_site_id
 _symmetry_equiv_pos_as_xyz
  1  'x, y, z'
loop_
 _atom_site_type_symbol
 _atom_site_label
 _atom_site_symmetry_multiplicity
 _atom_site_fract_x
 _atom_site_fract_y
 _atom_site_fract_z
 _atom_site_occupancy
  In  In0  1  -0.01580743  0.16376380  0.12562663  1
  In  In1  1  -0.00106266  0.16618064  0.62515920  1
  In  In2  1  -0.00143796  0.50028300  0.12047414  1
  In  In3  1  -0.01907760  0.50224968  0.62535288  1
  In  In4  1  -0.01402483  0.83876708  0.12997713  1
  In  In5  1  -0.00090614  0.84325653  0.62697279  1
  In  In6  1  0.32475625  0.15996756  0.12872898  1
  In  In7  1  0.34006516  0.17967901  0.62015698  1
  In  In8  1  0.35288633  0.51933901  0.11093726  1
  In  In9  1  0.34311257  0.49473094  0.62710637  1
  In  In10  1  0.36641786  0.80174662  0.15660741  1
  In  In11  1  0.32335201  0.82837164  0.62545001  1
  In  In12  1  0.68548956  0.15832961  0.12590524  1
  In  In13  1  0.66973153  0.15746558  0.62215196  1
  In  In14  1  0.66676823  0.49928818  0.13176998  1
  In  In15  1  0.67385523  0.51222497  0.61722711  1
  In  In16  1  0.65039938  0.82519754  0.11032572  1
  In  In17  1  0.66324194  0.81652081  0.62191601  1
  In  In18  1  0.17304634  0.00443064  0.37282295  1
  In  In19  1  0.16257557  0.01216331  0.87315767  1
  In  In20  1  0.15382209  0.32991746  0.38063400  1
  In  In21  1  0.17500668  0.34151191  0.86626492  1
  In  In22  1  0.16673142  0.67345699  0.36447330  1
  In  In23  1  0.16769539  0.64989565  0.87826888  1
  In  In24  1  0.49005016  0.00047374  0.36853919  1
  In  In25  1  0.49442774  -0.00918736  0.88478563  1
  In  In26  1  0.52215131  0.34127150  0.36268548  1
  In  In27  1  0.50321983  0.35588910  0.87852486  1
  In  In28  1  0.50866040  0.66046648  0.36191114  1
  In  In29  1  0.50421193  0.66319886  0.87744973  1
  In  In30  1  0.84354940  -0.01105513  0.37995894  1
  In  In31  1  0.83940036  -0.00829487  0.88313124  1
  In  In32  1  0.82103246  0.34379635  0.38226408  1
  In  In33  1  0.83691676  0.32900490  0.88316873  1
  In  In34  1  0.83127607  0.66171212  0.36776497  1
  In  In35  1  0.82194738  0.67153144  0.88098653  1
  In  In36  1  0.00832964  0.16053032  0.38351954  1
  In  In37  1  -0.00692662  0.16411124  0.86587229  1
  In  In38  1  -0.01839742  0.50150475  0.36910960  1
  In  In39  1  0.00933231  0.49506926  0.87937995  1
  In  In40  1  -0.01222318  0.82392697  0.36425160  1
  In  In41  1  -0.01819739  0.83275024  0.87557338  1
  In  In42  1  0.33066022  0.15695734  0.38045256  1
  In  In43  1  0.31997817  0.16654063  0.87454051  1
  In  In44  1  0.34184936  0.51779913  0.36703020  1
  In  In45  1  0.33519247  0.50382182  0.87444882  1
  In  In46  1  0.34153304  0.82800894  0.36348217  1
  In  In47  1  0.35423579  0.82924375  0.88237617  1
  In  In48  1  0.66797901  0.18271458  0.37416951  1
  In  In49  1  0.68284492  0.18053397  0.88427740  1
  In  In50  1  0.67798634  0.49902705  0.36720116  1
  In  In51  1  0.65417749  0.50240769  0.89007096  1
  In  In52  1  0.67543427  0.83098864  0.37328303  1
  In  In53  1  0.68014553  0.82234994  0.88645657  1
  In  In54  1  0.17098690  -0.00842104  0.13408462  1
  In  In55  1  0.15142316  -0.00888318  0.62426592  1
  In  In56  1  0.15418397  0.33745526  0.12295270  1
  In  In57  1  0.17312606  0.32575770  0.62800509  1
  In  In58  1  0.17401709  0.65778030  0.12574471  1
  In  In59  1  0.17413414  0.67659050  0.62765295  1
  In  In60  1  0.50915888  -0.03989607  0.13326634  1
  In  In61  1  0.49571458  0.00751438  0.62327458  1
  In  In62  1  0.51053468  0.35357834  0.12228764  1
  In  In63  1  0.48666858  0.34190400  0.62741220  1
  In  In64  1  0.50705226  0.66305098  0.13280556  1
  In  In65  1  0.51272531  0.65301447  0.63291614  1
  In  In66  1  0.83336303  0.00722650  0.11884957  1
  In  In67  1  0.84022383  0.00854873  0.61681039  1
  In  In68  1  0.82436504  0.33409103  0.12145045  1
  In  In69  1  0.84099638  0.34015961  0.62484774  1
  In  In70  1  0.82194717  0.65943946  0.13036997  1
  In  In71  1  0.81915597  0.66079106  0.60935876  1
  In  In72  1  0.67148648  -0.00792963  0.75863608  1
  In  In73  1  0.66884144  -0.00576815  0.24983288  1
  In  In74  1  0.16407029  0.17047460  -0.00305218  1
  In  In75  1  0.66524389  0.33824449  0.75784234  1
  In  In76  1  0.50263686  0.17589776  0.49961417  1
  In  In77  1  0.16511518  0.83191740  0.00732479  1
  In  In78  1  0.16572527  0.49687917  0.49911580  1
  In  In79  1  -0.01121755  0.33422535  0.24568525  1
  In  In80  1  0.00083092  0.66797040  0.74896791  1
  In  In81  1  0.50322901  0.82814176  0.48826943  1
  In  In82  1  0.32612585  -0.00147776  0.74566046  1
  In  In83  1  0.33543384  0.33591432  0.24801528  1
  In  In84  1  0.16429217  0.83493655  0.50129012  1
  In  In85  1  0.50237344  0.16536435  0.00327438  1
  Cu  Cu86  1  0.83116847  0.83490272  0.75182346  1
  Cu  Cu87  1  0.15809447  0.83686371  0.24868251  1
  Cu  Cu88  1  0.66964245  0.34262170  0.49695206  1
  Cu  Cu89  1  0.66744771  0.00010794  0.49652092  1
  Cu  Cu90  1  0.83235500  0.83032254  0.24595389  1
  Cu  Cu91  1  -0.00871696  0.66688554  0.49082530  1
  Cu  Cu92  1  0.33946068  -0.01497380  0.01175565  1
  Cu  Cu93  1  0.66399848  0.66242794  0.00608700  1
  Cu  Cu94  1  -0.00279851  0.00427853  0.00041614  1
  Cu  Cu95  1  0.34551040  0.66598055  0.49637593  1
  Cu  Cu96  1  -0.01302245  0.66575939  0.00228383  1
  Cu  Cu97  1  0.16943133  0.83151533  0.75155528  1
  Cu  Cu98  1  0.84060342  0.16928351  0.74819470  1
  Cu  Cu99  1  0.49432546  0.17170057  0.75192585  1
  Cu  Cu100  1  -0.00623394  0.32728949  0.50237746  1
  Cu  Cu101  1  0.33350635  0.34214715  -0.00597147  1
  Cu  Cu102  1  0.83054911  0.50482346  0.74921998  1
  Cu  Cu103  1  0.49644250  0.50464804  0.75418122  1
  Cu  Cu104  1  0.16847434  0.50036927  0.24407709  1
  Cu  Cu105  1  0.34083752  0.66519592  0.00406747  1
  Cu  Cu106  1  0.50025542  0.81961185  0.75271781  1
  Cu  Cu107  1  0.33939541  0.33957806  0.49867396  1
  Cu  Cu108  1  -0.00186111  -0.00015892  0.49932217  1
  Cu  Cu109  1  0.17004945  0.49645968  0.75102230  1
  Cu  Cu110  1  0.16040006  0.17104800  0.74727562  1
  Cu  Cu111  1  -0.00312553  0.33977258  -0.00038141  1
  Cu  Cu112  1  0.49974231  0.16444892  0.24860718  1
  Cu  Cu113  1  0.83906983  0.16314150  0.25156773  1
  Cu  Cu114  1  0.16284637  0.15744259  0.25622279  1
  Se  Se115  1  0.08261311  0.07769251  0.06114596  1
  Se  Se116  1  0.08093306  0.08077856  0.55506815  1
  Se  Se117  1  0.08491146  0.42106546  0.04958252  1
  Se  Se118  1  0.07420667  0.41196598  0.56179841  1
  Se  Se119  1  0.07124670  0.74249867  0.06299227  1
  Se  Se120  1  0.07172670  0.73939534  0.55738662  1
  Se  Se121  1  0.41654131  0.07473049  0.06642291  1
  Se  Se122  1  0.40807525  0.07873554  0.55043531  1
  Se  Se123  1  0.42179967  0.41878814  0.04801921  1
  Se  Se124  1  0.42256463  0.42438887  0.54909757  1
  Se  Se125  1  0.41999088  0.74677631  0.06221228  1
  Se  Se126  1  0.41733399  0.74760214  0.56104054  1
  Se  Se127  1  0.75708263  0.08847059  0.04668266  1
  Se  Se128  1  0.75027496  0.08537417  0.54844548  1
  Se  Se129  1  0.75255712  0.42899659  0.05806726  1
  Se  Se130  1  0.75449197  0.41833770  0.55640222  1
  Se  Se131  1  0.75106403  0.74692256  0.05541177  1
  Se  Se132  1  0.75302276  0.76156755  0.54696229  1
  Se  Se133  1  0.25780209  0.26027763  0.05662853  1
  Se  Se134  1  0.25479292  0.25663356  0.55014884  1
  Se  Se135  1  0.24771538  0.58161570  0.04792355  1
  Se  Se136  1  0.25720111  0.59185106  0.55575294  1
  Se  Se137  1  0.26129098  0.90556076  0.07149072  1
  Se  Se138  1  0.25785781  0.92716816  0.55707000  1
  Se  Se139  1  0.59140470  0.25018939  0.06537946  1
  Se  Se140  1  0.59216725  0.26451724  0.56323160  1
  Se  Se141  1  0.58091861  0.57922993  0.05957897  1
  Se  Se142  1  0.57850442  0.58268857  0.55193796  1
  Se  Se143  1  0.59906263  0.93816088  0.04978773  1
  Se  Se144  1  0.58392071  0.92377066  0.55687502  1
  Se  Se145  1  0.91865766  0.25532087  0.05591363  1
  Se  Se146  1  0.91064187  0.24539909  0.55714969  1
  Se  Se147  1  0.90715651  0.58158962  0.05757933  1
  Se  Se148  1  0.91386881  0.58071704  0.54740550  1
  Se  Se149  1  0.91617570  0.91792378  0.05251358  1
  Se  Se150  1  0.91668028  0.91368247  0.55237416  1
  Se  Se151  1  0.08482692  0.24699075  0.45476418  1
  Se  Se152  1  0.07631605  0.25932467  0.93631936  1
  Se  Se153  1  0.08052493  0.58909089  0.43686209  1
  Se  Se154  1  0.07783735  0.58682903  0.95114862  1
  Se  Se155  1  0.07336105  0.91595972  0.43691173  1
  Se  Se156  1  0.07889985  0.92292113  0.94142327  1
  Se  Se157  1  0.41835311  0.26337152  0.43269382  1
  Se  Se158  1  0.40992851  0.25232235  0.93843109  1
  Se  Se159  1  0.42759666  0.58690104  0.44008172  1
  Se  Se160  1  0.41971668  0.58062950  0.94623206  1
  Se  Se161  1  0.40413356  0.92231362  0.44126261  1
  Se  Se162  1  0.42686463  0.90542155  0.95968362  1
  Se  Se163  1  0.75016392  0.24916235  0.45123464  1
  Se  Se164  1  0.74849503  0.26435964  0.95755546  1
  Se  Se165  1  0.76893453  0.56677825  0.43870069  1
  Se  Se166  1  0.74943339  0.58238493  0.95075235  1
  Se  Se167  1  0.74959783  0.91446218  0.44559772  1
  Se  Se168  1  0.74334433  0.92495172  0.94797991  1
  Se  Se169  1  0.23749601  0.09116266  0.44793859  1
  Se  Se170  1  0.26138383  0.06757168  0.95078518  1
  Se  Se171  1  0.25977439  0.41555307  0.43419905  1
  Se  Se172  1  0.24633503  0.42183883  0.94196090  1
  Se  Se173  1  0.25789262  0.74496481  0.44126267  1
  Se  Se174  1  0.25588519  0.74376825  0.94378681  1
  Se  Se175  1  0.58590807  0.07911665  0.43701374  1
  Se  Se176  1  0.59107107  0.08132160  0.93699161  1
  Se  Se177  1  0.58846623  0.42180453  0.43975732  1
  Se  Se178  1  0.59369405  0.40072047  0.95609963  1
  Se  Se179  1  0.59732712  0.73463120  0.43926729  1
  Se  Se180  1  0.58364563  0.74655654  0.94870367  1
  Se  Se181  1  0.91334247  0.08399733  0.44749827  1
  Se  Se182  1  0.91945133  0.08894240  0.94352520  1
  Se  Se183  1  0.91988687  0.41543473  0.44616493  1
  Se  Se184  1  0.91524650  0.42415563  0.94630354  1
  Se  Se185  1  0.90896655  0.75137700  0.43964959  1
  Se  Se186  1  0.90858829  0.75352237  0.94932265  1
  Se  Se187  1  0.24118822  0.24818176  0.30904910  1
  Se  Se188  1  0.25036496  0.24828388  0.79968827  1
  Se  Se189  1  0.24831276  0.58535795  0.29916550  1
  Se  Se190  1  0.25094318  0.58346134  0.80241671  1
  Se  Se191  1  0.24591940  0.91152988  0.30595255  1
  Se  Se192  1  0.24769990  0.90934431  0.81657355  1
  Se  Se193  1  0.58973272  0.24723638  0.29394471  1
  Se  Se194  1  0.57509092  0.24388438  0.81610893  1
  Se  Se195  1  0.60877797  0.59372341  0.29587981  1
  Se  Se196  1  0.58737295  0.57855388  0.80874746  1
  Se  Se197  1  0.57368002  0.90653941  0.30820817  1
  Se  Se198  1  0.57540801  0.90388202  0.81324271  1
  Se  Se199  1  0.91384413  0.24435367  0.31566139  1
  Se  Se200  1  0.91456914  0.25887564  0.80370094  1
  Se  Se201  1  0.92294665  0.59124849  0.29649785  1
  Se  Se202  1  0.91219786  0.58247287  0.81225738  1
  Se  Se203  1  0.91309154  0.91831933  0.29802649  1
  Se  Se204  1  0.91472101  0.92066043  0.80237923  1
  Se  Se205  1  0.07582207  0.07692182  0.30717534  1
  Se  Se206  1  0.08099099  0.08262966  0.79893014  1
  Se  Se207  1  0.08857557  0.42074682  0.30502321  1
  Se  Se208  1  0.08054437  0.41726434  0.80137598  1
  Se  Se209  1  0.07666582  0.74696150  0.29701333  1
  Se  Se210  1  0.08878763  0.75501859  0.81509241  1
  Se  Se211  1  0.41161634  0.08907095  0.30239912  1
  Se  Se212  1  0.41952517  0.08354260  0.81026432  1
  Se  Se213  1  0.42834502  0.42869035  0.30108477  1
  Se  Se214  1  0.41413667  0.41615588  0.80367314  1
  Se  Se215  1  0.41648196  0.73928882  0.29809144  1
  Se  Se216  1  0.41467785  0.74128830  0.80701566  1
  Se  Se217  1  0.75518646  0.08575016  0.31290259  1
  Se  Se218  1  0.75909087  0.09246994  0.81006826  1
  Se  Se219  1  0.74680365  0.40149660  0.29986953  1
  Se  Se220  1  0.75528687  0.42809047  0.81551559  1
  Se  Se221  1  0.74886151  0.74951525  0.29969193  1
  Se  Se222  1  0.74869390  0.75040621  0.80414078  1
  Se  Se223  1  0.24977525  0.07977083  0.20190526  1
  Se  Se224  1  0.24219278  0.09202192  0.68454586  1
  Se  Se225  1  0.24833208  0.42232232  0.18310014  1
  Se  Se226  1  0.25272599  0.41640754  0.69271378  1
  Se  Se227  1  0.24038979  0.74940916  0.19766016  1
  Se  Se228  1  0.25529259  0.74767770  0.70305290  1
  Se  Se229  1  0.57791728  0.08182767  0.18698857  1
  Se  Se230  1  0.57751038  0.08820769  0.69843212  1
  Se  Se231  1  0.59065558  0.41095241  0.20201778  1
  Se  Se232  1  0.57988298  0.42572356  0.69242239  1
  Se  Se233  1  0.56657532  0.77539295  0.19151916  1
  Se  Se234  1  0.58990732  0.74337660  0.70026056  1
  Se  Se235  1  0.91598966  0.07554704  0.19777124  1
  Se  Se236  1  0.91739392  0.08012531  0.69478726  1
  Se  Se237  1  0.90184164  0.42938641  0.19210524  1
  Se  Se238  1  0.91540244  0.41799839  0.70179526  1
  Se  Se239  1  0.91369154  0.74239992  0.19459756  1
  Se  Se240  1  0.90769674  0.75250640  0.68848114  1
  Se  Se241  1  0.08722441  0.23887850  0.19339081  1
  Se  Se242  1  0.07765665  0.25484075  0.69398340  1
  Se  Se243  1  0.08181351  0.58018760  0.19107047  1
  Se  Se244  1  0.09098258  0.57575451  0.68746020  1
  Se  Se245  1  0.07356786  0.92000529  0.19702343  1
  Se  Se246  1  0.08207947  0.91392517  0.70267730  1
  Se  Se247  1  0.42424916  0.24655917  0.18525249  1
  Se  Se248  1  0.41316115  0.25432556  0.69830023  1
  Se  Se249  1  0.41202252  0.58465751  0.19653238  1
  Se  Se250  1  0.41315352  0.58556555  0.69788631  1
  Se  Se251  1  0.39968597  0.93200764  0.20119545  1
  Se  Se252  1  0.42604544  0.90646559  0.69208816  1
  Se  Se253  1  0.75748252  0.24571341  0.19729793  1
  Se  Se254  1  0.75000918  0.24508379  0.69306806  1
  Se  Se255  1  0.72142522  0.60366690  0.20237349  1
  Se  Se256  1  0.75264244  0.58771748  0.69260489  1
  Se  Se257  1  0.75257724  0.90846572  0.18348316  1
  Se  Se258  1  0.75358784  0.91242601  0.68624905  1
