# generated using pymatgen
data_In86Cu29Se144
_symmetry_space_group_name_H-M   'P 1'
_cell_length_a   17.68557505
_cell_length_b   17.68351102
_cell_length_c   23.52661803
_cell_angle_alpha   89.98694125
_cell_angle_beta   90.07782615
_cell_angle_gamma   90.04949993
_symmetry_Int_Tables_number   1
_chemical_formula_structural   In86Cu29Se144
_chemical_formula_sum   'In86 Cu29 Se144'
_cell_volume   7357.77681944
_cell_formula_units_Z   1
loop_
 _symmetry_equiv_pos_site_id
 _symmetry_equiv_pos_as_xyz
  1  'x, y, z'
loop_
 _atom_site_type_symbol
 _atom_site_label
 _atom_site_symmetry_multiplicity
 _atom_site_fract_x
 _atom_site_fract_y
 _atom_site_fract_z
 _atom_site_occupancy
  In  In0  1  -0.00276205  0.16435475  0.11000947  1
  In  In1  1  -0.02425217  0.20491098  0.68704113  1
  In  In2  1  0.01119625  0.50474002  0.11812943  1
  In  In3  1  -0.00037815  0.50175389  0.62593527  1
  In  In4  1  -0.00324840  0.82626193  0.11729424  1
  In  In5  1  -0.01204523  0.83967131  0.63210341  1
  In  In6  1  0.32649965  0.14815807  0.10069287  1
  In  In7  1  0.34849550  0.17157570  0.62085496  1
  In  In8  1  0.33132364  0.49584609  0.11694475  1
  In  In9  1  0.32141423  0.51648313  0.63765573  1
  In  In10  1  0.33368107  0.84792373  0.12476288  1
  In  In11  1  0.32077275  0.83125654  0.62938814  1
  In  In12  1  0.67829338  0.17524597  0.11155177  1
  In  In13  1  0.65398221  0.18017199  0.62523320  1
  In  In14  1  0.66199844  0.48486010  0.11402939  1
  In  In15  1  0.66979348  0.47524003  0.63098569  1
  In  In16  1  0.67212781  0.82336569  0.11889370  1
  In  In17  1  0.68618320  0.84368584  0.62988127  1
  In  In18  1  0.16193066  -0.00783610  0.37079516  1
  In  In19  1  0.15348072  0.01763153  0.89070528  1
  In  In20  1  0.17777458  0.33349935  0.38170965  1
  In  In21  1  0.16322286  0.33573463  0.86871313  1
  In  In22  1  0.15530751  0.66462399  0.37604683  1
  In  In23  1  0.16218624  0.66360983  0.87842287  1
  In  In24  1  0.50332370  0.02058765  0.37789957  1
  In  In25  1  0.51074279  0.00359555  0.87659080  1
  In  In26  1  0.49831717  0.31886188  0.37695174  1
  In  In27  1  0.49895660  0.33472290  0.87001701  1
  In  In28  1  0.50036255  0.65327553  0.37370515  1
  In  In29  1  0.48641552  0.66271416  0.87369331  1
  In  In30  1  0.84148288  0.00784694  0.37740653  1
  In  In31  1  0.83514241  0.00142927  0.87294730  1
  In  In32  1  0.82608510  0.33871529  0.38262038  1
  In  In33  1  0.83821009  0.32967301  0.86267726  1
  In  In34  1  0.83838981  0.64740724  0.37477090  1
  In  In35  1  0.84368535  0.65771563  0.88038127  1
  In  In36  1  -0.00540405  0.15413555  0.38024717  1
  In  In37  1  0.00371769  0.16638422  0.86479780  1
  In  In38  1  -0.00885054  0.50045264  0.38451643  1
  In  In39  1  -0.00012693  0.49800607  0.87021435  1
  In  In40  1  0.01475962  0.82827306  0.37153236  1
  In  In41  1  0.00159849  0.83360593  0.87804940  1
  In  In42  1  0.34276453  0.17057315  0.37420972  1
  In  In43  1  0.31130712  0.18294656  0.88119992  1
  In  In44  1  0.33430937  0.49086706  0.38334839  1
  In  In45  1  0.33162566  0.49476757  0.87066899  1
  In  In46  1  0.31042927  0.84012138  0.37226794  1
  In  In47  1  0.32913951  0.81940281  0.87758366  1
  In  In48  1  0.66422719  0.17803551  0.37989745  1
  In  In49  1  0.66510010  0.16737631  0.87494165  1
  In  In50  1  0.68268061  0.49258270  0.37343588  1
  In  In51  1  0.67568111  0.49269368  0.87576185  1
  In  In52  1  0.66901419  0.83065507  0.37782938  1
  In  In53  1  0.66741606  0.85215264  0.87830975  1
  In  In54  1  0.17104460  0.00056960  0.10998377  1
  In  In55  1  0.15393257  0.00115531  0.63034897  1
  In  In56  1  0.16671985  0.32867831  0.11121200  1
  In  In57  1  0.14526722  0.34353479  0.64664917  1
  In  In58  1  0.16327469  0.65994018  0.11996140  1
  In  In59  1  0.17048666  0.65826477  0.63328923  1
  In  In60  1  0.48719227  0.00068648  0.11916703  1
  In  In61  1  0.49216537  0.01934606  0.62470386  1
  In  In62  1  0.50193253  0.33311666  0.11987530  1
  In  In63  1  0.50826615  0.33160813  0.63945463  1
  In  In64  1  0.51012110  0.66071420  0.11859427  1
  In  In65  1  0.48952047  0.66009606  0.63219691  1
  In  In66  1  0.82978430  0.00177505  0.10893712  1
  In  In67  1  0.79661660  0.06354805  0.68998441  1
  In  In68  1  0.82847587  0.32548173  0.11555413  1
  In  In69  1  0.83042860  0.33412843  0.62493667  1
  In  In70  1  0.84599510  0.66855930  0.11733704  1
  In  In71  1  0.84858590  0.66753326  0.62475938  1
  In  In72  1  0.16447002  0.17285037  0.50748179  1
  In  In73  1  0.33404040  0.67126187  0.24989993  1
  In  In74  1  0.33591765  -0.00860108  0.76090873  1
  In  In75  1  0.67978267  0.66764947  0.23543067  1
  In  In76  1  0.50180132  0.82683493  0.00136731  1
  In  In77  1  0.34099423  0.33163150  0.25100538  1
  In  In78  1  0.83519943  0.83579408  0.49826865  1
  In  In79  1  0.49511600  0.84192197  0.51089363  1
  In  In80  1  0.16597214  0.82901783  0.49813787  1
  In  In81  1  0.66614771  0.67118192  0.75202804  1
  In  In82  1  -0.00171117  0.33269563  0.25351466  1
  In  In83  1  0.66509769  0.00122616  0.23688999  1
  In  In84  1  0.49893635  0.49568769  0.51048960  1
  In  In85  1  0.00188048  -0.00589336  0.23429966  1
  Cu  Cu86  1  -0.00205531  0.33020591  0.51433375  1
  Cu  Cu87  1  0.67084939  0.65979408  -0.00236337  1
  Cu  Cu88  1  0.66344355  0.65974140  0.49728431  1
  Cu  Cu89  1  -0.00479748  0.33253584  -0.00973263  1
  Cu  Cu90  1  0.32755964  0.65786369  -0.00377931  1
  Cu  Cu91  1  -0.01497062  0.00782119  0.50909653  1
  Cu  Cu92  1  0.83429813  0.50310808  0.75075906  1
  Cu  Cu93  1  0.00030777  0.66161816  -0.00436803  1
  Cu  Cu94  1  -0.00053195  0.00028782  -0.00577432  1
  Cu  Cu95  1  0.32851828  0.34188831  0.50692560  1
  Cu  Cu96  1  0.50349607  0.83476928  0.75766343  1
  Cu  Cu97  1  0.84431014  0.82506295  0.24542002  1
  Cu  Cu98  1  0.84078237  0.49482413  0.25311156  1
  Cu  Cu99  1  0.49788437  0.16674663  0.75408727  1
  Cu  Cu100  1  0.83826173  0.83340919  0.75693297  1
  Cu  Cu101  1  0.66670633  0.33190981  0.50323044  1
  Cu  Cu102  1  0.33411609  0.00638008  0.49683182  1
  Cu  Cu103  1  0.00451957  0.66178156  0.50259670  1
  Cu  Cu104  1  0.49745380  0.16752123  0.24853378  1
  Cu  Cu105  1  0.51215680  0.49835222  0.24210220  1
  Cu  Cu106  1  0.33409323  0.33792833  -0.00720543  1
  Cu  Cu107  1  0.16525725  0.82336239  0.75532780  1
  Cu  Cu108  1  0.49588062  0.84271335  0.25232894  1
  Cu  Cu109  1  0.67377579  0.01889212  0.51022303  1
  Cu  Cu110  1  0.16439717  0.50080971  0.24702916  1
  Cu  Cu111  1  0.66821878  0.33045827  -0.00943436  1
  Cu  Cu112  1  0.82417812  0.17063233  0.24520045  1
  Cu  Cu113  1  0.16842008  0.16094173  0.23597979  1
  Cu  Cu114  1  0.15967328  0.50696607  0.75478998  1
  Se  Se115  1  0.08463070  0.08496568  0.04565532  1
  Se  Se116  1  0.07272798  0.08564682  0.56289356  1
  Se  Se117  1  0.07865336  0.41111680  0.04912057  1
  Se  Se118  1  0.08527961  0.41467659  0.56094550  1
  Se  Se119  1  0.08231119  0.74362369  0.05157438  1
  Se  Se120  1  0.07460167  0.74879968  0.56283670  1
  Se  Se121  1  0.43463000  0.08965962  0.04256652  1
  Se  Se122  1  0.42033878  0.09023174  0.54479099  1
  Se  Se123  1  0.41701813  0.41485910  0.05230614  1
  Se  Se124  1  0.40713406  0.41436321  0.57176615  1
  Se  Se125  1  0.40695390  0.73723649  0.06030257  1
  Se  Se126  1  0.40514767  0.74449949  0.55950004  1
  Se  Se127  1  0.74313373  0.07957310  0.04486471  1
  Se  Se128  1  0.74985829  0.08271875  0.58138527  1
  Se  Se129  1  0.75201927  0.41256660  0.04644431  1
  Se  Se130  1  0.75161182  0.41717330  0.55143972  1
  Se  Se131  1  0.75279142  0.74354385  0.05086996  1
  Se  Se132  1  0.74351681  0.74277510  0.55636391  1
  Se  Se133  1  0.25102818  0.24984809  0.04382205  1
  Se  Se134  1  0.24983666  0.26288124  0.56867972  1
  Se  Se135  1  0.24487447  0.57579722  0.05211263  1
  Se  Se136  1  0.24743125  0.58579835  0.55821576  1
  Se  Se137  1  0.26068941  0.91796639  0.04754793  1
  Se  Se138  1  0.25406743  0.92706633  0.55577979  1
  Se  Se139  1  0.58485521  0.25409994  0.04977820  1
  Se  Se140  1  0.57179356  0.26052847  0.55439980  1
  Se  Se141  1  0.58442750  0.57769343  0.04876233  1
  Se  Se142  1  0.59113594  0.58764257  0.56636556  1
  Se  Se143  1  0.58997845  0.91892903  0.06028338  1
  Se  Se144  1  0.59451799  0.92930883  0.56407786  1
  Se  Se145  1  0.91383340  0.24893842  0.04582698  1
  Se  Se146  1  0.93517421  0.24640684  0.58093321  1
  Se  Se147  1  0.91920373  0.57738696  0.05061157  1
  Se  Se148  1  0.91646966  0.58072941  0.55242731  1
  Se  Se149  1  0.92065252  0.91707489  0.05117158  1
  Se  Se150  1  0.90566082  0.92660023  0.56570532  1
  Se  Se151  1  0.07148385  0.25875289  0.44180534  1
  Se  Se152  1  0.08059469  0.25119180  0.93747808  1
  Se  Se153  1  0.08449851  0.57916488  0.44746645  1
  Se  Se154  1  0.08133801  0.57535882  0.94419627  1
  Se  Se155  1  0.06821394  0.92850327  0.44797488  1
  Se  Se156  1  0.08568565  0.91246879  0.94913052  1
  Se  Se157  1  0.40641866  0.25737101  0.44965676  1
  Se  Se158  1  0.41410987  0.25350745  0.93987407  1
  Se  Se159  1  0.41182701  0.58900344  0.44810395  1
  Se  Se160  1  0.41272240  0.57764431  0.94396771  1
  Se  Se161  1  0.41146071  0.92255411  0.43750090  1
  Se  Se162  1  0.41797841  0.91321081  0.93692522  1
  Se  Se163  1  0.75203385  0.24891852  0.45126014  1
  Se  Se164  1  0.75579678  0.25307762  0.93655447  1
  Se  Se165  1  0.75026703  0.57905796  0.44660040  1
  Se  Se166  1  0.75450538  0.57766401  0.94505542  1
  Se  Se167  1  0.73875687  0.93272571  0.44365623  1
  Se  Se168  1  0.75737772  0.91970056  0.94604707  1
  Se  Se169  1  0.24734859  0.08236905  0.43843823  1
  Se  Se170  1  0.26848238  0.07092204  0.94434723  1
  Se  Se171  1  0.24467319  0.42226868  0.45377893  1
  Se  Se172  1  0.24536375  0.41583383  0.94030719  1
  Se  Se173  1  0.25833525  0.73703226  0.44257679  1
  Se  Se174  1  0.24532212  0.74559196  0.94903937  1
  Se  Se175  1  0.58792101  0.09131440  0.45016778  1
  Se  Se176  1  0.59659042  0.07656480  0.94560175  1
  Se  Se177  1  0.58651215  0.41233409  0.44053993  1
  Se  Se178  1  0.58331914  0.41550018  0.94045383  1
  Se  Se179  1  0.58303523  0.74444951  0.44423128  1
  Se  Se180  1  0.59091013  0.74094291  0.93647558  1
  Se  Se181  1  0.90506535  0.09225783  0.45409539  1
  Se  Se182  1  0.92239596  0.08656152  0.93808331  1
  Se  Se183  1  0.91953923  0.40738317  0.45078769  1
  Se  Se184  1  0.91271181  0.41451180  0.93563297  1
  Se  Se185  1  0.92622228  0.74245889  0.43958306  1
  Se  Se186  1  0.91794133  0.74976717  0.94651901  1
  Se  Se187  1  0.24096045  0.23999066  0.30411643  1
  Se  Se188  1  0.23161963  0.23875818  0.79964369  1
  Se  Se189  1  0.25109686  0.57226034  0.30908114  1
  Se  Se190  1  0.24641748  0.58517776  0.80814325  1
  Se  Se191  1  0.25064242  0.92860575  0.29976704  1
  Se  Se192  1  0.23789935  0.90771366  0.81583960  1
  Se  Se193  1  0.58188035  0.24774692  0.30371871  1
  Se  Se194  1  0.58514320  0.24998099  0.80396314  1
  Se  Se195  1  0.59089004  0.57978676  0.30224406  1
  Se  Se196  1  0.58169692  0.58038037  0.81171475  1
  Se  Se197  1  0.58284466  0.91625072  0.31044668  1
  Se  Se198  1  0.58697268  0.92264493  0.80220323  1
  Se  Se199  1  0.90797889  0.23897749  0.31056035  1
  Se  Se200  1  0.92370020  0.24853620  0.79177285  1
  Se  Se201  1  0.92524566  0.57818022  0.30318002  1
  Se  Se202  1  0.91836600  0.58610910  0.80217600  1
  Se  Se203  1  0.91407498  0.91142661  0.30836095  1
  Se  Se204  1  0.92234747  0.91765646  0.80766864  1
  Se  Se205  1  0.08339936  0.08925415  0.30057674  1
  Se  Se206  1  0.09058196  0.07803419  0.80390675  1
  Se  Se207  1  0.09271107  0.41966640  0.31241818  1
  Se  Se208  1  0.07740732  0.41456368  0.79882230  1
  Se  Se209  1  0.09958846  0.75706960  0.30276539  1
  Se  Se210  1  0.07883932  0.74547907  0.80917189  1
  Se  Se211  1  0.41631115  0.08492607  0.30329253  1
  Se  Se212  1  0.41825911  0.09124320  0.81580823  1
  Se  Se213  1  0.43141562  0.42655879  0.30901926  1
  Se  Se214  1  0.40481708  0.40455125  0.80340063  1
  Se  Se215  1  0.42426705  0.75881619  0.31470157  1
  Se  Se216  1  0.41587170  0.75197881  0.80327217  1
  Se  Se217  1  0.75107949  0.08490154  0.30632708  1
  Se  Se218  1  0.75621135  0.09091938  0.80386243  1
  Se  Se219  1  0.75502121  0.41004712  0.30096199  1
  Se  Se220  1  0.75120287  0.41697190  0.79942059  1
  Se  Se221  1  0.76146479  0.75244898  0.30867748  1
  Se  Se222  1  0.75523194  0.75499644  0.81552107  1
  Se  Se223  1  0.25133376  0.08215791  0.18250014  1
  Se  Se224  1  0.26522586  0.07404644  0.68351864  1
  Se  Se225  1  0.24305274  0.41651351  0.19059518  1
  Se  Se226  1  0.24397928  0.42413631  0.70206342  1
  Se  Se227  1  0.24701328  0.75433501  0.18682617  1
  Se  Se228  1  0.25105102  0.74591157  0.70069927  1
  Se  Se229  1  0.57686271  0.09498379  0.18329307  1
  Se  Se230  1  0.57821539  0.08729152  0.69604571  1
  Se  Se231  1  0.58786209  0.40948252  0.19132319  1
  Se  Se232  1  0.56701639  0.43785808  0.70102857  1
  Se  Se233  1  0.57309104  0.76001090  0.19289402  1
  Se  Se234  1  0.57993867  0.76292925  0.68797298  1
  Se  Se235  1  0.90498996  0.09093846  0.18612687  1
  Se  Se236  1  0.94245868  0.06171168  0.68839706  1
  Se  Se237  1  0.91505806  0.41737660  0.18687554  1
  Se  Se238  1  0.91304029  0.42150848  0.69274812  1
  Se  Se239  1  0.92556450  0.74241400  0.19300630  1
  Se  Se240  1  0.91569146  0.74841643  0.70115045  1
  Se  Se241  1  0.08382758  0.24439506  0.18568919  1
  Se  Se242  1  0.12219549  0.22212556  0.70626941  1
  Se  Se243  1  0.08310223  0.58346774  0.19465655  1
  Se  Se244  1  0.07562627  0.58679235  0.69805727  1
  Se  Se245  1  0.09515580  0.90688200  0.18160747  1
  Se  Se246  1  0.08821753  0.90583392  0.69693312  1
  Se  Se247  1  0.41511248  0.24021782  0.18449512  1
  Se  Se248  1  0.41511094  0.24883429  0.70018835  1
  Se  Se249  1  0.42436600  0.57724821  0.19008625  1
  Se  Se250  1  0.41287492  0.58827103  0.70587167  1
  Se  Se251  1  0.41609378  0.92331137  0.19720603  1
  Se  Se252  1  0.42535472  0.91078125  0.68894900  1
  Se  Se253  1  0.74578121  0.25412141  0.19086292  1
  Se  Se254  1  0.73245709  0.26902795  0.69114761  1
  Se  Se255  1  0.76281208  0.56776523  0.18337961  1
  Se  Se256  1  0.75394868  0.58276601  0.68856217  1
  Se  Se257  1  0.76264640  0.90526383  0.18848297  1
  Se  Se258  1  0.75519390  0.91826256  0.70697743  1
