# generated using pymatgen
data_In86Cu29Se144
_symmetry_space_group_name_H-M   'P 1'
_cell_length_a   17.57568291
_cell_length_b   17.57958881
_cell_length_c   23.43796452
_cell_angle_alpha   89.97761081
_cell_angle_beta   89.97578337
_cell_angle_gamma   90.00722326
_symmetry_Int_Tables_number   1
_chemical_formula_structural   In86Cu29Se144
_chemical_formula_sum   'In86 Cu29 Se144'
_cell_volume   7241.70348373
_cell_formula_units_Z   1
loop_
 _symmetry_equiv_pos_site_id
 _symmetry_equiv_pos_as_xyz
  1  'x, y, z'
loop_
 _atom_site_type_symbol
 _atom_site_label
 _atom_site_symmetry_multiplicity
 _atom_site_fract_x
 _atom_site_fract_y
 _atom_site_fract_z
 _atom_site_occupancy
  In  In0  1  -0.00671184  0.16895355  0.10747316  1
  In  In1  1  -0.01401442  0.16298327  0.63209299  1
  In  In2  1  -0.00572629  0.51603590  0.12632921  1
  In  In3  1  -0.00081471  0.51393883  0.62765421  1
  In  In4  1  -0.01276666  0.82693502  0.11840618  1
  In  In5  1  0.00587671  0.82653083  0.64597534  1
  In  In6  1  0.32059212  0.16269566  0.12327304  1
  In  In7  1  0.34436283  0.15727352  0.62985599  1
  In  In8  1  0.34279023  0.50074033  0.12976297  1
  In  In9  1  0.34144817  0.48897679  0.63264032  1
  In  In10  1  0.34497237  0.82927571  0.12907245  1
  In  In11  1  0.34888771  0.83076085  0.62412443  1
  In  In12  1  0.67612980  0.16738111  0.12766925  1
  In  In13  1  0.65792557  0.17383769  0.63366206  1
  In  In14  1  0.68179748  0.49009715  0.13311549  1
  In  In15  1  0.66445892  0.49949517  0.62340481  1
  In  In16  1  0.66617137  0.83562518  0.12377415  1
  In  In17  1  0.65775573  0.84266085  0.63115239  1
  In  In18  1  0.16704776  -0.01469848  0.37379168  1
  In  In19  1  0.17643912  0.00682181  0.86445089  1
  In  In20  1  0.16063437  0.33413530  0.37638846  1
  In  In21  1  0.16162060  0.32110626  0.87581852  1
  In  In22  1  0.16855662  0.65894403  0.35965213  1
  In  In23  1  0.16013461  0.68585387  0.86638349  1
  In  In24  1  0.50256916  0.00160209  0.37392864  1
  In  In25  1  0.49294125  -0.00581671  0.86987416  1
  In  In26  1  0.51133714  0.32327592  0.38458473  1
  In  In27  1  0.50709264  0.34521963  0.85695149  1
  In  In28  1  0.50282815  0.66992728  0.37723661  1
  In  In29  1  0.52566437  0.66482122  0.86949038  1
  In  In30  1  0.81894899  0.00844579  0.37158227  1
  In  In31  1  0.82881754  -0.00190574  0.87815978  1
  In  In32  1  0.83403223  0.34223881  0.37240965  1
  In  In33  1  0.82062384  0.35118622  0.90029952  1
  In  In34  1  0.81840663  0.65566085  0.36418441  1
  In  In35  1  0.82736344  0.66654870  0.87698669  1
  In  In36  1  -0.01261414  0.17333658  0.37302175  1
  In  In37  1  0.00534700  0.16959104  0.88868198  1
  In  In38  1  -0.01287082  0.49684889  0.37207259  1
  In  In39  1  -0.01769282  0.49478621  0.87518787  1
  In  In40  1  0.01040730  0.82880387  0.37268349  1
  In  In41  1  -0.01078547  0.82004167  0.86557842  1
  In  In42  1  0.35101230  0.17344520  0.37364414  1
  In  In43  1  0.33061260  0.16399421  0.87034190  1
  In  In44  1  0.33831392  0.51547059  0.37345575  1
  In  In45  1  0.35158421  0.49858384  0.86329656  1
  In  In46  1  0.34178364  0.84247932  0.36873990  1
  In  In47  1  0.32895269  0.84739347  0.87216927  1
  In  In48  1  0.66047765  0.15269417  0.36001050  1
  In  In49  1  0.67736531  0.17569058  0.87464825  1
  In  In50  1  0.66470477  0.50157177  0.37762973  1
  In  In51  1  0.66983093  0.50370779  0.86901677  1
  In  In52  1  0.65728504  0.82630807  0.36937815  1
  In  In53  1  0.66589421  0.83329784  0.87801243  1
  In  In54  1  0.16624288  0.01052030  0.12328537  1
  In  In55  1  0.17450110  -0.01304370  0.64493763  1
  In  In56  1  0.17389696  0.32465948  0.11622536  1
  In  In57  1  0.17367105  0.35327412  0.63520066  1
  In  In58  1  0.17014481  0.65859848  0.13611638  1
  In  In59  1  0.16019903  0.65366906  0.63251039  1
  In  In60  1  0.51417361  -0.00647191  0.13059292  1
  In  In61  1  0.49924758  0.00038288  0.62540843  1
  In  In62  1  0.51100359  0.34500966  0.12649324  1
  In  In63  1  0.50792987  0.33069680  0.62555107  1
  In  In64  1  0.49879929  0.67274612  0.13184774  1
  In  In65  1  0.50794155  0.68041654  0.61632849  1
  In  In66  1  0.83019883  -0.00372165  0.11609903  1
  In  In67  1  0.83241347  0.00099912  0.64150041  1
  In  In68  1  0.81443688  0.32219051  0.09848211  1
  In  In69  1  0.80886253  0.33758333  0.62987097  1
  In  In70  1  0.83039374  0.66873332  0.12495909  1
  In  In71  1  0.83597789  0.65590610  0.62984407  1
  In  In72  1  0.17625653  0.16090189  0.51197049  1
  In  In73  1  0.50311434  0.16619638  0.00153421  1
  In  In74  1  0.82388820  0.16891209  0.49987863  1
  In  In75  1  -0.00367220  -0.00421071  0.23749249  1
  In  In76  1  -0.00357213  0.33008899  0.75907773  1
  In  In77  1  0.50796742  0.50203162  -0.00572058  1
  In  In78  1  0.17333024  0.50176547  0.50224050  1
  In  In79  1  0.16130371  0.49691552  -0.00523807  1
  In  In80  1  0.17419282  0.82554147  0.50954551  1
  In  In81  1  0.33698667  0.33329811  0.24721459  1
  In  In82  1  0.16002138  0.83930237  -0.00451856  1
  In  In83  1  0.32943108  0.67193992  0.74682992  1
  In  In84  1  -0.00700222  0.33740696  0.24600273  1
  In  In85  1  0.83239952  0.82947754  0.50207645  1
  Cu  Cu86  1  0.33963293  0.67034646  0.00557768  1
  Cu  Cu87  1  0.33897839  0.67186152  0.49659444  1
  Cu  Cu88  1  0.83403685  0.83465510  0.24330316  1
  Cu  Cu89  1  0.49939556  0.16183274  0.75021793  1
  Cu  Cu90  1  0.65797514  0.00280165  0.50206151  1
  Cu  Cu91  1  0.66316507  0.33727631  0.50095270  1
  Cu  Cu92  1  -0.00707427  0.66749718  -0.00239057  1
  Cu  Cu93  1  0.66636828  0.66378196  0.49754004  1
  Cu  Cu94  1  0.82170638  0.82717039  0.75516706  1
  Cu  Cu95  1  0.16914387  0.17042897  0.75395464  1
  Cu  Cu96  1  0.50196575  0.16263677  0.25052085  1
  Cu  Cu97  1  0.50459821  0.50474134  0.25357857  1
  Cu  Cu98  1  -0.00493300  -0.00146270  0.51196235  1
  Cu  Cu99  1  0.34483559  0.33509621  0.50505895  1
  Cu  Cu100  1  -0.00227420  -0.00100341  -0.00386390  1
  Cu  Cu101  1  0.50338533  0.83729898  0.25180411  1
  Cu  Cu102  1  -0.00531943  0.33453721  0.49738203  1
  Cu  Cu103  1  0.83117894  0.50544431  0.24829173  1
  Cu  Cu104  1  0.16198314  0.15974456  0.24769175  1
  Cu  Cu105  1  0.33345316  0.00045532  -0.00721044  1
  Cu  Cu106  1  -0.00858698  0.66025416  0.49980266  1
  Cu  Cu107  1  0.34483786  0.00554829  0.49697962  1
  Cu  Cu108  1  0.33382449  0.32586554  -0.00724374  1
  Cu  Cu109  1  0.66567164  -0.00430587  0.00075725  1
  Cu  Cu110  1  0.17430721  0.82714953  0.24842671  1
  Cu  Cu111  1  0.82735672  0.49925397  0.75275423  1
  Cu  Cu112  1  0.83517238  0.16282456  0.76234172  1
  Cu  Cu113  1  0.50301905  0.83415035  0.74910926  1
  Cu  Cu114  1  0.66893100  0.66896057  0.00216106  1
  Se  Se115  1  0.08382942  0.08055026  0.04906672  1
  Se  Se116  1  0.08019410  0.07460581  0.56935121  1
  Se  Se117  1  0.07728272  0.41481898  0.06291492  1
  Se  Se118  1  0.07642529  0.41113914  0.55866247  1
  Se  Se119  1  0.08374288  0.73791452  0.05749197  1
  Se  Se120  1  0.07087858  0.73969683  0.56134917  1
  Se  Se121  1  0.41220348  0.07451049  0.05977725  1
  Se  Se122  1  0.42450190  0.08833547  0.55275653  1
  Se  Se123  1  0.41039273  0.40914123  0.05382218  1
  Se  Se124  1  0.42489611  0.41943727  0.55832543  1
  Se  Se125  1  0.42481665  0.75257890  0.05525538  1
  Se  Se126  1  0.42181561  0.75890481  0.54573265  1
  Se  Se127  1  0.74643800  0.08415276  0.05169869  1
  Se  Se128  1  0.74466143  0.07439781  0.56370915  1
  Se  Se129  1  0.74592455  0.43141777  0.04538960  1
  Se  Se130  1  0.75044303  0.42010351  0.55023501  1
  Se  Se131  1  0.75137067  0.75402516  0.05509595  1
  Se  Se132  1  0.74204402  0.74321143  0.56320273  1
  Se  Se133  1  0.25150910  0.24202597  0.04520425  1
  Se  Se134  1  0.25808714  0.26349744  0.56594528  1
  Se  Se135  1  0.25720523  0.58435333  0.05702246  1
  Se  Se136  1  0.26270529  0.59330448  0.56150690  1
  Se  Se137  1  0.25567881  0.92067087  0.05777147  1
  Se  Se138  1  0.26054711  0.92945611  0.55872241  1
  Se  Se139  1  0.59170367  0.26028458  0.05701133  1
  Se  Se140  1  0.58673969  0.24536248  0.55286794  1
  Se  Se141  1  0.58896400  0.58727634  0.06327276  1
  Se  Se142  1  0.58245561  0.58321689  0.55349480  1
  Se  Se143  1  0.57959492  0.91337128  0.05201347  1
  Se  Se144  1  0.57899457  0.91468598  0.55445299  1
  Se  Se145  1  0.92136318  0.25866806  0.04044416  1
  Se  Se146  1  0.91605641  0.25795488  0.56127638  1
  Se  Se147  1  0.91034736  0.58583367  0.05212132  1
  Se  Se148  1  0.91036253  0.57669687  0.55289801  1
  Se  Se149  1  0.91574018  0.91388571  0.04832690  1
  Se  Se150  1  0.91836412  0.91480321  0.56964077  1
  Se  Se151  1  0.07799456  0.24724379  0.44791735  1
  Se  Se152  1  0.08754190  0.25532760  0.95509330  1
  Se  Se153  1  0.08055778  0.58770147  0.44007833  1
  Se  Se154  1  0.07747318  0.59505008  0.93584509  1
  Se  Se155  1  0.07665450  0.91887958  0.45221195  1
  Se  Se156  1  0.07420909  0.92331677  0.93028908  1
  Se  Se157  1  0.42185350  0.24551382  0.45271050  1
  Se  Se158  1  0.42249224  0.25596048  0.93356491  1
  Se  Se159  1  0.42167714  0.58393448  0.44772834  1
  Se  Se160  1  0.41429713  0.59409548  0.93851849  1
  Se  Se161  1  0.42117446  0.91629842  0.44373600  1
  Se  Se162  1  0.41763495  0.91382698  0.94559784  1
  Se  Se163  1  0.73899722  0.25586588  0.43579783  1
  Se  Se164  1  0.75120100  0.24328172  0.95431302  1
  Se  Se165  1  0.75309783  0.58258026  0.44632513  1
  Se  Se166  1  0.74466392  0.58165594  0.94539088  1
  Se  Se167  1  0.74212108  0.92243748  0.44402107  1
  Se  Se168  1  0.75035141  0.91185050  0.94858140  1
  Se  Se169  1  0.25524733  0.07771861  0.43826431  1
  Se  Se170  1  0.24916529  0.08409214  0.94256207  1
  Se  Se171  1  0.26135150  0.40766417  0.44135600  1
  Se  Se172  1  0.26220832  0.41625525  0.93530602  1
  Se  Se173  1  0.25183444  0.74317732  0.43564098  1
  Se  Se174  1  0.25673863  0.74523935  0.94296251  1
  Se  Se175  1  0.58506820  0.08796697  0.44229907  1
  Se  Se176  1  0.58739027  0.07583638  0.93840300  1
  Se  Se177  1  0.57990432  0.42233041  0.44849837  1
  Se  Se178  1  0.59188107  0.40512023  0.93885493  1
  Se  Se179  1  0.58489770  0.75301379  0.44807679  1
  Se  Se180  1  0.58246087  0.74921307  0.94873585  1
  Se  Se181  1  0.92079923  0.07352880  0.44551315  1
  Se  Se182  1  0.91186912  0.08325298  0.94662738  1
  Se  Se183  1  0.91184913  0.41946078  0.44732745  1
  Se  Se184  1  0.92736238  0.41743083  0.95737784  1
  Se  Se185  1  0.91924130  0.74267347  0.43672496  1
  Se  Se186  1  0.91131400  0.75246339  0.94503339  1
  Se  Se187  1  0.24088718  0.24238280  0.30822524  1
  Se  Se188  1  0.25301617  0.25585735  0.80385992  1
  Se  Se189  1  0.25280379  0.57379033  0.29730512  1
  Se  Se190  1  0.24519729  0.58342989  0.81253323  1
  Se  Se191  1  0.25110923  0.91776531  0.29982644  1
  Se  Se192  1  0.24308493  0.91007768  0.79803376  1
  Se  Se193  1  0.58050499  0.25251536  0.30254696  1
  Se  Se194  1  0.58526088  0.24322641  0.80282443  1
  Se  Se195  1  0.58694677  0.58868862  0.30781094  1
  Se  Se196  1  0.56110554  0.55430706  0.80436248  1
  Se  Se197  1  0.58774033  0.92289738  0.30336488  1
  Se  Se198  1  0.58503647  0.91566246  0.80582745  1
  Se  Se199  1  0.89967485  0.24197257  0.30016586  1
  Se  Se200  1  0.90613533  0.24957224  0.82333866  1
  Se  Se201  1  0.91896718  0.58599442  0.30065148  1
  Se  Se202  1  0.91019620  0.58343141  0.80580374  1
  Se  Se203  1  0.91192695  0.91218387  0.31008280  1
  Se  Se204  1  0.90589253  0.91302236  0.80585201  1
  Se  Se205  1  0.08089606  0.08418848  0.31108313  1
  Se  Se206  1  0.08144447  0.09529949  0.80983659  1
  Se  Se207  1  0.08936899  0.42381379  0.30588427  1
  Se  Se208  1  0.08825366  0.42442260  0.81253037  1
  Se  Se209  1  0.08318008  0.74902631  0.29871054  1
  Se  Se210  1  0.08062930  0.75666099  0.79270030  1
  Se  Se211  1  0.41578957  0.08199168  0.30312131  1
  Se  Se212  1  0.41246127  0.07992944  0.80229160  1
  Se  Se213  1  0.42529574  0.41760640  0.31216716  1
  Se  Se214  1  0.41395440  0.41315041  0.78871139  1
  Se  Se215  1  0.42082023  0.75125231  0.30521284  1
  Se  Se216  1  0.42390490  0.75439565  0.81151609  1
  Se  Se217  1  0.75746179  0.08705673  0.29354167  1
  Se  Se218  1  0.74471373  0.07835239  0.80747332  1
  Se  Se219  1  0.74977116  0.42293694  0.30532251  1
  Se  Se220  1  0.75626736  0.40978682  0.81048655  1
  Se  Se221  1  0.75031616  0.75554430  0.30125014  1
  Se  Se222  1  0.73844771  0.74225295  0.80734608  1
  Se  Se223  1  0.25113093  0.07882087  0.19889616  1
  Se  Se224  1  0.25273382  0.08737456  0.70000977  1
  Se  Se225  1  0.24115071  0.41883523  0.18909051  1
  Se  Se226  1  0.24844707  0.43256866  0.70622155  1
  Se  Se227  1  0.25955030  0.74571004  0.19530227  1
  Se  Se228  1  0.24017282  0.76191692  0.68521230  1
  Se  Se229  1  0.58951688  0.08622398  0.19505013  1
  Se  Se230  1  0.58349523  0.07786785  0.69699757  1
  Se  Se231  1  0.58723813  0.41892171  0.20190101  1
  Se  Se232  1  0.61187747  0.39229335  0.68901484  1
  Se  Se233  1  0.58653949  0.75449794  0.19698442  1
  Se  Se234  1  0.58466474  0.74731767  0.69736333  1
  Se  Se235  1  0.91082587  0.09333225  0.18410479  1
  Se  Se236  1  0.91973301  0.08153273  0.70869092  1
  Se  Se237  1  0.90316281  0.42222866  0.18437881  1
  Se  Se238  1  0.91008780  0.41846641  0.69220926  1
  Se  Se239  1  0.91879508  0.74786605  0.19566153  1
  Se  Se240  1  0.90727011  0.74561758  0.70069526  1
  Se  Se241  1  0.08543745  0.24201911  0.18779989  1
  Se  Se242  1  0.08871036  0.24732101  0.69023808  1
  Se  Se243  1  0.08197176  0.58021830  0.19985902  1
  Se  Se244  1  0.07759976  0.58120753  0.70415749  1
  Se  Se245  1  0.09240442  0.90268139  0.18426240  1
  Se  Se246  1  0.06559349  0.93347973  0.70445630  1
  Se  Se247  1  0.42524260  0.24152342  0.18509388  1
  Se  Se248  1  0.42086896  0.24912528  0.69453776  1
  Se  Se249  1  0.41854283  0.58413885  0.19971621  1
  Se  Se250  1  0.42541176  0.59001806  0.68725164  1
  Se  Se251  1  0.41966503  0.91995122  0.19681991  1
  Se  Se252  1  0.41709359  0.91713508  0.69714172  1
  Se  Se253  1  0.74977053  0.26763720  0.18731586  1
  Se  Se254  1  0.75465168  0.24094788  0.70191700  1
  Se  Se255  1  0.74620375  0.59153238  0.19759504  1
  Se  Se256  1  0.74473112  0.58084780  0.69709444  1
  Se  Se257  1  0.75224544  0.91999311  0.19152226  1
  Se  Se258  1  0.74359371  0.91666847  0.70261599  1
