# generated using pymatgen
data_In86Cu29Se144
_symmetry_space_group_name_H-M   'P 1'
_cell_length_a   17.58279855
_cell_length_b   17.57975934
_cell_length_c   23.44094430
_cell_angle_alpha   90.03592446
_cell_angle_beta   89.97782522
_cell_angle_gamma   89.97712626
_symmetry_Int_Tables_number   1
_chemical_formula_structural   In86Cu29Se144
_chemical_formula_sum   'In86 Cu29 Se144'
_cell_volume   7245.62538100
_cell_formula_units_Z   1
loop_
 _symmetry_equiv_pos_site_id
 _symmetry_equiv_pos_as_xyz
  1  'x, y, z'
loop_
 _atom_site_type_symbol
 _atom_site_label
 _atom_site_symmetry_multiplicity
 _atom_site_fract_x
 _atom_site_fract_y
 _atom_site_fract_z
 _atom_site_occupancy
  In  In0  1  0.00566191  0.16294394  0.12179494  1
  In  In1  1  -0.01710724  0.18537739  0.65366783  1
  In  In2  1  0.01257396  0.49102867  0.13644725  1
  In  In3  1  -0.01612398  0.49027490  0.62348745  1
  In  In4  1  -0.00222540  0.82587618  0.11644469  1
  In  In5  1  0.02227741  0.83646595  0.62902608  1
  In  In6  1  0.32860114  0.18047688  0.11778984  1
  In  In7  1  0.33253622  0.15162604  0.62659633  1
  In  In8  1  0.34339295  0.50868025  0.11808301  1
  In  In9  1  0.34704649  0.49867125  0.62631713  1
  In  In10  1  0.31871669  0.81801055  0.11499539  1
  In  In11  1  0.31742612  0.84036219  0.64187074  1
  In  In12  1  0.66721393  0.16579445  0.13412452  1
  In  In13  1  0.68591108  0.18455148  0.61186902  1
  In  In14  1  0.65005198  0.50082604  0.13079075  1
  In  In15  1  0.66905791  0.49921181  0.62936416  1
  In  In16  1  0.67667827  0.83988653  0.11788316  1
  In  In17  1  0.65287179  0.82618194  0.62995799  1
  In  In18  1  0.14829226  -0.00291500  0.37918198  1
  In  In19  1  0.16517619  -0.00111162  0.87244443  1
  In  In20  1  0.15574045  0.34800710  0.36923481  1
  In  In21  1  0.15875764  0.34433494  0.88080235  1
  In  In22  1  0.17401644  0.67042455  0.37089631  1
  In  In23  1  0.17036759  0.66253811  0.87918505  1
  In  In24  1  0.51123215  -0.00093765  0.37467132  1
  In  In25  1  0.48681877  -0.00493513  0.87187595  1
  In  In26  1  0.50841489  0.32543096  0.38483749  1
  In  In27  1  0.50878252  0.33539888  0.87483254  1
  In  In28  1  0.49159292  0.66915317  0.37209374  1
  In  In29  1  0.49859191  0.66700348  0.88048030  1
  In  In30  1  0.84030171  0.01723617  0.38048606  1
  In  In31  1  0.83371892  -0.00983079  0.87228935  1
  In  In32  1  0.83299313  0.33582111  0.37634069  1
  In  In33  1  0.83736645  0.33450382  0.85191050  1
  In  In34  1  0.82520139  0.65245160  0.37636665  1
  In  In35  1  0.84058526  0.67639643  0.87250656  1
  In  In36  1  -0.01276692  0.16877320  0.37773553  1
  In  In37  1  0.01642289  0.18031019  0.85137952  1
  In  In38  1  -0.00530782  0.48887545  0.36538820  1
  In  In39  1  0.00184710  0.50750298  0.87266090  1
  In  In40  1  0.01225709  0.84132563  0.37989447  1
  In  In41  1  -0.00130554  0.83538705  0.88093973  1
  In  In42  1  0.33574818  0.18020541  0.37775108  1
  In  In43  1  0.32715274  0.14522382  0.86422738  1
  In  In44  1  0.33683565  0.51631174  0.37173420  1
  In  In45  1  0.32452658  0.51019790  0.88175257  1
  In  In46  1  0.33345844  0.81462095  0.37122153  1
  In  In47  1  0.33025103  0.83580081  0.87667328  1
  In  In48  1  0.67009495  0.17106766  0.37939731  1
  In  In49  1  0.66633009  0.17405090  0.86567347  1
  In  In50  1  0.67410533  0.49378863  0.38146371  1
  In  In51  1  0.66021152  0.48810313  0.87124642  1
  In  In52  1  0.65493998  0.83124771  0.36831008  1
  In  In53  1  0.67864350  0.82147163  0.88362665  1
  In  In54  1  0.16291609  -0.00041696  0.11273801  1
  In  In55  1  0.17225153  0.00254397  0.64161069  1
  In  In56  1  0.15881585  0.32995745  0.11453818  1
  In  In57  1  0.15148407  0.32239464  0.63165354  1
  In  In58  1  0.16446893  0.66488923  0.12369013  1
  In  In59  1  0.16760634  0.68112433  0.63046351  1
  In  In60  1  0.51640767  0.00205227  0.12380006  1
  In  In61  1  0.48818791  -0.00178122  0.62516507  1
  In  In62  1  0.50224187  0.34593433  0.12679867  1
  In  In63  1  0.51587091  0.34975990  0.61468228  1
  In  In64  1  0.48847219  0.65441139  0.11829861  1
  In  In65  1  0.50415036  0.65926309  0.63326793  1
  In  In66  1  0.82900464  -0.01603698  0.12626094  1
  In  In67  1  0.83759236  0.02428994  0.63190730  1
  In  In68  1  0.83139046  0.33528620  0.13206935  1
  In  In69  1  0.83256766  0.33343637  0.63278806  1
  In  In70  1  0.84205055  0.68549320  0.12641735  1
  In  In71  1  0.83405486  0.64699919  0.62735250  1
  In  In72  1  0.17192123  0.50377202  0.49204690  1
  In  In73  1  0.49452673  0.83064822  0.49955714  1
  In  In74  1  -0.00832918  -0.00259478  0.24650067  1
  In  In75  1  0.49469070  0.16492911  -0.00786067  1
  In  In76  1  -0.00175712  0.66595788  0.75240424  1
  In  In77  1  0.16809273  0.15984287  0.50846341  1
  In  In78  1  0.33327994  0.33112855  0.74493656  1
  In  In79  1  0.83563188  0.50686909  -0.00184410  1
  In  In80  1  0.66421231  0.00011220  0.74824423  1
  In  In81  1  0.33334669  -0.00537038  0.24378677  1
  In  In82  1  0.83356830  0.16255755  -0.01164748  1
  In  In83  1  0.83442941  0.83553785  0.49927244  1
  In  In84  1  0.66994698  0.66764252  0.24795093  1
  In  In85  1  0.33602959  0.34523220  0.24721377  1
  Cu  Cu86  1  0.66807879  0.65408265  0.50667672  1
  Cu  Cu87  1  0.00342894  0.00192409  -0.00371159  1
  Cu  Cu88  1  0.50820205  0.17280720  0.74193823  1
  Cu  Cu89  1  0.16115922  0.50060111  0.75504014  1
  Cu  Cu90  1  0.32989007  -0.00307424  -0.00595249  1
  Cu  Cu91  1  0.16039900  0.17514505  0.24200255  1
  Cu  Cu92  1  -0.00014811  0.66363206  0.50715033  1
  Cu  Cu93  1  0.32816821  0.33496167  -0.00282857  1
  Cu  Cu94  1  0.33410570  0.67261480  0.50044735  1
  Cu  Cu95  1  0.66316956  0.66681788  0.00340064  1
  Cu  Cu96  1  0.33263593  0.66824096  -0.00181953  1
  Cu  Cu97  1  -0.00109459  0.33175492  -0.00435164  1
  Cu  Cu98  1  0.82788719  0.82564688  0.74993726  1
  Cu  Cu99  1  0.49672052  0.82696206  0.24479507  1
  Cu  Cu100  1  0.66242564  0.33708121  -0.00065952  1
  Cu  Cu101  1  0.16913816  0.82611577  0.24798202  1
  Cu  Cu102  1  0.66785046  0.00913511  0.49786904  1
  Cu  Cu103  1  0.00433295  0.00273474  0.51089591  1
  Cu  Cu104  1  0.83654614  0.50045029  0.25239381  1
  Cu  Cu105  1  0.67345477  0.33449366  0.50152562  1
  Cu  Cu106  1  0.49534098  0.82641440  0.75480560  1
  Cu  Cu107  1  0.34321893  0.33367896  0.50295304  1
  Cu  Cu108  1  -0.00521137  0.32781430  0.50211735  1
  Cu  Cu109  1  0.82762303  0.17360998  0.25642773  1
  Cu  Cu110  1  0.49899047  0.50486193  0.75172294  1
  Cu  Cu111  1  0.66865903  -0.00550647  -0.00254162  1
  Cu  Cu112  1  0.32870397  -0.00573724  0.50619567  1
  Cu  Cu113  1  0.00771967  0.66722217  -0.00058041  1
  Cu  Cu114  1  0.50809451  0.16747651  0.25520407  1
  Se  Se115  1  0.08483674  0.08999322  0.04687850  1
  Se  Se116  1  0.07655474  0.08494582  0.57464336  1
  Se  Se117  1  0.07548304  0.41982311  0.05055761  1
  Se  Se118  1  0.08249301  0.41102133  0.55446527  1
  Se  Se119  1  0.09129313  0.75346080  0.05043098  1
  Se  Se120  1  0.08638426  0.74918498  0.55302297  1
  Se  Se121  1  0.40895833  0.07574994  0.05869251  1
  Se  Se122  1  0.41554796  0.08106363  0.55080977  1
  Se  Se123  1  0.41664912  0.41123951  0.05177954  1
  Se  Se124  1  0.42264671  0.42629169  0.54884114  1
  Se  Se125  1  0.41890240  0.74987175  0.05118556  1
  Se  Se126  1  0.40982134  0.74902868  0.56758231  1
  Se  Se127  1  0.74412360  0.08085186  0.05643138  1
  Se  Se128  1  0.75863072  0.08421731  0.55002991  1
  Se  Se129  1  0.74535524  0.41510219  0.05865280  1
  Se  Se130  1  0.75281182  0.41568553  0.56058444  1
  Se  Se131  1  0.75322781  0.74854229  0.05109612  1
  Se  Se132  1  0.74395836  0.74560080  0.56067079  1
  Se  Se133  1  0.24299865  0.24819024  0.04484812  1
  Se  Se134  1  0.25759642  0.25938908  0.56266340  1
  Se  Se135  1  0.25028417  0.58480599  0.05376807  1
  Se  Se136  1  0.25517733  0.58935782  0.56084873  1
  Se  Se137  1  0.24756915  0.91419928  0.04934695  1
  Se  Se138  1  0.24613774  0.91959317  0.56465307  1
  Se  Se139  1  0.58728989  0.24857013  0.05670832  1
  Se  Se140  1  0.58337388  0.25013924  0.54964782  1
  Se  Se141  1  0.58218038  0.57791595  0.05197854  1
  Se  Se142  1  0.57918438  0.57790497  0.55955277  1
  Se  Se143  1  0.58268043  0.91468685  0.05034119  1
  Se  Se144  1  0.58979835  0.92365780  0.55555409  1
  Se  Se145  1  0.91534119  0.25476250  0.05525153  1
  Se  Se146  1  0.92059387  0.24818894  0.56507433  1
  Se  Se147  1  0.92516221  0.59034388  0.06133606  1
  Se  Se148  1  0.91351388  0.57634782  0.55024565  1
  Se  Se149  1  0.92059029  0.92211768  0.05328311  1
  Se  Se150  1  0.92004597  0.91996025  0.56667814  1
  Se  Se151  1  0.08379859  0.25388012  0.44323415  1
  Se  Se152  1  0.07722777  0.24640832  0.93978561  1
  Se  Se153  1  0.07412015  0.58873461  0.43768408  1
  Se  Se154  1  0.08486142  0.57869774  0.94630192  1
  Se  Se155  1  0.08557489  0.91717596  0.45855438  1
  Se  Se156  1  0.08768532  0.91538623  0.94633289  1
  Se  Se157  1  0.42149743  0.24317043  0.45272404  1
  Se  Se158  1  0.40374553  0.25372643  0.93237978  1
  Se  Se159  1  0.41740231  0.58925679  0.44758923  1
  Se  Se160  1  0.41772522  0.58074257  0.94970771  1
  Se  Se161  1  0.40556202  0.92083491  0.43684303  1
  Se  Se162  1  0.41976943  0.91378814  0.94829973  1
  Se  Se163  1  0.75687740  0.25032147  0.44793900  1
  Se  Se164  1  0.74533687  0.26403028  0.93660290  1
  Se  Se165  1  0.75513768  0.57556844  0.45343643  1
  Se  Se166  1  0.74287390  0.59120913  0.93754342  1
  Se  Se167  1  0.73982523  0.92086157  0.43774533  1
  Se  Se168  1  0.75788077  0.91338484  0.94817768  1
  Se  Se169  1  0.25532148  0.07489532  0.43862946  1
  Se  Se170  1  0.24725851  0.08391582  0.94454394  1
  Se  Se171  1  0.26194916  0.40618695  0.43814503  1
  Se  Se172  1  0.24428870  0.42303694  0.94902343  1
  Se  Se173  1  0.24736745  0.75214456  0.44752941  1
  Se  Se174  1  0.24815225  0.75170967  0.94613627  1
  Se  Se175  1  0.58013815  0.08747137  0.44536352  1
  Se  Se176  1  0.59251104  0.07610426  0.93501857  1
  Se  Se177  1  0.58629636  0.41693210  0.45035027  1
  Se  Se178  1  0.57747368  0.42077868  0.94947028  1
  Se  Se179  1  0.59193188  0.73797038  0.44527138  1
  Se  Se180  1  0.58180540  0.75224260  0.94929816  1
  Se  Se181  1  0.92300598  0.08616758  0.45581801  1
  Se  Se182  1  0.92943181  0.08005570  0.93055153  1
  Se  Se183  1  0.92118055  0.41590506  0.44484702  1
  Se  Se184  1  0.91523303  0.40812578  0.93605690  1
  Se  Se185  1  0.92300519  0.74286548  0.44097317  1
  Se  Se186  1  0.91800097  0.74801572  0.94923296  1
  Se  Se187  1  0.24226154  0.24844401  0.30478506  1
  Se  Se188  1  0.24612280  0.25258367  0.81311291  1
  Se  Se189  1  0.23744911  0.57134057  0.30438935  1
  Se  Se190  1  0.24755589  0.58286495  0.80416136  1
  Se  Se191  1  0.24061612  0.91390559  0.31024588  1
  Se  Se192  1  0.27314415  0.93965413  0.81069700  1
  Se  Se193  1  0.58762205  0.25264702  0.30849085  1
  Se  Se194  1  0.58383834  0.25746200  0.79865269  1
  Se  Se195  1  0.58463425  0.58049787  0.31262226  1
  Se  Se196  1  0.58057991  0.58371499  0.81014369  1
  Se  Se197  1  0.57598267  0.91333022  0.29826912  1
  Se  Se198  1  0.58289713  0.90618016  0.81204792  1
  Se  Se199  1  0.91806181  0.25401041  0.30514790  1
  Se  Se200  1  0.90767994  0.23644868  0.79078241  1
  Se  Se201  1  0.91607730  0.58715606  0.30476181  1
  Se  Se202  1  0.90185826  0.57263391  0.80325969  1
  Se  Se203  1  0.90901387  0.91323215  0.31514869  1
  Se  Se204  1  0.91271770  0.90328265  0.80491657  1
  Se  Se205  1  0.08494852  0.09242939  0.30479203  1
  Se  Se206  1  0.06389484  0.05711582  0.80229451  1
  Se  Se207  1  0.09022772  0.42795264  0.29400807  1
  Se  Se208  1  0.07714134  0.41660819  0.80481167  1
  Se  Se209  1  0.08315241  0.75464545  0.30805912  1
  Se  Se210  1  0.08905424  0.75430465  0.81049665  1
  Se  Se211  1  0.41739768  0.08896356  0.30792060  1
  Se  Se212  1  0.42929623  0.08757888  0.79688149  1
  Se  Se213  1  0.42712050  0.41949119  0.31543720  1
  Se  Se214  1  0.41606567  0.42254346  0.81022420  1
  Se  Se215  1  0.41287067  0.74292904  0.29574350  1
  Se  Se216  1  0.41290382  0.74636232  0.81095312  1
  Se  Se217  1  0.75063291  0.08441403  0.30921094  1
  Se  Se218  1  0.75965157  0.08837925  0.80445213  1
  Se  Se219  1  0.75165481  0.41848698  0.30562268  1
  Se  Se220  1  0.74160752  0.41590559  0.79760610  1
  Se  Se221  1  0.75911566  0.75717614  0.30962002  1
  Se  Se222  1  0.74578970  0.74398477  0.80325064  1
  Se  Se223  1  0.24320417  0.09189600  0.18753053  1
  Se  Se224  1  0.25395813  0.09207321  0.70557915  1
  Se  Se225  1  0.24567950  0.42093299  0.18018859  1
  Se  Se226  1  0.23933889  0.42472280  0.68807117  1
  Se  Se227  1  0.25211362  0.74312013  0.19561036  1
  Se  Se228  1  0.25214896  0.74126473  0.70679701  1
  Se  Se229  1  0.58645945  0.07967824  0.20162731  1
  Se  Se230  1  0.58476707  0.08940157  0.68078541  1
  Se  Se231  1  0.59033647  0.40655444  0.20097021  1
  Se  Se232  1  0.58101982  0.41866811  0.69865375  1
  Se  Se233  1  0.58009203  0.75102728  0.18304739  1
  Se  Se234  1  0.58228113  0.74465874  0.70399301  1
  Se  Se235  1  0.90208927  0.09393893  0.18921857  1
  Se  Se236  1  0.93973623  0.06065277  0.70496410  1
  Se  Se237  1  0.91782735  0.41410111  0.19909314  1
  Se  Se238  1  0.92436270  0.40851981  0.70061736  1
  Se  Se239  1  0.91704527  0.76783584  0.19700622  1
  Se  Se240  1  0.91238093  0.75458584  0.68520200  1
  Se  Se241  1  0.07596423  0.25590741  0.18995697  1
  Se  Se242  1  0.09671602  0.23989931  0.71046520  1
  Se  Se243  1  0.05968155  0.60918212  0.19001249  1
  Se  Se244  1  0.08418425  0.57528081  0.68660571  1
  Se  Se245  1  0.09246026  0.91411390  0.19065871  1
  Se  Se246  1  0.09539649  0.90844270  0.70548316  1
  Se  Se247  1  0.42445178  0.24180887  0.19248020  1
  Se  Se248  1  0.42724235  0.25087929  0.68056435  1
  Se  Se249  1  0.42879396  0.56913211  0.19579240  1
  Se  Se250  1  0.41074792  0.58551745  0.70129858  1
  Se  Se251  1  0.42081164  0.90765807  0.18116299  1
  Se  Se252  1  0.42018200  0.91529257  0.69990038  1
  Se  Se253  1  0.74582583  0.25477085  0.19936527  1
  Se  Se254  1  0.74901818  0.24522727  0.69779919  1
  Se  Se255  1  0.76118100  0.57806145  0.18596068  1
  Se  Se256  1  0.73806853  0.59386486  0.69789357  1
  Se  Se257  1  0.74155737  0.91787887  0.19767398  1
  Se  Se258  1  0.75588272  0.91063881  0.68609054  1
