# generated using pymatgen
data_In86Cu29Se144
_symmetry_space_group_name_H-M   'P 1'
_cell_length_a   17.58220304
_cell_length_b   17.59668550
_cell_length_c   23.46079878
_cell_angle_alpha   90.02450560
_cell_angle_beta   89.98710979
_cell_angle_gamma   90.00253966
_symmetry_Int_Tables_number   1
_chemical_formula_structural   In86Cu29Se144
_chemical_formula_sum   'In86 Cu29 Se144'
_cell_volume   7258.50042572
_cell_formula_units_Z   1
loop_
 _symmetry_equiv_pos_site_id
 _symmetry_equiv_pos_as_xyz
  1  'x, y, z'
loop_
 _atom_site_type_symbol
 _atom_site_label
 _atom_site_symmetry_multiplicity
 _atom_site_fract_x
 _atom_site_fract_y
 _atom_site_fract_z
 _atom_site_occupancy
  In  In0  1  -0.01112730  0.16720376  0.12620083  1
  In  In1  1  0.01046935  0.16959284  0.62146836  1
  In  In2  1  -0.00220798  0.49280762  0.12021312  1
  In  In3  1  -0.01385049  0.49274165  0.62139512  1
  In  In4  1  0.01151973  0.83168936  0.12648068  1
  In  In5  1  -0.00212147  0.84389478  0.62237134  1
  In  In6  1  0.32534630  0.16268951  0.12792529  1
  In  In7  1  0.35588997  0.19064220  0.60605875  1
  In  In8  1  0.34202794  0.50589521  0.11632160  1
  In  In9  1  0.33515518  0.50113132  0.62353946  1
  In  In10  1  0.34740432  0.83520606  0.12175418  1
  In  In11  1  0.33232304  0.82018077  0.62647196  1
  In  In12  1  0.67301219  0.15667867  0.12760376  1
  In  In13  1  0.65555132  0.18258410  0.62667565  1
  In  In14  1  0.65331188  0.51059882  0.15193457  1
  In  In15  1  0.66198263  0.50167005  0.62337589  1
  In  In16  1  0.65408391  0.83931294  0.12491280  1
  In  In17  1  0.65387335  0.82151633  0.61676718  1
  In  In18  1  0.18030417  0.01209682  0.36755433  1
  In  In19  1  0.16049737  -0.00128361  0.88095035  1
  In  In20  1  0.16647752  0.33007051  0.38514159  1
  In  In21  1  0.18460689  0.34708143  0.85979503  1
  In  In22  1  0.16212269  0.65619699  0.37937241  1
  In  In23  1  0.18192585  0.65358826  0.88255295  1
  In  In24  1  0.50238090  -0.00369683  0.37867082  1
  In  In25  1  0.49593435  -0.00141969  0.88069397  1
  In  In26  1  0.50505376  0.33333003  0.37775148  1
  In  In27  1  0.51756635  0.34437314  0.85632679  1
  In  In28  1  0.51776977  0.65353638  0.38279601  1
  In  In29  1  0.50216110  0.66576324  0.87274709  1
  In  In30  1  0.81982434  -0.01466617  0.36308025  1
  In  In31  1  0.84397098  0.00777226  0.87981430  1
  In  In32  1  0.81879531  0.35579132  0.37275798  1
  In  In33  1  0.82256406  0.32696399  0.86645398  1
  In  In34  1  0.82584410  0.66544808  0.37669603  1
  In  In35  1  0.81608782  0.66795756  0.87210089  1
  In  In36  1  0.01017613  0.16658546  0.37597448  1
  In  In37  1  -0.00956329  0.16900184  0.87616991  1
  In  In38  1  -0.00030191  0.49863275  0.38441232  1
  In  In39  1  0.01455095  0.50171681  0.87225024  1
  In  In40  1  -0.01526010  0.83112475  0.37323986  1
  In  In41  1  0.00038228  0.84559592  0.88154586  1
  In  In42  1  0.35232536  0.14314011  0.39826186  1
  In  In43  1  0.33121247  0.17041255  0.86941486  1
  In  In44  1  0.33823705  0.49483133  0.38196489  1
  In  In45  1  0.34052097  0.50088875  0.87026996  1
  In  In46  1  0.34244706  0.85207777  0.37815711  1
  In  In47  1  0.35183659  0.81865656  0.88519553  1
  In  In48  1  0.66161907  0.15821732  0.36897634  1
  In  In49  1  0.66051611  0.20093881  0.88945119  1
  In  In50  1  0.66088065  0.50124730  0.36763819  1
  In  In51  1  0.65387205  0.49215657  0.87230655  1
  In  In52  1  0.66479509  0.83193511  0.37577509  1
  In  In53  1  0.66188342  0.82087657  0.87706129  1
  In  In54  1  0.18083461  -0.01004861  0.13657967  1
  In  In55  1  0.15985421  0.00319635  0.62010640  1
  In  In56  1  0.16003837  0.33851069  0.12061548  1
  In  In57  1  0.16636331  0.33707879  0.62612494  1
  In  In58  1  0.16843755  0.66484729  0.11573747  1
  In  In59  1  0.18656338  0.66726973  0.62843605  1
  In  In60  1  0.51671546  -0.01670971  0.13734686  1
  In  In61  1  0.49667541  0.00446075  0.60819840  1
  In  In62  1  0.51357906  0.34992462  0.12606388  1
  In  In63  1  0.49543460  0.33597031  0.62383752  1
  In  In64  1  0.51042556  0.66309701  0.12190818  1
  In  In65  1  0.50059157  0.66575769  0.62430244  1
  In  In66  1  0.81663918  0.01505764  0.13629645  1
  In  In67  1  0.84232190  -0.00472498  0.61483071  1
  In  In68  1  0.83118476  0.32472414  0.12233064  1
  In  In69  1  0.81504167  0.34683818  0.63455579  1
  In  In70  1  0.80365397  0.65841322  0.12718526  1
  In  In71  1  0.81808511  0.65374643  0.61596754  1
  In  In72  1  0.16684562  0.17214255  -0.00297113  1
  In  In73  1  0.83111583  0.16667912  0.49827162  1
  In  In74  1  0.34307439  0.67089331  0.24583900  1
  In  In75  1  -0.00807895  0.66728755  0.25386703  1
  In  In76  1  0.00049411  0.00489619  0.75047215  1
  In  In77  1  0.00114517  0.66705122  0.75035097  1
  In  In78  1  0.66994069  0.00607779  0.74790232  1
  In  In79  1  0.16727674  0.82879250  0.49897937  1
  In  In80  1  0.33138773  0.00355951  0.74846701  1
  In  In81  1  0.82899433  0.83900797  0.00921710  1
  In  In82  1  0.50178946  0.16355561  0.00173733  1
  In  In83  1  -0.00625290  0.33036928  0.24679503  1
  In  In84  1  0.33672771  0.32838989  0.25814868  1
  In  In85  1  0.82582940  0.49844920  -0.00040517  1
  Cu  Cu86  1  0.00534033  0.00155208  0.00613786  1
  Cu  Cu87  1  0.49829332  0.50248094  0.74452659  1
  Cu  Cu88  1  0.17148597  0.17653861  0.74217152  1
  Cu  Cu89  1  0.66752546  -0.00095174  0.49239996  1
  Cu  Cu90  1  0.50276654  0.83517971  0.25353694  1
  Cu  Cu91  1  0.17460496  0.82797191  0.75959910  1
  Cu  Cu92  1  0.32620247  0.34098264  0.50360824  1
  Cu  Cu93  1  0.83564046  0.16422367  0.25172660  1
  Cu  Cu94  1  0.00555945  0.34198849  -0.00324199  1
  Cu  Cu95  1  0.49805720  0.82930611  0.74836761  1
  Cu  Cu96  1  0.83095099  0.17496669  0.75211737  1
  Cu  Cu97  1  -0.00313576  -0.00581875  0.49309147  1
  Cu  Cu98  1  0.17044943  0.15850635  0.25608784  1
  Cu  Cu99  1  0.82470441  0.82624172  0.74459739  1
  Cu  Cu100  1  0.34275536  0.34307807  -0.00852435  1
  Cu  Cu101  1  0.34184593  0.66544185  0.50245579  1
  Cu  Cu102  1  0.16802914  0.84013572  0.25086232  1
  Cu  Cu103  1  -0.00044678  0.66028791  0.50022443  1
  Cu  Cu104  1  0.82920606  0.83257083  0.24830656  1
  Cu  Cu105  1  0.49351662  0.16296521  0.25402719  1
  Cu  Cu106  1  -0.00408084  0.33393164  0.50296059  1
  Cu  Cu107  1  0.17126240  0.49914911  0.74787098  1
  Cu  Cu108  1  0.33708342  -0.01008599  0.00702924  1
  Cu  Cu109  1  0.82755598  0.49931903  0.74607343  1
  Cu  Cu110  1  -0.00302951  0.66978034  -0.00039344  1
  Cu  Cu111  1  0.66589094  0.66577387  0.49731991  1
  Cu  Cu112  1  0.66089193  0.33977730  0.50188091  1
  Cu  Cu113  1  0.33357598  0.66223461  -0.00341416  1
  Cu  Cu114  1  0.16798913  0.49657273  0.24844592  1
  Se  Se115  1  0.08862480  0.08204549  0.06504206  1
  Se  Se116  1  0.07538293  0.07857188  0.54908074  1
  Se  Se117  1  0.08872592  0.42502849  0.04884022  1
  Se  Se118  1  0.07979853  0.41734322  0.55668098  1
  Se  Se119  1  0.08336281  0.75090046  0.05154112  1
  Se  Se120  1  0.07808233  0.73991451  0.56295717  1
  Se  Se121  1  0.41398710  0.07520708  0.06538010  1
  Se  Se122  1  0.40586419  0.08041594  0.54415741  1
  Se  Se123  1  0.42465634  0.41731492  0.05281853  1
  Se  Se124  1  0.41726073  0.42082481  0.55282981  1
  Se  Se125  1  0.41681921  0.73905522  0.05677832  1
  Se  Se126  1  0.42077199  0.75321023  0.55420320  1
  Se  Se127  1  0.75824212  0.08736692  0.05301511  1
  Se  Se128  1  0.73922393  0.07956547  0.56027959  1
  Se  Se129  1  0.74199537  0.42034131  0.06875790  1
  Se  Se130  1  0.74867989  0.42067528  0.55338690  1
  Se  Se131  1  0.73143933  0.74266887  0.05300346  1
  Se  Se132  1  0.75005204  0.75134008  0.55011683  1
  Se  Se133  1  0.26271187  0.26337854  0.05452665  1
  Se  Se134  1  0.24264750  0.25322506  0.55278878  1
  Se  Se135  1  0.24901826  0.57819280  0.04993169  1
  Se  Se136  1  0.25216340  0.58487688  0.55222655  1
  Se  Se137  1  0.24905257  0.91039783  0.05863958  1
  Se  Se138  1  0.25463599  0.91825691  0.55997252  1
  Se  Se139  1  0.59139923  0.25293049  0.06157405  1
  Se  Se140  1  0.57693859  0.25281942  0.55052868  1
  Se  Se141  1  0.58790565  0.56506420  0.06333007  1
  Se  Se142  1  0.58168517  0.58451298  0.55298677  1
  Se  Se143  1  0.58389941  0.92421236  0.05162257  1
  Se  Se144  1  0.58558280  0.91691790  0.54919406  1
  Se  Se145  1  0.92695657  0.25827391  0.05296024  1
  Se  Se146  1  0.91240735  0.25729611  0.56390874  1
  Se  Se147  1  0.91490355  0.59485569  0.06118083  1
  Se  Se148  1  0.91142063  0.57899429  0.55107578  1
  Se  Se149  1  0.92194985  0.92662326  0.06746800  1
  Se  Se150  1  0.91535380  0.90814057  0.54422560  1
  Se  Se151  1  0.07883589  0.24883190  0.45139248  1
  Se  Se152  1  0.08455114  0.26325042  0.93350727  1
  Se  Se153  1  0.08753290  0.57646412  0.45264514  1
  Se  Se154  1  0.08127444  0.58592325  0.94743545  1
  Se  Se155  1  0.08170919  0.91678727  0.43405301  1
  Se  Se156  1  0.08666492  0.91619182  0.95411486  1
  Se  Se157  1  0.41069428  0.26200668  0.44627962  1
  Se  Se158  1  0.41723494  0.25334037  0.93692555  1
  Se  Se159  1  0.42113587  0.58049722  0.44711816  1
  Se  Se160  1  0.41921529  0.58151737  0.94254529  1
  Se  Se161  1  0.41837256  0.92373677  0.45324826  1
  Se  Se162  1  0.42385470  0.91272666  0.95216539  1
  Se  Se163  1  0.74066856  0.25800138  0.44019138  1
  Se  Se164  1  0.77045051  0.24928272  0.95075507  1
  Se  Se165  1  0.74422655  0.57860834  0.44208358  1
  Se  Se166  1  0.73303605  0.58882727  0.94251745  1
  Se  Se167  1  0.75290330  0.91336466  0.44490064  1
  Se  Se168  1  0.74815096  0.92072484  0.93691699  1
  Se  Se169  1  0.23434911  0.09051403  0.45017929  1
  Se  Se170  1  0.26318182  0.07524408  0.94528092  1
  Se  Se171  1  0.24386930  0.42363400  0.44824703  1
  Se  Se172  1  0.25242949  0.42096616  0.94047237  1
  Se  Se173  1  0.26099512  0.74160607  0.43780690  1
  Se  Se174  1  0.24953983  0.75195488  0.94835837  1
  Se  Se175  1  0.58338052  0.08709230  0.44579782  1
  Se  Se176  1  0.59633017  0.07954389  0.93975041  1
  Se  Se177  1  0.58188004  0.42358636  0.44438643  1
  Se  Se178  1  0.58901201  0.39848858  0.94231851  1
  Se  Se179  1  0.58202096  0.75407686  0.44822646  1
  Se  Se180  1  0.56709254  0.75873631  0.94475492  1
  Se  Se181  1  0.91425997  0.07465748  0.43438376  1
  Se  Se182  1  0.92412010  0.08574043  0.95256607  1
  Se  Se183  1  0.91205778  0.41391397  0.44711992  1
  Se  Se184  1  0.92095078  0.41711702  0.93617543  1
  Se  Se185  1  0.91757450  0.74229124  0.44470670  1
  Se  Se186  1  0.91384025  0.74620233  0.94011305  1
  Se  Se187  1  0.24703788  0.23983366  0.31727247  1
  Se  Se188  1  0.26015097  0.25323729  0.79554863  1
  Se  Se189  1  0.24894989  0.57832788  0.30587158  1
  Se  Se190  1  0.25279570  0.58368500  0.80194888  1
  Se  Se191  1  0.25593618  0.91770842  0.30349956  1
  Se  Se192  1  0.25139821  0.91353705  0.81743225  1
  Se  Se193  1  0.57694171  0.24618153  0.30596132  1
  Se  Se194  1  0.58446727  0.23594182  0.80111907  1
  Se  Se195  1  0.58866418  0.59409135  0.29906286  1
  Se  Se196  1  0.58187319  0.58205799  0.80221042  1
  Se  Se197  1  0.58615630  0.91944697  0.30660136  1
  Se  Se198  1  0.57734415  0.91356418  0.80592490  1
  Se  Se199  1  0.90662314  0.24761400  0.31580143  1
  Se  Se200  1  0.92130013  0.25352408  0.80253629  1
  Se  Se201  1  0.91016936  0.56911471  0.31031697  1
  Se  Se202  1  0.90729184  0.57777237  0.80955142  1
  Se  Se203  1  0.91780907  0.91467829  0.29738140  1
  Se  Se204  1  0.90626818  0.90749757  0.80352487  1
  Se  Se205  1  0.07794913  0.07890234  0.30317978  1
  Se  Se206  1  0.09620225  0.09602202  0.80733504  1
  Se  Se207  1  0.08746447  0.41775192  0.30847780  1
  Se  Se208  1  0.08294825  0.41731278  0.79770986  1
  Se  Se209  1  0.09223784  0.75498431  0.30978635  1
  Se  Se210  1  0.08644160  0.75403839  0.81709752  1
  Se  Se211  1  0.41455410  0.08005861  0.31059082  1
  Se  Se212  1  0.42802286  0.08887771  0.80652677  1
  Se  Se213  1  0.42698072  0.42754089  0.30635626  1
  Se  Se214  1  0.41616829  0.41642506  0.79772400  1
  Se  Se215  1  0.42503896  0.75447738  0.31535174  1
  Se  Se216  1  0.41523743  0.74639355  0.80212846  1
  Se  Se217  1  0.74650876  0.08018515  0.29929356  1
  Se  Se218  1  0.75636138  0.09173174  0.81334281  1
  Se  Se219  1  0.72577744  0.40357539  0.29633404  1
  Se  Se220  1  0.74492831  0.41806358  0.80252286  1
  Se  Se221  1  0.75009405  0.75071618  0.30606330  1
  Se  Se222  1  0.74037411  0.74853120  0.79936783  1
  Se  Se223  1  0.25822289  0.07967595  0.20359830  1
  Se  Se224  1  0.24617743  0.09064193  0.68382436  1
  Se  Se225  1  0.25030474  0.41844295  0.18987160  1
  Se  Se226  1  0.25410980  0.41663948  0.69332325  1
  Se  Se227  1  0.24288951  0.75502464  0.19017802  1
  Se  Se228  1  0.25678902  0.74748185  0.70470388  1
  Se  Se229  1  0.58259335  0.08590313  0.19907035  1
  Se  Se230  1  0.57195436  0.08503714  0.68725162  1
  Se  Se231  1  0.59874807  0.39630654  0.20946847  1
  Se  Se232  1  0.58183359  0.41701078  0.69247928  1
  Se  Se233  1  0.57971911  0.75120429  0.19521477  1
  Se  Se234  1  0.58407059  0.74715607  0.69609252  1
  Se  Se235  1  0.92056620  0.08167844  0.19976706  1
  Se  Se236  1  0.90643931  0.09196557  0.68981804  1
  Se  Se237  1  0.90568143  0.42578863  0.19239232  1
  Se  Se238  1  0.91560238  0.41500006  0.69934254  1
  Se  Se239  1  0.90609598  0.75182747  0.18576436  1
  Se  Se240  1  0.91136683  0.75199593  0.68563583  1
  Se  Se241  1  0.09497607  0.24077149  0.19329870  1
  Se  Se242  1  0.07884559  0.25457113  0.69478341  1
  Se  Se243  1  0.08645836  0.57895914  0.19139723  1
  Se  Se244  1  0.08878160  0.57901185  0.68750608  1
  Se  Se245  1  0.08000095  0.91921616  0.19926928  1
  Se  Se246  1  0.09501476  0.90698630  0.69806445  1
  Se  Se247  1  0.42325684  0.24597055  0.18823048  1
  Se  Se248  1  0.41804380  0.24858711  0.69319725  1
  Se  Se249  1  0.42818932  0.57102651  0.19411784  1
  Se  Se250  1  0.41393892  0.58702237  0.69332101  1
  Se  Se251  1  0.41464535  0.91518015  0.20029394  1
  Se  Se252  1  0.42366125  0.91430542  0.68818660  1
  Se  Se253  1  0.75395788  0.24483683  0.19524691  1
  Se  Se254  1  0.74173086  0.25218021  0.69971993  1
  Se  Se255  1  0.75131709  0.58617112  0.21216514  1
  Se  Se256  1  0.74423312  0.58451663  0.69555676  1
  Se  Se257  1  0.74357966  0.91400100  0.19504173  1
  Se  Se258  1  0.75419081  0.91332313  0.68386254  1
