# generated using pymatgen
data_In86Cu29Se144
_symmetry_space_group_name_H-M   'P 1'
_cell_length_a   17.58369902
_cell_length_b   17.57776284
_cell_length_c   23.43959075
_cell_angle_alpha   89.97971999
_cell_angle_beta   89.97138247
_cell_angle_gamma   90.02319791
_symmetry_Int_Tables_number   1
_chemical_formula_structural   In86Cu29Se144
_chemical_formula_sum   'In86 Cu29 Se144'
_cell_volume   7244.75577427
_cell_formula_units_Z   1
loop_
 _symmetry_equiv_pos_site_id
 _symmetry_equiv_pos_as_xyz
  1  'x, y, z'
loop_
 _atom_site_type_symbol
 _atom_site_label
 _atom_site_symmetry_multiplicity
 _atom_site_fract_x
 _atom_site_fract_y
 _atom_site_fract_z
 _atom_site_occupancy
  In  In0  1  -0.01109486  0.18420877  0.13667517  1
  In  In1  1  0.00502851  0.15335915  0.62651625  1
  In  In2  1  0.00942261  0.48426987  0.12719342  1
  In  In3  1  -0.00091721  0.49883611  0.61564207  1
  In  In4  1  0.01684038  0.83890455  0.13024404  1
  In  In5  1  0.00192524  0.85015558  0.62081262  1
  In  In6  1  0.33795518  0.18093227  0.13299385  1
  In  In7  1  0.32889790  0.16370748  0.61317086  1
  In  In8  1  0.32492791  0.48938209  0.12040026  1
  In  In9  1  0.34432055  0.49745521  0.61087829  1
  In  In10  1  0.32602136  0.84411398  0.12375481  1
  In  In11  1  0.33860886  0.82250663  0.63047709  1
  In  In12  1  0.67076982  0.15981091  0.13937147  1
  In  In13  1  0.66293355  0.18150297  0.62560851  1
  In  In14  1  0.66039031  0.50781008  0.13392558  1
  In  In15  1  0.66343913  0.50022374  0.61964444  1
  In  In16  1  0.66943884  0.83261665  0.13404848  1
  In  In17  1  0.65187810  0.82016922  0.61527494  1
  In  In18  1  0.17595469  0.01490566  0.36714486  1
  In  In19  1  0.15611326  0.00015666  0.86797165  1
  In  In20  1  0.16695680  0.33229389  0.37198832  1
  In  In21  1  0.17821409  0.33457199  0.87787388  1
  In  In22  1  0.15540777  0.65629789  0.37333748  1
  In  In23  1  0.17852162  0.66035621  0.87951675  1
  In  In24  1  0.50485429  -0.00695233  0.38744698  1
  In  In25  1  0.48766940  0.01962006  0.86698456  1
  In  In26  1  0.50157477  0.33215542  0.37751064  1
  In  In27  1  0.51304774  0.32987325  0.87463269  1
  In  In28  1  0.50779953  0.65512721  0.38389118  1
  In  In29  1  0.48872801  0.65806731  0.86603220  1
  In  In30  1  0.83246443  -0.00079224  0.37588985  1
  In  In31  1  0.84503274  -0.00246517  0.87457212  1
  In  In32  1  0.84060449  0.33869027  0.37148258  1
  In  In33  1  0.82033269  0.33880905  0.87759684  1
  In  In34  1  0.82690910  0.67551704  0.38026658  1
  In  In35  1  0.82631011  0.67399421  0.87081797  1
  In  In36  1  0.02506961  0.17818006  0.35241953  1
  In  In37  1  0.00432706  0.15171829  0.87631640  1
  In  In38  1  0.01142214  0.48709417  0.38328143  1
  In  In39  1  0.00420284  0.50612979  0.87848920  1
  In  In40  1  -0.00748426  0.82901526  0.37264286  1
  In  In41  1  0.00042749  0.85117709  0.87158818  1
  In  In42  1  0.32354883  0.18449390  0.39057474  1
  In  In43  1  0.34037464  0.16383360  0.86154722  1
  In  In44  1  0.34704964  0.47736529  0.39213818  1
  In  In45  1  0.33478074  0.50327150  0.87760064  1
  In  In46  1  0.33854985  0.84246448  0.37893408  1
  In  In47  1  0.32630316  0.82955510  0.86816210  1
  In  In48  1  0.65326933  0.15886920  0.36677236  1
  In  In49  1  0.66065600  0.18196314  0.87749362  1
  In  In50  1  0.66721579  0.50070785  0.37362468  1
  In  In51  1  0.65240147  0.49193210  0.86999379  1
  In  In52  1  0.66820610  0.83454289  0.37733596  1
  In  In53  1  0.67743287  0.82927232  0.86948358  1
  In  In54  1  0.16527902  -0.00878883  0.12729977  1
  In  In55  1  0.16584445  0.01381694  0.63119397  1
  In  In56  1  0.15173254  0.34447494  0.14284193  1
  In  In57  1  0.17371994  0.32901920  0.61055424  1
  In  In58  1  0.17215460  0.66809491  0.11877708  1
  In  In59  1  0.18006169  0.66549564  0.62755687  1
  In  In60  1  0.50316454  0.01834453  0.13227283  1
  In  In61  1  0.49182130  -0.00491512  0.61768757  1
  In  In62  1  0.49256479  0.33739348  0.13985054  1
  In  In63  1  0.50428018  0.34309409  0.61010674  1
  In  In64  1  0.51428058  0.66311668  0.12782248  1
  In  In65  1  0.49918556  0.66388597  0.62318717  1
  In  In66  1  0.82669752  0.00961574  0.13194592  1
  In  In67  1  0.84696092  0.00019916  0.62244862  1
  In  In68  1  0.84569524  0.32179233  0.13427186  1
  In  In69  1  0.81521405  0.33167657  0.62323080  1
  In  In70  1  0.82773503  0.65679826  0.12838167  1
  In  In71  1  0.82134912  0.65548579  0.61641051  1
  In  In72  1  0.16164113  0.17171892  0.00310805  1
  In  In73  1  -0.00442462  0.66719573  0.24989413  1
  In  In74  1  0.33480710  0.32985277  0.74148141  1
  In  In75  1  -0.00389660  0.67051141  0.75404708  1
  In  In76  1  0.83680123  0.16603704  0.49650028  1
  In  In77  1  0.34104717  0.00934194  0.25528306  1
  In  In78  1  -0.00022861  0.32554415  0.74522283  1
  In  In79  1  0.49823295  0.83039390  -0.00048076  1
  In  In80  1  0.16847423  0.83169783  0.50065965  1
  In  In81  1  0.83732999  0.83210289  -0.00270262  1
  In  In82  1  0.84025116  0.49506575  0.00555176  1
  In  In83  1  0.49986098  0.17483773  0.00548360  1
  In  In84  1  0.66526889  -0.00354279  0.74565225  1
  In  In85  1  0.33244198  0.66609132  0.24743917  1
  Cu  Cu86  1  0.49957025  0.49953132  0.74074028  1
  Cu  Cu87  1  0.32397381  -0.00048521  -0.00267122  1
  Cu  Cu88  1  0.50793005  0.83337561  0.25600508  1
  Cu  Cu89  1  0.50207307  0.83073790  0.74482785  1
  Cu  Cu90  1  0.66698127  0.33859740  0.49487880  1
  Cu  Cu91  1  0.00072603  0.00194807  -0.00046583  1
  Cu  Cu92  1  0.33456690  0.00081105  0.49964725  1
  Cu  Cu93  1  0.66382933  0.66569132  0.49808027  1
  Cu  Cu94  1  0.33495596  0.34197149  0.00263733  1
  Cu  Cu95  1  0.66810644  0.00784305  0.01017252  1
  Cu  Cu96  1  0.17382403  0.49190915  0.25450829  1
  Cu  Cu97  1  0.82686847  0.83713447  0.25426002  1
  Cu  Cu98  1  -0.00714485  0.66688981  0.49767414  1
  Cu  Cu99  1  0.83072857  0.50181696  0.25356909  1
  Cu  Cu100  1  0.66741546  0.00002946  0.49773016  1
  Cu  Cu101  1  0.83158646  0.16775948  0.25672811  1
  Cu  Cu102  1  0.01413999  0.66776487  0.00021183  1
  Cu  Cu103  1  0.00319775  0.00311757  0.49613739  1
  Cu  Cu104  1  0.66215146  0.65643408  -0.00154340  1
  Cu  Cu105  1  0.66990089  0.33588296  0.00320149  1
  Cu  Cu106  1  0.81718644  0.49349060  0.74710122  1
  Cu  Cu107  1  0.16914615  0.84029709  0.74607344  1
  Cu  Cu108  1  0.83028331  0.82750201  0.74567908  1
  Cu  Cu109  1  0.17281048  0.50336880  0.75202286  1
  Cu  Cu110  1  0.33479584  0.66449709  0.50428557  1
  Cu  Cu111  1  0.49879744  0.49767318  0.25980092  1
  Cu  Cu112  1  0.82984509  0.16589418  0.74768814  1
  Cu  Cu113  1  -0.00059300  0.32863110  0.49421996  1
  Cu  Cu114  1  0.33684289  0.66301969  -0.00416639  1
  Se  Se115  1  0.07472641  0.08160184  0.06444536  1
  Se  Se116  1  0.08715306  0.08284517  0.55144594  1
  Se  Se117  1  0.09360026  0.41297889  0.05624769  1
  Se  Se118  1  0.08093332  0.41262109  0.55083538  1
  Se  Se119  1  0.08778308  0.75648906  0.05526616  1
  Se  Se120  1  0.07649476  0.74154947  0.56168638  1
  Se  Se121  1  0.40392211  0.07887907  0.05840813  1
  Se  Se122  1  0.42193298  0.08607608  0.54717462  1
  Se  Se123  1  0.42421231  0.41431221  0.05901873  1
  Se  Se124  1  0.40180934  0.39797871  0.54070287  1
  Se  Se125  1  0.40970338  0.74176994  0.06341546  1
  Se  Se126  1  0.41783534  0.75081063  0.55418780  1
  Se  Se127  1  0.75065212  0.09277203  0.05929344  1
  Se  Se128  1  0.74519503  0.08021731  0.56103196  1
  Se  Se129  1  0.74699838  0.41341375  0.06788985  1
  Se  Se130  1  0.75063408  0.41967901  0.54980895  1
  Se  Se131  1  0.74182552  0.74122706  0.05575909  1
  Se  Se132  1  0.74957725  0.75040166  0.55012511  1
  Se  Se133  1  0.25487660  0.26056083  0.06121609  1
  Se  Se134  1  0.25166557  0.24666269  0.54211671  1
  Se  Se135  1  0.25274515  0.58198819  0.05275033  1
  Se  Se136  1  0.24690982  0.58138412  0.55302519  1
  Se  Se137  1  0.24273851  0.91562940  0.05027099  1
  Se  Se138  1  0.25518644  0.92001276  0.56311873  1
  Se  Se139  1  0.59147941  0.25764362  0.06727426  1
  Se  Se140  1  0.58703223  0.25044793  0.54696117  1
  Se  Se141  1  0.58093163  0.57579731  0.05381016  1
  Se  Se142  1  0.57910449  0.58205904  0.55125983  1
  Se  Se143  1  0.58528891  0.92275452  0.06269796  1
  Se  Se144  1  0.58181694  0.91693830  0.55065040  1
  Se  Se145  1  0.92369196  0.25696224  0.05526996  1
  Se  Se146  1  0.92286141  0.25484872  0.56334117  1
  Se  Se147  1  0.93129735  0.59214097  0.06172489  1
  Se  Se148  1  0.91219970  0.57935031  0.54990114  1
  Se  Se149  1  0.92050792  0.92129666  0.06176603  1
  Se  Se150  1  0.91729348  0.91916275  0.54578874  1
  Se  Se151  1  0.08195361  0.24611447  0.44078457  1
  Se  Se152  1  0.07503773  0.25860101  0.93803676  1
  Se  Se153  1  0.08156828  0.58333330  0.45086648  1
  Se  Se154  1  0.09162292  0.57983401  0.94714493  1
  Se  Se155  1  0.08392870  0.92051976  0.43645739  1
  Se  Se156  1  0.08469442  0.92009807  0.94605275  1
  Se  Se157  1  0.40775524  0.27289844  0.45403876  1
  Se  Se158  1  0.40615521  0.25621658  0.93974812  1
  Se  Se159  1  0.41826880  0.58016255  0.45155393  1
  Se  Se160  1  0.42383956  0.58028556  0.94677615  1
  Se  Se161  1  0.41856849  0.91033741  0.45520860  1
  Se  Se162  1  0.41302723  0.92627586  0.93939190  1
  Se  Se163  1  0.74550651  0.25264878  0.43635358  1
  Se  Se164  1  0.74950199  0.25032689  0.94978230  1
  Se  Se165  1  0.74911328  0.58360419  0.44487391  1
  Se  Se166  1  0.74953864  0.58174327  0.93999221  1
  Se  Se167  1  0.75267505  0.91733954  0.44691481  1
  Se  Se168  1  0.74059185  0.92640692  0.94421099  1
  Se  Se169  1  0.24679690  0.08200458  0.44934003  1
  Se  Se170  1  0.25276222  0.08668260  0.93736056  1
  Se  Se171  1  0.22211871  0.43704991  0.43912436  1
  Se  Se172  1  0.25095730  0.42201152  0.94715862  1
  Se  Se173  1  0.25526103  0.73915435  0.43847543  1
  Se  Se174  1  0.25493829  0.75185643  0.94638708  1
  Se  Se175  1  0.58472574  0.08813916  0.44978408  1
  Se  Se176  1  0.58490028  0.07798891  0.94443481  1
  Se  Se177  1  0.58191949  0.42281506  0.44414035  1
  Se  Se178  1  0.58291076  0.41445820  0.94927368  1
  Se  Se179  1  0.58223569  0.75281304  0.44613460  1
  Se  Se180  1  0.58980116  0.74334489  0.93770456  1
  Se  Se181  1  0.93120813  0.08787102  0.43330482  1
  Se  Se182  1  0.91380401  0.08327153  0.94842299  1
  Se  Se183  1  0.91345874  0.41623234  0.44900782  1
  Se  Se184  1  0.92643447  0.40775719  0.94132948  1
  Se  Se185  1  0.91371191  0.75606785  0.44842223  1
  Se  Se186  1  0.93017885  0.74099257  0.93779285  1
  Se  Se187  1  0.24190705  0.23705841  0.30789911  1
  Se  Se188  1  0.23872550  0.24391685  0.80187460  1
  Se  Se189  1  0.25271419  0.57434310  0.31313817  1
  Se  Se190  1  0.25704529  0.58480177  0.80427510  1
  Se  Se191  1  0.24871424  0.90842866  0.30509884  1
  Se  Se192  1  0.24989876  0.92237115  0.80369184  1
  Se  Se193  1  0.58852828  0.26100081  0.30520638  1
  Se  Se194  1  0.57001134  0.23637920  0.80272324  1
  Se  Se195  1  0.58387323  0.58658222  0.30451131  1
  Se  Se196  1  0.58050478  0.58142881  0.80012189  1
  Se  Se197  1  0.58433989  0.92113795  0.31011498  1
  Se  Se198  1  0.57396066  0.91096171  0.81217799  1
  Se  Se199  1  0.91939793  0.25528816  0.30073011  1
  Se  Se200  1  0.90810852  0.24510509  0.81146250  1
  Se  Se201  1  0.91498944  0.57771548  0.31586115  1
  Se  Se202  1  0.90269136  0.57061717  0.80671283  1
  Se  Se203  1  0.91437288  0.91617424  0.30544469  1
  Se  Se204  1  0.91164831  0.91472554  0.79734124  1
  Se  Se205  1  0.07246501  0.05968130  0.29697581  1
  Se  Se206  1  0.08002406  0.08563870  0.79839721  1
  Se  Se207  1  0.07901416  0.41421437  0.30190934  1
  Se  Se208  1  0.08860081  0.42104789  0.80645352  1
  Se  Se209  1  0.09229483  0.75725630  0.30462861  1
  Se  Se210  1  0.09172681  0.75856846  0.81045506  1
  Se  Se211  1  0.41766858  0.09022760  0.32798653  1
  Se  Se212  1  0.40976727  0.08170700  0.78781719  1
  Se  Se213  1  0.41275713  0.41178691  0.30703292  1
  Se  Se214  1  0.42301790  0.41892829  0.80579486  1
  Se  Se215  1  0.42275263  0.75283582  0.31150378  1
  Se  Se216  1  0.41540326  0.75172098  0.80126529  1
  Se  Se217  1  0.74965364  0.08041549  0.30640678  1
  Se  Se218  1  0.75137276  0.08550104  0.81114263  1
  Se  Se219  1  0.74907956  0.41571994  0.30518564  1
  Se  Se220  1  0.73847581  0.40948261  0.80285964  1
  Se  Se221  1  0.74673161  0.74945589  0.30526015  1
  Se  Se222  1  0.74480928  0.74350933  0.79488999  1
  Se  Se223  1  0.24702384  0.08841274  0.19062789  1
  Se  Se224  1  0.26544527  0.08239840  0.69273851  1
  Se  Se225  1  0.26022920  0.41092751  0.20089333  1
  Se  Se226  1  0.24363667  0.42398754  0.68544596  1
  Se  Se227  1  0.24062137  0.76096252  0.19391265  1
  Se  Se228  1  0.25055644  0.74802211  0.70145486  1
  Se  Se229  1  0.58305317  0.08353280  0.20791994  1
  Se  Se230  1  0.57775419  0.08568806  0.68629372  1
  Se  Se231  1  0.58407015  0.41930814  0.20230670  1
  Se  Se232  1  0.58179702  0.41469016  0.68855176  1
  Se  Se233  1  0.58619532  0.74773415  0.20028447  1
  Se  Se234  1  0.58358420  0.74402644  0.69491230  1
  Se  Se235  1  0.91429322  0.08664326  0.19947639  1
  Se  Se236  1  0.91601021  0.08283100  0.69832145  1
  Se  Se237  1  0.91609376  0.42242464  0.19853313  1
  Se  Se238  1  0.90828041  0.42152445  0.68977112  1
  Se  Se239  1  0.90620014  0.76076506  0.18848566  1
  Se  Se240  1  0.91385752  0.75285593  0.68346161  1
  Se  Se241  1  0.09204597  0.23951091  0.20365265  1
  Se  Se242  1  0.09693438  0.24372209  0.68747260  1
  Se  Se243  1  0.09582576  0.57854515  0.19468234  1
  Se  Se244  1  0.08408907  0.57784147  0.69334425  1
  Se  Se245  1  0.07845059  0.92800230  0.20354925  1
  Se  Se246  1  0.08302223  0.92171568  0.69481676  1
  Se  Se247  1  0.44169676  0.22586418  0.20134120  1
  Se  Se248  1  0.42457986  0.24853921  0.67843304  1
  Se  Se249  1  0.42299367  0.57347304  0.19098384  1
  Se  Se250  1  0.41153996  0.57903478  0.68897570  1
  Se  Se251  1  0.42681039  0.91022068  0.19313334  1
  Se  Se252  1  0.41881486  0.91488726  0.69375571  1
  Se  Se253  1  0.75066751  0.25332382  0.20189748  1
  Se  Se254  1  0.74557587  0.25255108  0.70076510  1
  Se  Se255  1  0.74695602  0.58785905  0.20349431  1
  Se  Se256  1  0.74304341  0.58303245  0.69283055  1
  Se  Se257  1  0.74587213  0.92240747  0.19904576  1
  Se  Se258  1  0.75303282  0.90811804  0.68260808  1
