# generated using pymatgen
data_In86Cu29Se144
_symmetry_space_group_name_H-M   'P 1'
_cell_length_a   17.57799930
_cell_length_b   17.57980816
_cell_length_c   23.44507926
_cell_angle_alpha   90.00813852
_cell_angle_beta   89.99922003
_cell_angle_gamma   89.98421190
_symmetry_Int_Tables_number   1
_chemical_formula_structural   In86Cu29Se144
_chemical_formula_sum   'In86 Cu29 Se144'
_cell_volume   7244.94776611
_cell_formula_units_Z   1
loop_
 _symmetry_equiv_pos_site_id
 _symmetry_equiv_pos_as_xyz
  1  'x, y, z'
loop_
 _atom_site_type_symbol
 _atom_site_label
 _atom_site_symmetry_multiplicity
 _atom_site_fract_x
 _atom_site_fract_y
 _atom_site_fract_z
 _atom_site_occupancy
  In  In0  1  0.01790977  0.17216199  0.12295302  1
  In  In1  1  0.00792939  0.15205713  0.63643620  1
  In  In2  1  0.00856855  0.49300589  0.14075994  1
  In  In3  1  -0.00318716  0.50110385  0.61441874  1
  In  In4  1  -0.00706422  0.82876095  0.13170687  1
  In  In5  1  0.00201040  0.84503284  0.61941908  1
  In  In6  1  0.33299254  0.16505264  0.12363278  1
  In  In7  1  0.31977074  0.16585544  0.62418663  1
  In  In8  1  0.33939073  0.49358260  0.13159981  1
  In  In9  1  0.34131856  0.50721974  0.61301026  1
  In  In10  1  0.33252494  0.83488424  0.13603191  1
  In  In11  1  0.33836911  0.82746192  0.62658034  1
  In  In12  1  0.65046888  0.16418064  0.12259031  1
  In  In13  1  0.65851469  0.15697210  0.63259894  1
  In  In14  1  0.65662011  0.51217734  0.13112283  1
  In  In15  1  0.67283752  0.51446441  0.61884098  1
  In  In16  1  0.66131613  0.83369142  0.13541736  1
  In  In17  1  0.66189241  0.83242541  0.62326203  1
  In  In18  1  0.19309536  -0.00021622  0.38409543  1
  In  In19  1  0.18119468  0.01378859  0.86488735  1
  In  In20  1  0.16914858  0.33352212  0.37722242  1
  In  In21  1  0.16275085  0.32904953  0.87347849  1
  In  In22  1  0.15574643  0.65696144  0.37297348  1
  In  In23  1  0.17818606  0.65070046  0.86799264  1
  In  In24  1  0.48905559  -0.01377085  0.36985276  1
  In  In25  1  0.50151030  0.00067102  0.87559163  1
  In  In26  1  0.49704281  0.34922487  0.37426957  1
  In  In27  1  0.48647421  0.33693968  0.88976898  1
  In  In28  1  0.50255452  0.66586819  0.37280030  1
  In  In29  1  0.49731244  0.65953167  0.86553381  1
  In  In30  1  0.81959170  -0.00350838  0.37577019  1
  In  In31  1  0.82421252  0.00513252  0.86054871  1
  In  In32  1  0.84932360  0.33316086  0.37410439  1
  In  In33  1  0.84566334  0.32150701  0.86843219  1
  In  In34  1  0.83263395  0.66832051  0.38410229  1
  In  In35  1  0.83133505  0.67622963  0.86868337  1
  In  In36  1  0.00766339  0.18079285  0.37197041  1
  In  In37  1  0.00821928  0.18134345  0.86107345  1
  In  In38  1  0.00255308  0.50317511  0.38680942  1
  In  In39  1  0.01815920  0.48165532  0.86696568  1
  In  In40  1  -0.00057271  0.81611991  0.38447614  1
  In  In41  1  -0.01370642  0.83494805  0.86948660  1
  In  In42  1  0.32132119  0.15415943  0.36941878  1
  In  In43  1  0.34959652  0.14841667  0.89858234  1
  In  In44  1  0.33181675  0.50157016  0.37275978  1
  In  In45  1  0.33026605  0.50805304  0.87180526  1
  In  In46  1  0.34868190  0.84297130  0.37088536  1
  In  In47  1  0.33862245  0.83371355  0.86463236  1
  In  In48  1  0.67237943  0.15637675  0.37021741  1
  In  In49  1  0.65047214  0.15011956  0.87752157  1
  In  In50  1  0.65359191  0.51273424  0.38215510  1
  In  In51  1  0.65313957  0.49574175  0.86973457  1
  In  In52  1  0.66589932  0.82968624  0.37831023  1
  In  In53  1  0.66844443  0.83641582  0.86577127  1
  In  In54  1  0.17438834  0.01789659  0.11946124  1
  In  In55  1  0.16118304  0.00213505  0.62979993  1
  In  In56  1  0.17882972  0.32129179  0.13757375  1
  In  In57  1  0.16028193  0.32812379  0.61831766  1
  In  In58  1  0.17332483  0.65853765  0.14243744  1
  In  In59  1  0.17849382  0.66622814  0.61971801  1
  In  In60  1  0.49583338  0.00494046  0.12936887  1
  In  In61  1  0.50704042  -0.00793741  0.63330088  1
  In  In62  1  0.47193433  0.31558729  0.10551851  1
  In  In63  1  0.49016076  0.33859391  0.62242287  1
  In  In64  1  0.50153538  0.66188980  0.13122467  1
  In  In65  1  0.49751090  0.67050356  0.62078861  1
  In  In66  1  0.82863855  -0.01064885  0.12527301  1
  In  In67  1  0.84030022  -0.00764998  0.62915943  1
  In  In68  1  0.83663428  0.34534917  0.13209798  1
  In  In69  1  0.83903945  0.34810114  0.62360021  1
  In  In70  1  0.83006229  0.66751038  0.13921544  1
  In  In71  1  0.82786698  0.65671557  0.61098673  1
  In  In72  1  0.00189495  0.66819914  0.73890341  1
  In  In73  1  0.83617310  0.16876283  0.49993320  1
  In  In74  1  0.66269695  0.33784924  0.24819498  1
  In  In75  1  0.82910371  0.16582470  -0.00672388  1
  In  In76  1  0.82779816  0.83794160  -0.00836190  1
  In  In77  1  0.32713086  0.33278959  0.75259444  1
  In  In78  1  0.49725017  0.16909616  0.50278637  1
  In  In79  1  0.50113955  0.84081757  0.00128830  1
  In  In80  1  0.17523986  0.49027421  0.00097618  1
  In  In81  1  0.00529629  -0.00133419  0.24652388  1
  In  In82  1  0.16798551  0.82998394  0.49941955  1
  In  In83  1  0.16642845  0.83802055  0.00211161  1
  In  In84  1  0.82937764  0.50392102  0.00082960  1
  In  In85  1  0.67283502  0.32916717  0.75333482  1
  Cu  Cu86  1  0.00262366  0.00519968  -0.00811812  1
  Cu  Cu87  1  0.66117303  0.66990566  0.00386385  1
  Cu  Cu88  1  0.82434782  0.83548766  0.74412235  1
  Cu  Cu89  1  0.84083018  0.50572686  0.74127311  1
  Cu  Cu90  1  0.65896860  0.67069970  0.49968427  1
  Cu  Cu91  1  0.49563093  0.16753321  0.24479236  1
  Cu  Cu92  1  0.65922981  0.33830780  -0.00302053  1
  Cu  Cu93  1  0.00519421  0.33475638  0.49836423  1
  Cu  Cu94  1  0.17103617  0.16196444  0.75113917  1
  Cu  Cu95  1  0.17103010  0.83474444  0.25916033  1
  Cu  Cu96  1  0.67107611  0.34304665  0.50070010  1
  Cu  Cu97  1  0.50418262  0.50775027  0.74268352  1
  Cu  Cu98  1  0.15979611  0.50120740  0.26056687  1
  Cu  Cu99  1  0.17021800  0.16930155  0.25017579  1
  Cu  Cu100  1  0.00611912  0.65731135  0.00850736  1
  Cu  Cu101  1  0.33258613  0.33836896  0.49811224  1
  Cu  Cu102  1  0.83638016  0.50305447  0.25990726  1
  Cu  Cu103  1  0.83348171  0.16163774  0.25140210  1
  Cu  Cu104  1  0.16358721  0.83298054  0.74329670  1
  Cu  Cu105  1  0.33642403  0.66622595  0.49392519  1
  Cu  Cu106  1  0.50907510  0.82820262  0.25295855  1
  Cu  Cu107  1  0.49586649  0.16066824  0.75723740  1
  Cu  Cu108  1  0.00053855  0.00549128  0.50411130  1
  Cu  Cu109  1  0.83304049  0.82699014  0.25816595  1
  Cu  Cu110  1  0.00507957  0.32741684  -0.00140920  1
  Cu  Cu111  1  0.49312230  0.49965908  0.24967925  1
  Cu  Cu112  1  0.49708338  0.82810990  0.74747093  1
  Cu  Cu113  1  0.33859886  0.66649863  -0.00375744  1
  Cu  Cu114  1  0.66141243  -0.00780348  0.50162893  1
  Se  Se115  1  0.08342932  0.08596661  0.04814816  1
  Se  Se116  1  0.08562962  0.08581936  0.55604401  1
  Se  Se117  1  0.07888316  0.40851712  0.06259713  1
  Se  Se118  1  0.08838903  0.41999356  0.54985692  1
  Se  Se119  1  0.08342326  0.74113555  0.06538568  1
  Se  Se120  1  0.07512638  0.74198123  0.55773035  1
  Se  Se121  1  0.42264388  0.08580706  0.05735641  1
  Se  Se122  1  0.41527300  0.07854013  0.56565749  1
  Se  Se123  1  0.41479087  0.42946580  0.05145181  1
  Se  Se124  1  0.42296837  0.41940657  0.54601265  1
  Se  Se125  1  0.41129433  0.74728988  0.06024725  1
  Se  Se126  1  0.41448309  0.75174501  0.54996254  1
  Se  Se127  1  0.74469731  0.07716626  0.05794773  1
  Se  Se128  1  0.74204834  0.07887432  0.55709969  1
  Se  Se129  1  0.73921570  0.41277417  0.06050951  1
  Se  Se130  1  0.75466331  0.42457138  0.55386978  1
  Se  Se131  1  0.74762587  0.74601832  0.06043178  1
  Se  Se132  1  0.74501817  0.75203418  0.55258269  1
  Se  Se133  1  0.24255737  0.24649619  0.05872505  1
  Se  Se134  1  0.25185074  0.25176464  0.55056434  1
  Se  Se135  1  0.25438755  0.59261583  0.05937506  1
  Se  Se136  1  0.25062960  0.58374185  0.54507706  1
  Se  Se137  1  0.26258548  0.92297769  0.05895909  1
  Se  Se138  1  0.25225573  0.92045859  0.56139435  1
  Se  Se139  1  0.58183457  0.24978188  0.04960202  1
  Se  Se140  1  0.59467442  0.25908094  0.56105059  1
  Se  Se141  1  0.57840006  0.58503350  0.05448217  1
  Se  Se142  1  0.57752958  0.58300970  0.55183619  1
  Se  Se143  1  0.59527363  0.92389869  0.06118948  1
  Se  Se144  1  0.57460126  0.91305994  0.55424931  1
  Se  Se145  1  0.91621878  0.25620516  0.05910603  1
  Se  Se146  1  0.92740838  0.25360160  0.56142759  1
  Se  Se147  1  0.92133450  0.58361698  0.06758645  1
  Se  Se148  1  0.92115642  0.58663684  0.54521850  1
  Se  Se149  1  0.92800504  0.92182554  0.05325133  1
  Se  Se150  1  0.91350916  0.91965445  0.54951898  1
  Se  Se151  1  0.08839920  0.24788023  0.44847648  1
  Se  Se152  1  0.08477213  0.24443502  0.94381723  1
  Se  Se153  1  0.08607623  0.58776207  0.45337636  1
  Se  Se154  1  0.08011549  0.58226192  0.94202334  1
  Se  Se155  1  0.07920292  0.92641272  0.43939011  1
  Se  Se156  1  0.07785039  0.91852339  0.93386226  1
  Se  Se157  1  0.41167038  0.25582954  0.43751560  1
  Se  Se158  1  0.41292947  0.25231807  0.95889699  1
  Se  Se159  1  0.41952133  0.58105506  0.44105456  1
  Se  Se160  1  0.41873445  0.58377599  0.94106569  1
  Se  Se161  1  0.40988630  0.92541903  0.44960474  1
  Se  Se162  1  0.40282308  0.92058245  0.94255498  1
  Se  Se163  1  0.74250694  0.25760680  0.43861177  1
  Se  Se164  1  0.73983810  0.26144398  0.93539788  1
  Se  Se165  1  0.74500046  0.58399774  0.45029418  1
  Se  Se166  1  0.74176259  0.59407747  0.93925402  1
  Se  Se167  1  0.74950692  0.91294817  0.44901387  1
  Se  Se168  1  0.73732974  0.93221781  0.93869704  1
  Se  Se169  1  0.25376838  0.09205901  0.45529134  1
  Se  Se170  1  0.24059148  0.07838094  0.95166262  1
  Se  Se171  1  0.24900562  0.42161122  0.44453194  1
  Se  Se172  1  0.26341764  0.40422711  0.93862240  1
  Se  Se173  1  0.25675336  0.74748056  0.43332891  1
  Se  Se174  1  0.25329543  0.74377835  0.93929105  1
  Se  Se175  1  0.58651969  0.07807715  0.44154375  1
  Se  Se176  1  0.56802671  0.08462895  0.95230013  1
  Se  Se177  1  0.58035590  0.41877012  0.44898698  1
  Se  Se178  1  0.57764579  0.42636523  0.94756561  1
  Se  Se179  1  0.57541287  0.75294329  0.44565401  1
  Se  Se180  1  0.58687334  0.74844554  0.93843072  1
  Se  Se181  1  0.92354694  0.07989850  0.43567028  1
  Se  Se182  1  0.92110252  0.08113024  0.93121359  1
  Se  Se183  1  0.91393591  0.41530114  0.45085795  1
  Se  Se184  1  0.92432428  0.41205456  0.94271951  1
  Se  Se185  1  0.90567813  0.75755209  0.45456900  1
  Se  Se186  1  0.92644823  0.73711080  0.94682884  1
  Se  Se187  1  0.25210525  0.25315177  0.30515692  1
  Se  Se188  1  0.25449792  0.23329099  0.81553014  1
  Se  Se189  1  0.24946623  0.58691136  0.30457763  1
  Se  Se190  1  0.24979048  0.57173936  0.79436885  1
  Se  Se191  1  0.25726146  0.92229182  0.30370516  1
  Se  Se192  1  0.24775455  0.91305113  0.80056843  1
  Se  Se193  1  0.57558897  0.24414397  0.31008828  1
  Se  Se194  1  0.56890430  0.25262949  0.81328183  1
  Se  Se195  1  0.58163529  0.58048736  0.30057872  1
  Se  Se196  1  0.59095636  0.58688089  0.79692663  1
  Se  Se197  1  0.58830391  0.91584558  0.30664500  1
  Se  Se198  1  0.57591026  0.91486674  0.80353615  1
  Se  Se199  1  0.91749740  0.24765798  0.29964952  1
  Se  Se200  1  0.92477139  0.25874055  0.79120017  1
  Se  Se201  1  0.91753354  0.58413181  0.31628741  1
  Se  Se202  1  0.92026302  0.57818689  0.81074490  1
  Se  Se203  1  0.91676255  0.91289549  0.31145630  1
  Se  Se204  1  0.90980960  0.91640055  0.79843834  1
  Se  Se205  1  0.09386114  0.08342371  0.31104612  1
  Se  Se206  1  0.08016482  0.07920918  0.80051125  1
  Se  Se207  1  0.07803552  0.41675635  0.31387820  1
  Se  Se208  1  0.10216888  0.41279365  0.79542591  1
  Se  Se209  1  0.08192924  0.75268897  0.30622017  1
  Se  Se210  1  0.08876641  0.75254705  0.81002925  1
  Se  Se211  1  0.41858196  0.08386014  0.30447376  1
  Se  Se212  1  0.40952634  0.08096075  0.81059108  1
  Se  Se213  1  0.40973102  0.41473239  0.30054900  1
  Se  Se214  1  0.42832569  0.42296258  0.80457141  1
  Se  Se215  1  0.41936273  0.74888268  0.30354337  1
  Se  Se216  1  0.41294311  0.74205152  0.79865548  1
  Se  Se217  1  0.74885210  0.07543290  0.29783378  1
  Se  Se218  1  0.74937821  0.10594507  0.80451554  1
  Se  Se219  1  0.75055134  0.42107495  0.31543540  1
  Se  Se220  1  0.76430500  0.42784186  0.80857361  1
  Se  Se221  1  0.74836470  0.74430021  0.31001708  1
  Se  Se222  1  0.74570054  0.74797364  0.79762857  1
  Se  Se223  1  0.25280083  0.08328075  0.19822320  1
  Se  Se224  1  0.25332149  0.07813904  0.69779215  1
  Se  Se225  1  0.24241312  0.42573772  0.19887915  1
  Se  Se226  1  0.25376244  0.41758007  0.68005746  1
  Se  Se227  1  0.25375766  0.75004051  0.20456773  1
  Se  Se228  1  0.24908272  0.74843985  0.69464649  1
  Se  Se229  1  0.58462301  0.08241209  0.19956485  1
  Se  Se230  1  0.58228792  0.07856732  0.70585910  1
  Se  Se231  1  0.56665272  0.41529403  0.18569956  1
  Se  Se232  1  0.58432616  0.41915477  0.68910664  1
  Se  Se233  1  0.58865245  0.74027935  0.20009549  1
  Se  Se234  1  0.58175176  0.74736990  0.69299084  1
  Se  Se235  1  0.91413574  0.08901466  0.18500102  1
  Se  Se236  1  0.90527189  0.08765258  0.69657568  1
  Se  Se237  1  0.91732881  0.41563903  0.20687918  1
  Se  Se238  1  0.92672145  0.42151873  0.69389247  1
  Se  Se239  1  0.91991140  0.74660685  0.20453066  1
  Se  Se240  1  0.90713434  0.75754957  0.68382741  1
  Se  Se241  1  0.07936074  0.25202286  0.20304525  1
  Se  Se242  1  0.09165399  0.24632467  0.69556555  1
  Se  Se243  1  0.07702296  0.58812201  0.20729261  1
  Se  Se244  1  0.09317200  0.57579962  0.68611572  1
  Se  Se245  1  0.09852497  0.90986358  0.18719443  1
  Se  Se246  1  0.07634235  0.91810894  0.69749996  1
  Se  Se247  1  0.41217723  0.25313795  0.19447024  1
  Se  Se248  1  0.42261665  0.24147725  0.69275167  1
  Se  Se249  1  0.41029144  0.58790449  0.19917144  1
  Se  Se250  1  0.41515079  0.58453070  0.69001978  1
  Se  Se251  1  0.42532396  0.91282876  0.19897746  1
  Se  Se252  1  0.41322957  0.91475257  0.69767712  1
  Se  Se253  1  0.75351396  0.24268891  0.18916602  1
  Se  Se254  1  0.75784126  0.24713206  0.68545841  1
  Se  Se255  1  0.74932082  0.57731962  0.20204884  1
  Se  Se256  1  0.75397840  0.58876782  0.69331606  1
  Se  Se257  1  0.75443409  0.91169646  0.20001452  1
  Se  Se258  1  0.74093310  0.92078621  0.69235415  1
