# generated using pymatgen
data_In86Cu29Se144
_symmetry_space_group_name_H-M   'P 1'
_cell_length_a   17.59354260
_cell_length_b   17.59075846
_cell_length_c   23.44193203
_cell_angle_alpha   90.02016163
_cell_angle_beta   90.00791394
_cell_angle_gamma   89.98442697
_symmetry_Int_Tables_number   1
_chemical_formula_structural   In86Cu29Se144
_chemical_formula_sum   'In86 Cu29 Se144'
_cell_volume   7254.89644214
_cell_formula_units_Z   1
loop_
 _symmetry_equiv_pos_site_id
 _symmetry_equiv_pos_as_xyz
  1  'x, y, z'
loop_
 _atom_site_type_symbol
 _atom_site_label
 _atom_site_symmetry_multiplicity
 _atom_site_fract_x
 _atom_site_fract_y
 _atom_site_fract_z
 _atom_site_occupancy
  In  In0  1  -0.00113075  0.16397433  0.11233825  1
  In  In1  1  -0.00640795  0.17194077  0.63989369  1
  In  In2  1  0.01442083  0.50072283  0.11937928  1
  In  In3  1  -0.01612859  0.51276672  0.64931694  1
  In  In4  1  -0.00131181  0.81956648  0.12463055  1
  In  In5  1  0.00569974  0.82925489  0.62537661  1
  In  In6  1  0.34279316  0.17042431  0.12487069  1
  In  In7  1  0.34438356  0.16764877  0.62222890  1
  In  In8  1  0.32779810  0.49165303  0.11770351  1
  In  In9  1  0.34404450  0.49475743  0.64295599  1
  In  In10  1  0.34492922  0.84844439  0.11533779  1
  In  In11  1  0.32141082  0.83308045  0.62363489  1
  In  In12  1  0.66451934  0.16607069  0.11979376  1
  In  In13  1  0.66211871  0.17888571  0.62860952  1
  In  In14  1  0.64858875  0.49954890  0.11758007  1
  In  In15  1  0.66707998  0.49823612  0.63893293  1
  In  In16  1  0.65380525  0.84805739  0.13005391  1
  In  In17  1  0.66653872  0.82238950  0.62470353  1
  In  In18  1  0.16621757  -0.00958322  0.37257609  1
  In  In19  1  0.15638472  0.00325262  0.88327606  1
  In  In20  1  0.17460436  0.32281651  0.37632341  1
  In  In21  1  0.17435818  0.33112641  0.87530158  1
  In  In22  1  0.16878877  0.68278778  0.38118887  1
  In  In23  1  0.16573911  0.66386932  0.87580780  1
  In  In24  1  0.51933686  0.01289280  0.34955507  1
  In  In25  1  0.49928785  0.01073498  0.89631041  1
  In  In26  1  0.48457888  0.31748458  0.35335293  1
  In  In27  1  0.49229522  0.33257640  0.87525698  1
  In  In28  1  0.48803469  0.66954110  0.37541753  1
  In  In29  1  0.49762658  0.66259841  0.87424255  1
  In  In30  1  0.81739670  0.00033941  0.37464168  1
  In  In31  1  0.83982894  -0.00596830  0.87749080  1
  In  In32  1  0.82515801  0.34403708  0.37386061  1
  In  In33  1  0.82241461  0.33337306  0.86429606  1
  In  In34  1  0.84802497  0.66254846  0.37596396  1
  In  In35  1  0.82682525  0.65606291  0.85637006  1
  In  In36  1  0.00488435  0.16701556  0.37564546  1
  In  In37  1  0.00096689  0.16578259  0.87614437  1
  In  In38  1  -0.00786370  0.50710274  0.37742334  1
  In  In39  1  0.00837388  0.51023969  0.86503661  1
  In  In40  1  0.00865342  0.81997858  0.38740888  1
  In  In41  1  0.00073812  0.83297032  0.87070707  1
  In  In42  1  0.35241862  0.17485319  0.34776433  1
  In  In43  1  0.32900610  0.17061226  0.88310450  1
  In  In44  1  0.33990844  0.49564203  0.37668268  1
  In  In45  1  0.33778064  0.49389462  0.87364191  1
  In  In46  1  0.32634714  0.83656083  0.37323031  1
  In  In47  1  0.33928713  0.82625027  0.88380371  1
  In  In48  1  0.65416946  0.15960556  0.36019438  1
  In  In49  1  0.64935606  0.18076958  0.89513061  1
  In  In50  1  0.66845571  0.48993719  0.37019709  1
  In  In51  1  0.63892062  0.47894438  0.84693361  1
  In  In52  1  0.66356069  0.84796616  0.37681633  1
  In  In53  1  0.66536855  0.82483887  0.87931693  1
  In  In54  1  0.17981785  0.01113245  0.11428304  1
  In  In55  1  0.16704096  -0.01664889  0.62245001  1
  In  In56  1  0.18060831  0.33954593  0.11599230  1
  In  In57  1  0.16658288  0.33183378  0.63463733  1
  In  In58  1  0.16310327  0.66336125  0.11658658  1
  In  In59  1  0.16196255  0.67560819  0.63324906  1
  In  In60  1  0.50298990  0.00087485  0.12481150  1
  In  In61  1  0.48671847  0.01083500  0.62005522  1
  In  In62  1  0.49864541  0.32958464  0.12497147  1
  In  In63  1  0.50463889  0.32881577  0.63343288  1
  In  In64  1  0.49866140  0.66565861  0.11102846  1
  In  In65  1  0.50990507  0.65513074  0.65007590  1
  In  In66  1  0.80871383  0.00325247  0.12064241  1
  In  In67  1  0.84711629  0.00197389  0.62414942  1
  In  In68  1  0.83200788  0.31858501  0.11703422  1
  In  In69  1  0.82452529  0.34424427  0.64658514  1
  In  In70  1  0.83923632  0.67894571  0.12443020  1
  In  In71  1  0.82973996  0.67234606  0.62996982  1
  In  In72  1  0.83156186  0.16433595  0.50119751  1
  In  In73  1  0.83294594  0.50087006  -0.01863344  1
  In  In74  1  0.49221936  0.83496025  0.50028194  1
  In  In75  1  0.16726262  0.50252979  0.50427496  1
  In  In76  1  0.32741202  -0.00029861  0.75005826  1
  In  In77  1  0.33032448  0.67189212  0.25235196  1
  In  In78  1  0.16955963  0.15841133  0.50355551  1
  In  In79  1  0.00016577  0.33412170  0.25324892  1
  In  In80  1  0.83236206  0.50433991  0.51999019  1
  In  In81  1  0.83011536  0.83260818  0.00085225  1
  In  In82  1  -0.00209839  -0.00552793  0.24889960  1
  In  In83  1  0.50647269  0.49243839  0.51718692  1
  In  In84  1  0.66903921  0.66422759  0.24234299  1
  In  In85  1  0.66793386  -0.00248618  0.76195912  1
  Cu  Cu86  1  0.16415523  0.83106168  0.75146628  1
  Cu  Cu87  1  0.00360040  -0.01081994  0.50274338  1
  Cu  Cu88  1  0.83843025  0.50016530  0.24824280  1
  Cu  Cu89  1  0.17207532  0.17136143  0.23884470  1
  Cu  Cu90  1  0.33531906  0.66761490  0.50998913  1
  Cu  Cu91  1  0.33740098  0.00707887  0.49079385  1
  Cu  Cu92  1  0.82423039  0.16556666  0.24385428  1
  Cu  Cu93  1  0.82911949  0.16498137  0.75617388  1
  Cu  Cu94  1  0.83664413  0.82884190  0.25177939  1
  Cu  Cu95  1  0.01158934  0.33188220  -0.00572004  1
  Cu  Cu96  1  -0.00231467  0.33899840  0.51422184  1
  Cu  Cu97  1  0.67659260  0.67007575  0.50147543  1
  Cu  Cu98  1  0.65798400  0.66616029  -0.00620970  1
  Cu  Cu99  1  0.16488265  0.83129478  0.24824452  1
  Cu  Cu100  1  0.83954889  0.83960017  0.74974340  1
  Cu  Cu101  1  0.17324199  0.49624730  0.75504736  1
  Cu  Cu102  1  0.32761362  0.66204659  -0.00460831  1
  Cu  Cu103  1  0.00070146  -0.00363854  -0.00276355  1
  Cu  Cu104  1  0.00007983  0.66461048  -0.00690752  1
  Cu  Cu105  1  0.49666531  0.49828097  0.24447694  1
  Cu  Cu106  1  0.66550556  0.33951641  -0.00593891  1
  Cu  Cu107  1  0.16223893  0.50673186  0.24410350  1
  Cu  Cu108  1  0.49605782  0.82907708  0.75655511  1
  Cu  Cu109  1  0.32871999  -0.00005092  0.00541348  1
  Cu  Cu110  1  0.65419393  0.32492334  0.49916736  1
  Cu  Cu111  1  0.50106989  0.16944052  0.75577143  1
  Cu  Cu112  1  0.34090755  0.32885077  -0.00027278  1
  Cu  Cu113  1  0.66072605  0.00399609  0.49254183  1
  Cu  Cu114  1  0.16777998  0.16411714  0.75868376  1
  Se  Se115  1  0.08546771  0.08248206  0.04729340  1
  Se  Se116  1  0.07056673  0.07954282  0.56440174  1
  Se  Se117  1  0.08977054  0.41739904  0.04911968  1
  Se  Se118  1  0.07627293  0.42137822  0.57045866  1
  Se  Se119  1  0.07944966  0.74909814  0.04879565  1
  Se  Se120  1  0.10028714  0.76049908  0.55684875  1
  Se  Se121  1  0.41728166  0.08239361  0.05456294  1
  Se  Se122  1  0.41834152  0.09155688  0.54406432  1
  Se  Se123  1  0.42113560  0.41625917  0.05334927  1
  Se  Se124  1  0.40580010  0.40439821  0.56385475  1
  Se  Se125  1  0.40928312  0.74758032  0.04897890  1
  Se  Se126  1  0.42296551  0.73984055  0.57043112  1
  Se  Se127  1  0.76766625  0.10674531  0.05193662  1
  Se  Se128  1  0.73852502  0.07697918  0.56178740  1
  Se  Se129  1  0.74901936  0.41803390  0.05386912  1
  Se  Se130  1  0.73578852  0.40252856  0.56220997  1
  Se  Se131  1  0.73496753  0.74300062  0.05946315  1
  Se  Se132  1  0.75716048  0.75453864  0.55385979  1
  Se  Se133  1  0.25465461  0.24544405  0.05210412  1
  Se  Se134  1  0.25319901  0.25679415  0.55852582  1
  Se  Se135  1  0.24626437  0.57811849  0.05107698  1
  Se  Se136  1  0.26005742  0.58348054  0.56924410  1
  Se  Se137  1  0.24215145  0.90911237  0.04904511  1
  Se  Se138  1  0.25937346  0.92295153  0.54841053  1
  Se  Se139  1  0.58634021  0.25705840  0.05221838  1
  Se  Se140  1  0.57329611  0.24426653  0.55545852  1
  Se  Se141  1  0.57550862  0.57756708  0.04266642  1
  Se  Se142  1  0.59672997  0.59494766  0.56511093  1
  Se  Se143  1  0.57877318  0.91431322  0.05219484  1
  Se  Se144  1  0.58672148  0.92515896  0.56057241  1
  Se  Se145  1  0.92207190  0.25315271  0.04521057  1
  Se  Se146  1  0.91133838  0.25757355  0.56682584  1
  Se  Se147  1  0.91708673  0.58658622  0.05360065  1
  Se  Se148  1  0.93293356  0.59646899  0.56298508  1
  Se  Se149  1  0.91974438  0.92304365  0.06326059  1
  Se  Se150  1  0.91725731  0.91115881  0.55608441  1
  Se  Se151  1  0.07344705  0.25941646  0.44987790  1
  Se  Se152  1  0.09198069  0.24402101  0.94280795  1
  Se  Se153  1  0.07728829  0.59268640  0.44496301  1
  Se  Se154  1  0.08477364  0.57753817  0.94576526  1
  Se  Se155  1  0.09109809  0.91368817  0.44784750  1
  Se  Se156  1  0.07991906  0.90719701  0.94679924  1
  Se  Se157  1  0.41101183  0.24839262  0.43221597  1
  Se  Se158  1  0.42438736  0.24288306  0.94875212  1
  Se  Se159  1  0.41499839  0.58528476  0.45219099  1
  Se  Se160  1  0.41558643  0.58096916  0.94444388  1
  Se  Se161  1  0.42075566  0.92787967  0.43205369  1
  Se  Se162  1  0.41285319  0.91737167  0.95183071  1
  Se  Se163  1  0.74230383  0.25224311  0.43955327  1
  Se  Se164  1  0.75618869  0.25861288  0.94587955  1
  Se  Se165  1  0.74624622  0.57930857  0.44312868  1
  Se  Se166  1  0.73539108  0.58943527  0.93066993  1
  Se  Se167  1  0.74988135  0.91688723  0.45074817  1
  Se  Se168  1  0.73917661  0.92494643  0.94532561  1
  Se  Se169  1  0.25528480  0.08535383  0.43077346  1
  Se  Se170  1  0.24799498  0.08179144  0.94771460  1
  Se  Se171  1  0.25743704  0.40906497  0.44625068  1
  Se  Se172  1  0.25686128  0.41205845  0.94604611  1
  Se  Se173  1  0.26094235  0.75163046  0.45068804  1
  Se  Se174  1  0.24400831  0.74941547  0.94662881  1
  Se  Se175  1  0.57863903  0.08375299  0.43689061  1
  Se  Se176  1  0.59379408  0.07886696  0.96154195  1
  Se  Se177  1  0.58107603  0.41201485  0.44057037  1
  Se  Se178  1  0.58265581  0.42004657  0.93833176  1
  Se  Se179  1  0.58849918  0.74221155  0.44231919  1
  Se  Se180  1  0.57279443  0.75312858  0.94599010  1
  Se  Se181  1  0.92651711  0.07301406  0.44181758  1
  Se  Se182  1  0.91797329  0.08066292  0.94532278  1
  Se  Se183  1  0.91789957  0.41285540  0.44956294  1
  Se  Se184  1  0.92943055  0.40850716  0.93189649  1
  Se  Se185  1  0.91066833  0.74914926  0.44935990  1
  Se  Se186  1  0.91071542  0.73933960  0.93633202  1
  Se  Se187  1  0.24868925  0.25686587  0.29593317  1
  Se  Se188  1  0.25708119  0.24649862  0.80513274  1
  Se  Se189  1  0.24105044  0.57899421  0.31319904  1
  Se  Se190  1  0.25227935  0.58225303  0.80901760  1
  Se  Se191  1  0.24804924  0.91576028  0.29960740  1
  Se  Se192  1  0.24295882  0.91125775  0.81370743  1
  Se  Se193  1  0.60462879  0.27247456  0.30225049  1
  Se  Se194  1  0.58542941  0.24968519  0.81010650  1
  Se  Se195  1  0.57349196  0.57895635  0.30803441  1
  Se  Se196  1  0.59393308  0.60408000  0.80224434  1
  Se  Se197  1  0.59157193  0.90817275  0.29479651  1
  Se  Se198  1  0.56710195  0.91507080  0.81796936  1
  Se  Se199  1  0.90445824  0.24021435  0.30945512  1
  Se  Se200  1  0.91638446  0.24740348  0.80649948  1
  Se  Se201  1  0.92132648  0.58358946  0.29954819  1
  Se  Se202  1  0.92624052  0.58836383  0.79504682  1
  Se  Se203  1  0.91261464  0.90948706  0.31536157  1
  Se  Se204  1  0.92174250  0.92184574  0.80323697  1
  Se  Se205  1  0.09180603  0.09358272  0.30179589  1
  Se  Se206  1  0.08183290  0.07895294  0.80601990  1
  Se  Se207  1  0.09137444  0.42573459  0.31311004  1
  Se  Se208  1  0.08915925  0.41258941  0.80661384  1
  Se  Se209  1  0.08438516  0.75136619  0.30601000  1
  Se  Se210  1  0.08221532  0.74575525  0.80490278  1
  Se  Se211  1  0.40377028  0.06014130  0.29221843  1
  Se  Se212  1  0.42194649  0.08327232  0.81201493  1
  Se  Se213  1  0.40795005  0.42091480  0.29753814  1
  Se  Se214  1  0.42169786  0.41763244  0.80223100  1
  Se  Se215  1  0.42639584  0.76523653  0.30429568  1
  Se  Se216  1  0.40978316  0.74739234  0.80680220  1
  Se  Se217  1  0.74669919  0.07759603  0.29798239  1
  Se  Se218  1  0.74928886  0.09302985  0.82130672  1
  Se  Se219  1  0.75110899  0.41718571  0.29599633  1
  Se  Se220  1  0.76156092  0.43311765  0.79785049  1
  Se  Se221  1  0.75350351  0.74858371  0.31136300  1
  Se  Se222  1  0.75111408  0.76181815  0.80269006  1
  Se  Se223  1  0.25469482  0.08391327  0.19110343  1
  Se  Se224  1  0.24037845  0.08978444  0.68678354  1
  Se  Se225  1  0.24623333  0.42133384  0.19474127  1
  Se  Se226  1  0.25367095  0.40921145  0.70289886  1
  Se  Se227  1  0.24611369  0.75576443  0.18491492  1
  Se  Se228  1  0.25433452  0.75197514  0.70046279  1
  Se  Se229  1  0.59163560  0.08088401  0.19093340  1
  Se  Se230  1  0.57665174  0.08355142  0.69587076  1
  Se  Se231  1  0.58328344  0.41725020  0.19342020  1
  Se  Se232  1  0.57309727  0.42315843  0.70049658  1
  Se  Se233  1  0.56974481  0.74936356  0.19009233  1
  Se  Se234  1  0.58991467  0.75615155  0.70453466  1
  Se  Se235  1  0.91203698  0.08780306  0.18867180  1
  Se  Se236  1  0.91211181  0.08160768  0.70305628  1
  Se  Se237  1  0.91561170  0.41922584  0.18488604  1
  Se  Se238  1  0.93789987  0.39448051  0.70270949  1
  Se  Se239  1  0.92125940  0.74543952  0.20155934  1
  Se  Se240  1  0.91859271  0.75329574  0.69568066  1
  Se  Se241  1  0.08390339  0.24911142  0.18475074  1
  Se  Se242  1  0.08554369  0.24857488  0.70359006  1
  Se  Se243  1  0.08023692  0.58999394  0.19285897  1
  Se  Se244  1  0.09199955  0.58333354  0.70241450  1
  Se  Se245  1  0.09008830  0.91360708  0.18464617  1
  Se  Se246  1  0.08330619  0.91667796  0.69746775  1
  Se  Se247  1  0.41214195  0.25843180  0.19704037  1
  Se  Se248  1  0.41514283  0.24578727  0.69911009  1
  Se  Se249  1  0.41751075  0.58319626  0.18804466  1
  Se  Se250  1  0.41306697  0.58573436  0.71119756  1
  Se  Se251  1  0.41302309  0.92253441  0.19374396  1
  Se  Se252  1  0.42354708  0.91027985  0.69127452  1
  Se  Se253  1  0.74699094  0.25332716  0.19126224  1
  Se  Se254  1  0.74258979  0.24808709  0.70435352  1
  Se  Se255  1  0.75840747  0.57302321  0.18165658  1
  Se  Se256  1  0.76977925  0.56965169  0.69526563  1
  Se  Se257  1  0.75486492  0.91023466  0.19664917  1
  Se  Se258  1  0.75313336  0.91654082  0.69057693  1
