# generated using pymatgen
data_In86Cu29Se144
_symmetry_space_group_name_H-M   'P 1'
_cell_length_a   17.58143379
_cell_length_b   17.57966366
_cell_length_c   23.44156263
_cell_angle_alpha   89.98610225
_cell_angle_beta   90.01309847
_cell_angle_gamma   90.00978495
_symmetry_Int_Tables_number   1
_chemical_formula_structural   In86Cu29Se144
_chemical_formula_sum   'In86 Cu29 Se144'
_cell_volume   7245.21670335
_cell_formula_units_Z   1
loop_
 _symmetry_equiv_pos_site_id
 _symmetry_equiv_pos_as_xyz
  1  'x, y, z'
loop_
 _atom_site_type_symbol
 _atom_site_label
 _atom_site_symmetry_multiplicity
 _atom_site_fract_x
 _atom_site_fract_y
 _atom_site_fract_z
 _atom_site_occupancy
  In  In0  1  -0.01096765  0.15627439  0.12102412  1
  In  In1  1  -0.00736492  0.16393440  0.61524790  1
  In  In2  1  -0.00602279  0.51357787  0.12908819  1
  In  In3  1  -0.01291901  0.48182280  0.59163647  1
  In  In4  1  0.00459282  0.83100473  0.13001771  1
  In  In5  1  0.01063964  0.83794283  0.62718455  1
  In  In6  1  0.33738925  0.17076439  0.11778697  1
  In  In7  1  0.32280870  0.17592384  0.63657049  1
  In  In8  1  0.33728058  0.50048649  0.13875989  1
  In  In9  1  0.33260816  0.50268081  0.62697041  1
  In  In10  1  0.32711657  0.83123265  0.11642058  1
  In  In11  1  0.33901158  0.82874929  0.64032010  1
  In  In12  1  0.66363281  0.16301065  0.12101978  1
  In  In13  1  0.69422919  0.16806918  0.63140233  1
  In  In14  1  0.68050577  0.49696297  0.12798839  1
  In  In15  1  0.66912827  0.49238688  0.63202398  1
  In  In16  1  0.65990413  0.84411012  0.12443444  1
  In  In17  1  0.65455766  0.83033796  0.62960076  1
  In  In18  1  0.16171507  0.01598530  0.37924378  1
  In  In19  1  0.16623395  -0.00180407  0.87860772  1
  In  In20  1  0.16497495  0.32830153  0.38304086  1
  In  In21  1  0.16210667  0.32010480  0.87383345  1
  In  In22  1  0.15370420  0.65406019  0.36726072  1
  In  In23  1  0.18396486  0.66786052  0.87448036  1
  In  In24  1  0.50310918  -0.00723121  0.37227898  1
  In  In25  1  0.49386282  0.00548727  0.88178028  1
  In  In26  1  0.49565153  0.34967784  0.36620706  1
  In  In27  1  0.48847969  0.32221510  0.86756716  1
  In  In28  1  0.50399833  0.66194582  0.35642685  1
  In  In29  1  0.50101819  0.67525415  0.87154661  1
  In  In30  1  0.83190704  0.00489870  0.36534491  1
  In  In31  1  0.84846941  0.00685029  0.87064767  1
  In  In32  1  0.84905577  0.32406756  0.39231331  1
  In  In33  1  0.82802262  0.33780705  0.88038804  1
  In  In34  1  0.83274157  0.66447949  0.37142350  1
  In  In35  1  0.82126314  0.66449793  0.87474097  1
  In  In36  1  0.00183772  0.16128368  0.37688083  1
  In  In37  1  0.00901046  0.16252532  0.88308506  1
  In  In38  1  -0.00937303  0.51166318  0.39219451  1
  In  In39  1  -0.00300147  0.48713582  0.87656382  1
  In  In40  1  -0.00336119  0.83166374  0.36467014  1
  In  In41  1  -0.00127842  0.85018648  0.87453082  1
  In  In42  1  0.31411544  0.16931246  0.37692455  1
  In  In43  1  0.33195835  0.16456803  0.87561561  1
  In  In44  1  0.32406504  0.48922556  0.36210078  1
  In  In45  1  0.33610803  0.50746397  0.86377730  1
  In  In46  1  0.34673902  0.82920260  0.37410492  1
  In  In47  1  0.33287894  0.83227194  0.87978325  1
  In  In48  1  0.67988565  0.16427438  0.37451116  1
  In  In49  1  0.66424616  0.16972736  0.87751518  1
  In  In50  1  0.67392256  0.50983796  0.37323668  1
  In  In51  1  0.67097522  0.50560500  0.87193743  1
  In  In52  1  0.66825179  0.83284715  0.36358981  1
  In  In53  1  0.66437321  0.82007105  0.87329357  1
  In  In54  1  0.15852688  -0.00354146  0.12100690  1
  In  In55  1  0.15522415  0.01055788  0.63585599  1
  In  In56  1  0.17745637  0.33295994  0.12401909  1
  In  In57  1  0.16967284  0.33898021  0.61621672  1
  In  In58  1  0.16265100  0.67353940  0.13093981  1
  In  In59  1  0.17407451  0.66056238  0.62019820  1
  In  In60  1  0.50885823  0.00732586  0.11388120  1
  In  In61  1  0.49704396  -0.01381431  0.63307993  1
  In  In62  1  0.49923579  0.32151185  0.12438843  1
  In  In63  1  0.50006512  0.33469609  0.63783863  1
  In  In64  1  0.48948782  0.67524204  0.13064885  1
  In  In65  1  0.50372978  0.67037955  0.63570545  1
  In  In66  1  0.82735769  0.01276207  0.13733128  1
  In  In67  1  0.83421183  0.02742713  0.62735515  1
  In  In68  1  0.82579035  0.32823633  0.11790622  1
  In  In69  1  0.82937825  0.32633803  0.61744160  1
  In  In70  1  0.83854458  0.66117183  0.12969303  1
  In  In71  1  0.83118825  0.65122290  0.62286085  1
  In  In72  1  0.83546161  0.83702606  0.49003785  1
  In  In73  1  -0.00397705  0.32635255  0.74007910  1
  In  In74  1  0.66532539  0.33406014  0.24979992  1
  In  In75  1  0.17092517  0.83149611  0.50635770  1
  In  In76  1  0.00753792  0.66278496  0.73807725  1
  In  In77  1  0.50281154  0.16834396  0.50291925  1
  In  In78  1  0.50493813  0.49647581  0.00300410  1
  In  In79  1  0.32956693  -0.00212904  0.25012642  1
  In  In80  1  0.00257454  0.33268446  0.26126474  1
  In  In81  1  0.83340403  0.83723469  -0.00191830  1
  In  In82  1  0.50353630  0.83396698  0.50681726  1
  In  In83  1  0.50196904  0.50357265  0.49548130  1
  In  In84  1  0.66576378  0.00127334  0.75434011  1
  In  In85  1  0.16323493  0.50085283  0.00106506  1
  Cu  Cu86  1  0.83325212  0.82916086  0.24738914  1
  Cu  Cu87  1  0.66627583  0.32925302  -0.00070388  1
  Cu  Cu88  1  0.00001930  0.66871443  0.00663892  1
  Cu  Cu89  1  0.33042959  0.65880413  0.49762505  1
  Cu  Cu90  1  0.66923300  0.66913493  0.49562975  1
  Cu  Cu91  1  0.83077173  0.50131247  0.74884255  1
  Cu  Cu92  1  0.33227498  0.33050329  0.49859551  1
  Cu  Cu93  1  0.83066302  0.83630213  0.75273967  1
  Cu  Cu94  1  0.16324917  0.17071239  0.25359186  1
  Cu  Cu95  1  0.32933060  0.32950881  -0.00524304  1
  Cu  Cu96  1  0.50322508  0.50112439  0.75309875  1
  Cu  Cu97  1  0.16853923  0.83463855  0.75331878  1
  Cu  Cu98  1  0.50270893  0.83497470  0.24383426  1
  Cu  Cu99  1  0.17053111  0.16167819  0.75548934  1
  Cu  Cu100  1  -0.00558793  0.33098681  0.00043430  1
  Cu  Cu101  1  0.00181196  0.00246682  0.00133415  1
  Cu  Cu102  1  0.66716005  0.00226424  -0.00135102  1
  Cu  Cu103  1  0.17152051  0.83327090  0.24597825  1
  Cu  Cu104  1  0.17008968  0.49650907  0.74033672  1
  Cu  Cu105  1  0.49537303  0.16572234  0.24271654  1
  Cu  Cu106  1  0.83736479  0.49774804  0.25484419  1
  Cu  Cu107  1  0.67489307  0.33211342  0.50479021  1
  Cu  Cu108  1  0.50023588  0.16387375  0.75561070  1
  Cu  Cu109  1  0.33390602  0.67189098  0.00276498  1
  Cu  Cu110  1  0.66686741  0.66490010  -0.00299822  1
  Cu  Cu111  1  0.16594202  0.50539116  0.25094152  1
  Cu  Cu112  1  0.32927726  0.00194568  -0.00147926  1
  Cu  Cu113  1  0.32690171  0.00744371  0.50892534  1
  Cu  Cu114  1  -0.00107627  0.00149059  0.49987768  1
  Se  Se115  1  0.08522688  0.08842868  0.05308861  1
  Se  Se116  1  0.08596743  0.08055738  0.55357155  1
  Se  Se117  1  0.07242099  0.41240349  0.06301872  1
  Se  Se118  1  0.09322794  0.41160878  0.53998245  1
  Se  Se119  1  0.08478094  0.75190076  0.05638053  1
  Se  Se120  1  0.07353013  0.73948382  0.55699118  1
  Se  Se121  1  0.41615085  0.08499789  0.04998213  1
  Se  Se122  1  0.41413209  0.08109095  0.56716160  1
  Se  Se123  1  0.40531950  0.41039453  0.05845909  1
  Se  Se124  1  0.41806158  0.40829098  0.55673139  1
  Se  Se125  1  0.42204580  0.75430215  0.05199490  1
  Se  Se126  1  0.40812764  0.73989530  0.55920256  1
  Se  Se127  1  0.75176727  0.07989536  0.05561601  1
  Se  Se128  1  0.75181405  0.08890892  0.54981523  1
  Se  Se129  1  0.74789196  0.41684482  0.05041978  1
  Se  Se130  1  0.75090605  0.42426559  0.55573264  1
  Se  Se131  1  0.74693821  0.74559736  0.05921082  1
  Se  Se132  1  0.74438623  0.75211093  0.55744288  1
  Se  Se133  1  0.24641413  0.24808441  0.04999975  1
  Se  Se134  1  0.25382513  0.24535952  0.55391805  1
  Se  Se135  1  0.25695893  0.58564307  0.06199002  1
  Se  Se136  1  0.25081765  0.57375533  0.55063306  1
  Se  Se137  1  0.24522707  0.91869038  0.05218747  1
  Se  Se138  1  0.25637727  0.92042937  0.56984184  1
  Se  Se139  1  0.58143301  0.24731524  0.05225994  1
  Se  Se140  1  0.59015481  0.25784498  0.56544302  1
  Se  Se141  1  0.59029552  0.58905308  0.06351241  1
  Se  Se142  1  0.58866725  0.59253562  0.55936812  1
  Se  Se143  1  0.58269265  0.91458866  0.04615089  1
  Se  Se144  1  0.59590533  0.93129130  0.55678248  1
  Se  Se145  1  0.91236312  0.24573810  0.05306206  1
  Se  Se146  1  0.92729454  0.26275464  0.55121564  1
  Se  Se147  1  0.91313006  0.58299590  0.05237481  1
  Se  Se148  1  0.91654111  0.59449077  0.54641966  1
  Se  Se149  1  0.91931919  0.92344722  0.06263924  1
  Se  Se150  1  0.91961285  0.92159282  0.56060223  1
  Se  Se151  1  0.07581553  0.24908587  0.44572742  1
  Se  Se152  1  0.08552309  0.25168135  0.95210066  1
  Se  Se153  1  0.09350414  0.58340942  0.45095644  1
  Se  Se154  1  0.07585149  0.59165126  0.93810959  1
  Se  Se155  1  0.07830422  0.91695072  0.44202809  1
  Se  Se156  1  0.08294989  0.91526334  0.94997240  1
  Se  Se157  1  0.41561409  0.25645143  0.43719789  1
  Se  Se158  1  0.41709472  0.24663363  0.94589064  1
  Se  Se159  1  0.41280448  0.58918655  0.43246813  1
  Se  Se160  1  0.41059782  0.58477930  0.94489590  1
  Se  Se161  1  0.40727595  0.92741600  0.44900166  1
  Se  Se162  1  0.41491108  0.91685881  0.94878010  1
  Se  Se163  1  0.75132663  0.24378795  0.45085276  1
  Se  Se164  1  0.75200937  0.24644696  0.94745769  1
  Se  Se165  1  0.75454983  0.58496266  0.44656257  1
  Se  Se166  1  0.75161425  0.57947740  0.94846345  1
  Se  Se167  1  0.73808566  0.92327363  0.43675040  1
  Se  Se168  1  0.74549569  0.92485817  0.93397405  1
  Se  Se169  1  0.24511216  0.08775820  0.45333929  1
  Se  Se170  1  0.24627440  0.08655760  0.94584214  1
  Se  Se171  1  0.25508279  0.41742752  0.44350223  1
  Se  Se172  1  0.25428028  0.41673088  0.93666642  1
  Se  Se173  1  0.25576716  0.74576302  0.43862524  1
  Se  Se174  1  0.24582947  0.75233950  0.95155806  1
  Se  Se175  1  0.58690373  0.07706493  0.44113647  1
  Se  Se176  1  0.58272142  0.08673870  0.94673376  1
  Se  Se177  1  0.59483799  0.40785152  0.44105748  1
  Se  Se178  1  0.58597581  0.40745563  0.93664312  1
  Se  Se179  1  0.58420861  0.74449921  0.43686418  1
  Se  Se180  1  0.58136684  0.74886801  0.94792826  1
  Se  Se181  1  0.91380822  0.07647327  0.44155199  1
  Se  Se182  1  0.91589156  0.08469604  0.94936235  1
  Se  Se183  1  0.91464948  0.42088404  0.45725793  1
  Se  Se184  1  0.91326011  0.41917415  0.95048160  1
  Se  Se185  1  0.92911975  0.74259221  0.44030834  1
  Se  Se186  1  0.92320986  0.74417034  0.93828736  1
  Se  Se187  1  0.24580424  0.25661400  0.30436211  1
  Se  Se188  1  0.25229882  0.25095345  0.80437689  1
  Se  Se189  1  0.25350338  0.59084768  0.30033206  1
  Se  Se190  1  0.24595428  0.58369420  0.79629427  1
  Se  Se191  1  0.24182330  0.91125183  0.31576655  1
  Se  Se192  1  0.24954026  0.91582936  0.80986979  1
  Se  Se193  1  0.57372509  0.24199424  0.30983571  1
  Se  Se194  1  0.58625833  0.24942363  0.80385604  1
  Se  Se195  1  0.58776962  0.57113178  0.29886013  1
  Se  Se196  1  0.58373310  0.58708516  0.80678533  1
  Se  Se197  1  0.58305553  0.91895168  0.29865832  1
  Se  Se198  1  0.57577680  0.91197596  0.81264314  1
  Se  Se199  1  0.90519473  0.23953120  0.30857584  1
  Se  Se200  1  0.91849823  0.24888185  0.81547466  1
  Se  Se201  1  0.92256409  0.58035414  0.30763944  1
  Se  Se202  1  0.91693243  0.57937807  0.80676756  1
  Se  Se203  1  0.91403134  0.91637194  0.29992730  1
  Se  Se204  1  0.91932950  0.92035494  0.79786017  1
  Se  Se205  1  0.08093952  0.08232152  0.30195034  1
  Se  Se206  1  0.08330518  0.08206917  0.80845744  1
  Se  Se207  1  0.08763936  0.42962569  0.31667498  1
  Se  Se208  1  0.08931514  0.41919830  0.80249162  1
  Se  Se209  1  0.08585053  0.75108306  0.30041039  1
  Se  Se210  1  0.08417154  0.75167611  0.81046951  1
  Se  Se211  1  0.41745010  0.09157517  0.31115822  1
  Se  Se212  1  0.41524776  0.08100552  0.80638307  1
  Se  Se213  1  0.41675066  0.42104007  0.29291209  1
  Se  Se214  1  0.41533633  0.41605254  0.80098710  1
  Se  Se215  1  0.41762319  0.75319564  0.29698886  1
  Se  Se216  1  0.39297351  0.73180075  0.81167558  1
  Se  Se217  1  0.73764993  0.07701968  0.29885684  1
  Se  Se218  1  0.75940021  0.09407600  0.80668072  1
  Se  Se219  1  0.76347839  0.41116789  0.31494597  1
  Se  Se220  1  0.75235448  0.41778025  0.80551827  1
  Se  Se221  1  0.75034374  0.74421798  0.30073417  1
  Se  Se222  1  0.74983923  0.74755137  0.80072387  1
  Se  Se223  1  0.24310863  0.09105994  0.19054239  1
  Se  Se224  1  0.25429316  0.07705953  0.70185365  1
  Se  Se225  1  0.24489121  0.41705462  0.19902485  1
  Se  Se226  1  0.25396570  0.40947798  0.69128755  1
  Se  Se227  1  0.25678140  0.75181821  0.19434675  1
  Se  Se228  1  0.24073953  0.74616524  0.69564888  1
  Se  Se229  1  0.58086290  0.08319161  0.19265790  1
  Se  Se230  1  0.58035117  0.09214221  0.68851312  1
  Se  Se231  1  0.57595976  0.42142015  0.18792994  1
  Se  Se232  1  0.58731189  0.41495035  0.70363198  1
  Se  Se233  1  0.58790575  0.75077372  0.19248545  1
  Se  Se234  1  0.57799086  0.75787113  0.70406120  1
  Se  Se235  1  0.92613033  0.08029423  0.20151604  1
  Se  Se236  1  0.92709837  0.08985180  0.69679464  1
  Se  Se237  1  0.91122593  0.41470559  0.19200598  1
  Se  Se238  1  0.91421486  0.42915640  0.68512399  1
  Se  Se239  1  0.92017013  0.74674871  0.19628681  1
  Se  Se240  1  0.90783329  0.75618007  0.68793443  1
  Se  Se241  1  0.08479404  0.24904704  0.18998396  1
  Se  Se242  1  0.09611095  0.24033568  0.68781135  1
  Se  Se243  1  0.08101778  0.58713228  0.19805280  1
  Se  Se244  1  0.08288065  0.56323117  0.67739725  1
  Se  Se245  1  0.08558665  0.91838564  0.19770983  1
  Se  Se246  1  0.08126456  0.91735315  0.70297813  1
  Se  Se247  1  0.40938483  0.25053623  0.19514129  1
  Se  Se248  1  0.41649547  0.24943532  0.70265051  1
  Se  Se249  1  0.41968548  0.58648850  0.20077890  1
  Se  Se250  1  0.41891690  0.58030455  0.69583501  1
  Se  Se251  1  0.42103691  0.91720753  0.18523112  1
  Se  Se252  1  0.41980886  0.91208832  0.70644656  1
  Se  Se253  1  0.75525520  0.24165626  0.19319697  1
  Se  Se254  1  0.75901505  0.26041179  0.69987654  1
  Se  Se255  1  0.75445985  0.58070113  0.20034465  1
  Se  Se256  1  0.74557566  0.58618756  0.69836371  1
  Se  Se257  1  0.74938937  0.91409158  0.19541536  1
  Se  Se258  1  0.75648983  0.91660636  0.68736075  1
