# generated using pymatgen
data_In86Cu29Se144
_symmetry_space_group_name_H-M   'P 1'
_cell_length_a   17.57995351
_cell_length_b   17.58759538
_cell_length_c   23.44787059
_cell_angle_alpha   90.00155005
_cell_angle_beta   89.99453735
_cell_angle_gamma   89.98804041
_symmetry_Int_Tables_number   1
_chemical_formula_structural   In86Cu29Se144
_chemical_formula_sum   'In86 Cu29 Se144'
_cell_volume   7249.82602782
_cell_formula_units_Z   1
loop_
 _symmetry_equiv_pos_site_id
 _symmetry_equiv_pos_as_xyz
  1  'x, y, z'
loop_
 _atom_site_type_symbol
 _atom_site_label
 _atom_site_symmetry_multiplicity
 _atom_site_fract_x
 _atom_site_fract_y
 _atom_site_fract_z
 _atom_site_occupancy
  In  In0  1  -0.00779677  0.16446990  0.11500625  1
  In  In1  1  -0.01436407  0.17633914  0.62677338  1
  In  In2  1  0.00951042  0.49840568  0.12380028  1
  In  In3  1  -0.00052739  0.51738496  0.62621315  1
  In  In4  1  -0.01004861  0.82425206  0.12032644  1
  In  In5  1  -0.01896021  0.82393005  0.62282249  1
  In  In6  1  0.33773036  0.18087779  0.12304093  1
  In  In7  1  0.35128235  0.17524048  0.62091237  1
  In  In8  1  0.32662452  0.50886138  0.13192688  1
  In  In9  1  0.34576301  0.49310050  0.63094383  1
  In  In10  1  0.32568071  0.82376276  0.11799100  1
  In  In11  1  0.34230257  0.82068685  0.63095731  1
  In  In12  1  0.67675114  0.16843798  0.12595220  1
  In  In13  1  0.67867175  0.18672504  0.61773013  1
  In  In14  1  0.66947685  0.50291800  0.14158518  1
  In  In15  1  0.66859782  0.50519114  0.62486267  1
  In  In16  1  0.66108443  0.82622934  0.11302207  1
  In  In17  1  0.65513667  0.82292618  0.61532109  1
  In  In18  1  0.15986715  -0.00154295  0.37125576  1
  In  In19  1  0.16380252  0.00267430  0.88529408  1
  In  In20  1  0.17287744  0.32904984  0.36972667  1
  In  In21  1  0.17488875  0.32877043  0.88113278  1
  In  In22  1  0.16515824  0.65810394  0.36715504  1
  In  In23  1  0.16664147  0.66496434  0.87953946  1
  In  In24  1  0.52386294  -0.01435460  0.39504368  1
  In  In25  1  0.49418892  -0.00341320  0.87619437  1
  In  In26  1  0.49926229  0.33522082  0.37947788  1
  In  In27  1  0.50779905  0.33950598  0.86461875  1
  In  In28  1  0.50087697  0.65810773  0.37495163  1
  In  In29  1  0.51023901  0.67206483  0.86706037  1
  In  In30  1  0.81368731  0.00603330  0.39032700  1
  In  In31  1  0.82926521  -0.00467556  0.88447153  1
  In  In32  1  0.81150196  0.35966768  0.38955094  1
  In  In33  1  0.82176290  0.33277694  0.86781518  1
  In  In34  1  0.83183996  0.66673518  0.37363400  1
  In  In35  1  0.84112632  0.66861550  0.86395560  1
  In  In36  1  -0.00954331  0.15733150  0.37469579  1
  In  In37  1  0.00101947  0.16968125  0.87988453  1
  In  In38  1  -0.01614911  0.51353803  0.37993849  1
  In  In39  1  -0.00299231  0.52235110  0.87136440  1
  In  In40  1  -0.01074591  0.81530297  0.37020794  1
  In  In41  1  0.00271891  0.82652536  0.88230720  1
  In  In42  1  0.34463008  0.18105169  0.37011379  1
  In  In43  1  0.32994904  0.16487562  0.87513034  1
  In  In44  1  0.33553168  0.50071031  0.37349387  1
  In  In45  1  0.32980372  0.49385817  0.87009955  1
  In  In46  1  0.35013862  0.82374964  0.37581686  1
  In  In47  1  0.34028456  0.82184344  0.88264088  1
  In  In48  1  0.65318268  0.17975588  0.38731951  1
  In  In49  1  0.66975148  0.17444512  0.87219857  1
  In  In50  1  0.67008011  0.49850166  0.37192673  1
  In  In51  1  0.68209897  0.50166013  0.85323035  1
  In  In52  1  0.68092264  0.81572397  0.38825192  1
  In  In53  1  0.67909875  0.82449984  0.88874646  1
  In  In54  1  0.16315952  -0.00258575  0.11476157  1
  In  In55  1  0.16785344  0.00003017  0.63008172  1
  In  In56  1  0.17287458  0.34475430  0.11507064  1
  In  In57  1  0.17667549  0.34386472  0.63016509  1
  In  In58  1  0.16620303  0.66411911  0.12364901  1
  In  In59  1  0.16639038  0.67131683  0.63602369  1
  In  In60  1  0.51398251  -0.01570486  0.12393290  1
  In  In61  1  0.52268589  0.01376839  0.60141818  1
  In  In62  1  0.49723323  0.33562502  0.13750848  1
  In  In63  1  0.49771036  0.34687420  0.62099574  1
  In  In64  1  0.49592416  0.66938020  0.13030183  1
  In  In65  1  0.50214623  0.66495373  0.62352314  1
  In  In66  1  0.82195960  0.00258529  0.11163413  1
  In  In67  1  0.82200206  0.00074515  0.61462992  1
  In  In68  1  0.83423585  0.32812299  0.12642659  1
  In  In69  1  0.81985682  0.32790909  0.61904985  1
  In  In70  1  0.82274350  0.67593432  0.13997220  1
  In  In71  1  0.83031310  0.65776507  0.62490360  1
  In  In72  1  -0.00233561  0.33819732  0.25007220  1
  In  In73  1  0.33927827  -0.00617065  0.75201087  1
  In  In74  1  0.16662397  0.49948494  0.49674272  1
  In  In75  1  0.16650831  0.83500354  0.50652421  1
  In  In76  1  -0.00328920  -0.00652681  0.74339087  1
  In  In77  1  0.50301251  0.16164189  0.00029053  1
  In  In78  1  0.66778418  -0.00226349  0.74841413  1
  In  In79  1  0.66582255  -0.00126666  0.25125296  1
  In  In80  1  0.16288766  0.16440218  0.50526401  1
  In  In81  1  0.83915888  0.49922860  -0.00297920  1
  In  In82  1  0.33750465  0.00014842  0.25426308  1
  In  In83  1  0.49875707  0.50277899  -0.00121210  1
  In  In84  1  -0.00712719  -0.00404806  0.24085845  1
  In  In85  1  -0.00219978  0.33911217  0.75218787  1
  Cu  Cu86  1  0.33430570  0.66281711  0.50179261  1
  Cu  Cu87  1  0.66961642  0.66725166  0.00013348  1
  Cu  Cu88  1  0.00240263  0.33100105  -0.00219469  1
  Cu  Cu89  1  -0.01174266  -0.00460200  0.49920779  1
  Cu  Cu90  1  0.50454336  0.82083142  0.24991404  1
  Cu  Cu91  1  0.33354330  -0.00424062  -0.00177482  1
  Cu  Cu92  1  0.00003664  0.66875331  0.00080515  1
  Cu  Cu93  1  0.17257038  0.82021816  0.24604250  1
  Cu  Cu94  1  0.83409116  0.83468394  0.25359860  1
  Cu  Cu95  1  0.82992203  0.82269421  0.74996362  1
  Cu  Cu96  1  0.82628102  0.17978447  0.25188620  1
  Cu  Cu97  1  0.33521774  0.00492192  0.49497288  1
  Cu  Cu98  1  0.00037485  -0.00026649  -0.00029089  1
  Cu  Cu99  1  0.50178399  0.49590202  0.25735562  1
  Cu  Cu100  1  0.50710056  0.18183043  0.74288198  1
  Cu  Cu101  1  0.16615619  0.82318382  0.75980219  1
  Cu  Cu102  1  0.33095263  0.33517461  -0.00149950  1
  Cu  Cu103  1  0.50182775  0.83332735  0.74615244  1
  Cu  Cu104  1  0.66708890  0.33573093  -0.00386170  1
  Cu  Cu105  1  -0.00732554  0.33195113  0.50171315  1
  Cu  Cu106  1  0.66540909  0.65932571  0.50046025  1
  Cu  Cu107  1  0.16962045  0.17387504  0.24180366  1
  Cu  Cu108  1  0.33077774  0.66651249  0.00394489  1
  Cu  Cu109  1  0.17019118  0.49901556  0.24647437  1
  Cu  Cu110  1  0.50116404  0.50420846  0.74358448  1
  Cu  Cu111  1  0.66043944  0.34280186  0.50090875  1
  Cu  Cu112  1  0.17165560  0.50578771  0.75259530  1
  Cu  Cu113  1  0.49975728  0.16914404  0.25968606  1
  Cu  Cu114  1  0.17229516  0.17112103  0.75588327  1
  Se  Se115  1  0.08352531  0.08681129  0.05033279  1
  Se  Se116  1  0.06872302  0.07176438  0.56249562  1
  Se  Se117  1  0.08257060  0.42017586  0.04777253  1
  Se  Se118  1  0.07734482  0.40867514  0.56047292  1
  Se  Se119  1  0.08450214  0.75038823  0.05527892  1
  Se  Se120  1  0.07649377  0.74028802  0.55932552  1
  Se  Se121  1  0.41247717  0.07233665  0.06323035  1
  Se  Se122  1  0.41809428  0.08976203  0.54687029  1
  Se  Se123  1  0.41201654  0.41161542  0.06049020  1
  Se  Se124  1  0.41025616  0.42104314  0.55030530  1
  Se  Se125  1  0.42095356  0.74737747  0.05418799  1
  Se  Se126  1  0.41738030  0.74867635  0.55328124  1
  Se  Se127  1  0.74672986  0.09515224  0.04837695  1
  Se  Se128  1  0.72909012  0.07751060  0.55335352  1
  Se  Se129  1  0.74217530  0.41739782  0.05957584  1
  Se  Se130  1  0.74918808  0.42255646  0.55263221  1
  Se  Se131  1  0.75827280  0.74440324  0.05434560  1
  Se  Se132  1  0.74897985  0.74303808  0.55426387  1
  Se  Se133  1  0.24968033  0.24868596  0.05096654  1
  Se  Se134  1  0.25512014  0.25858015  0.55663653  1
  Se  Se135  1  0.24882419  0.57912526  0.05413492  1
  Se  Se136  1  0.25078775  0.58865818  0.56307152  1
  Se  Se137  1  0.24875100  0.91277489  0.05087580  1
  Se  Se138  1  0.26278923  0.92652802  0.56188779  1
  Se  Se139  1  0.58430907  0.26203164  0.05919453  1
  Se  Se140  1  0.57992433  0.25766193  0.55487530  1
  Se  Se141  1  0.59333014  0.58477764  0.06123684  1
  Se  Se142  1  0.57896213  0.57873988  0.55334447  1
  Se  Se143  1  0.59460423  0.92325211  0.04670104  1
  Se  Se144  1  0.57485105  0.90248963  0.54447035  1
  Se  Se145  1  0.91199792  0.25439178  0.05028459  1
  Se  Se146  1  0.90823305  0.24602370  0.55042871  1
  Se  Se147  1  0.91813802  0.59104583  0.06263756  1
  Se  Se148  1  0.91650330  0.58369390  0.55242986  1
  Se  Se149  1  0.91671594  0.91837357  0.05459515  1
  Se  Se150  1  0.90812528  0.91156632  0.55333558  1
  Se  Se151  1  0.07482113  0.25481114  0.43999386  1
  Se  Se152  1  0.08866980  0.24670207  0.94744579  1
  Se  Se153  1  0.07634341  0.59722317  0.44629728  1
  Se  Se154  1  0.08182562  0.58215648  0.94919521  1
  Se  Se155  1  0.07341416  0.91937645  0.44088833  1
  Se  Se156  1  0.08358687  0.91339233  0.94909608  1
  Se  Se157  1  0.42308144  0.24429561  0.44742004  1
  Se  Se158  1  0.41852944  0.25967641  0.94001940  1
  Se  Se159  1  0.41454239  0.57996504  0.44607116  1
  Se  Se160  1  0.41094113  0.59218742  0.93815406  1
  Se  Se161  1  0.41519912  0.91319104  0.44801816  1
  Se  Se162  1  0.41944639  0.91353262  0.94744183  1
  Se  Se163  1  0.74787898  0.25570624  0.45155649  1
  Se  Se164  1  0.75154732  0.25235897  0.94500254  1
  Se  Se165  1  0.75013181  0.58178736  0.44304787  1
  Se  Se166  1  0.74462403  0.58496664  0.93731870  1
  Se  Se167  1  0.74057528  0.91552763  0.45495352  1
  Se  Se168  1  0.75369487  0.91337171  0.95487328  1
  Se  Se169  1  0.25104045  0.08064655  0.43637221  1
  Se  Se170  1  0.25354480  0.08577139  0.94821834  1
  Se  Se171  1  0.25684250  0.40455878  0.44316542  1
  Se  Se172  1  0.25000695  0.42251061  0.94714212  1
  Se  Se173  1  0.25171993  0.74315266  0.44200498  1
  Se  Se174  1  0.24694393  0.75025375  0.94956190  1
  Se  Se175  1  0.59014184  0.08483208  0.45692302  1
  Se  Se176  1  0.59280466  0.07619700  0.93814487  1
  Se  Se177  1  0.58122450  0.42505987  0.44351856  1
  Se  Se178  1  0.59514532  0.42152883  0.93574538  1
  Se  Se179  1  0.57927824  0.74183617  0.44658097  1
  Se  Se180  1  0.58003063  0.74595077  0.94792760  1
  Se  Se181  1  0.91013516  0.08718032  0.44983212  1
  Se  Se182  1  0.91868038  0.08254005  0.94461027  1
  Se  Se183  1  0.91633699  0.42368185  0.45151854  1
  Se  Se184  1  0.92487919  0.40899387  0.93304388  1
  Se  Se185  1  0.90476745  0.75607688  0.44558259  1
  Se  Se186  1  0.91116713  0.74368310  0.94445736  1
  Se  Se187  1  0.25370762  0.24964075  0.29875561  1
  Se  Se188  1  0.25685825  0.25466801  0.80590741  1
  Se  Se189  1  0.25444906  0.58114153  0.30133279  1
  Se  Se190  1  0.25289750  0.58964751  0.80767866  1
  Se  Se191  1  0.24427343  0.90378380  0.30986170  1
  Se  Se192  1  0.24327305  0.91243167  0.81376988  1
  Se  Se193  1  0.58509994  0.25485684  0.30767939  1
  Se  Se194  1  0.59366626  0.25612013  0.79973809  1
  Se  Se195  1  0.58688824  0.58403044  0.30345288  1
  Se  Se196  1  0.58581952  0.58537011  0.79781840  1
  Se  Se197  1  0.58258430  0.90263690  0.31096390  1
  Se  Se198  1  0.58080760  0.90851294  0.81130541  1
  Se  Se199  1  0.90863734  0.25264923  0.31404295  1
  Se  Se200  1  0.91300416  0.23840029  0.80507161  1
  Se  Se201  1  0.92131662  0.59322090  0.30274417  1
  Se  Se202  1  0.89547231  0.56210349  0.79977292  1
  Se  Se203  1  0.90501838  0.92320046  0.31385113  1
  Se  Se204  1  0.90940574  0.90745438  0.80877066  1
  Se  Se205  1  0.08753997  0.09245505  0.29922778  1
  Se  Se206  1  0.08836151  0.08464070  0.80581105  1
  Se  Se207  1  0.08763560  0.42706475  0.31237992  1
  Se  Se208  1  0.09142614  0.42416937  0.81329375  1
  Se  Se209  1  0.08398005  0.74739808  0.30260501  1
  Se  Se210  1  0.07754735  0.74334408  0.80958131  1
  Se  Se211  1  0.43367223  0.07590504  0.31854596  1
  Se  Se212  1  0.43066908  0.09630447  0.80367419  1
  Se  Se213  1  0.41453042  0.41218287  0.30638136  1
  Se  Se214  1  0.41994137  0.42103445  0.80093246  1
  Se  Se215  1  0.41765416  0.74004042  0.30181380  1
  Se  Se216  1  0.41792197  0.75402780  0.80324230  1
  Se  Se217  1  0.74870593  0.09536804  0.31166474  1
  Se  Se218  1  0.75973503  0.08419151  0.80838841  1
  Se  Se219  1  0.75365331  0.41853685  0.30101566  1
  Se  Se220  1  0.75117908  0.40535610  0.78938711  1
  Se  Se221  1  0.74748040  0.75114194  0.30344706  1
  Se  Se222  1  0.74120692  0.74864420  0.80611204  1
  Se  Se223  1  0.24708459  0.08417614  0.18770080  1
  Se  Se224  1  0.25159708  0.09216948  0.69312800  1
  Se  Se225  1  0.25083457  0.41120780  0.19481024  1
  Se  Se226  1  0.25545071  0.41999785  0.70256155  1
  Se  Se227  1  0.25763799  0.74021939  0.19341454  1
  Se  Se228  1  0.25508431  0.75028877  0.70271921  1
  Se  Se229  1  0.57361237  0.09140110  0.19243608  1
  Se  Se230  1  0.58178216  0.09107213  0.68769435  1
  Se  Se231  1  0.58543863  0.41331103  0.20328466  1
  Se  Se232  1  0.58514516  0.41873942  0.69291131  1
  Se  Se233  1  0.59220125  0.74818832  0.19189253  1
  Se  Se234  1  0.58453369  0.74775055  0.69462739  1
  Se  Se235  1  0.89983527  0.09402807  0.19087992  1
  Se  Se236  1  0.90213596  0.08507687  0.69098764  1
  Se  Se237  1  0.90836346  0.42811835  0.19067888  1
  Se  Se238  1  0.91440713  0.41784122  0.68249865  1
  Se  Se239  1  0.92097408  0.75282396  0.20190002  1
  Se  Se240  1  0.91539301  0.74053089  0.69796606  1
  Se  Se241  1  0.08306033  0.24871384  0.18394187  1
  Se  Se242  1  0.09116120  0.24430086  0.69175526  1
  Se  Se243  1  0.08482637  0.58236249  0.19533902  1
  Se  Se244  1  0.08315429  0.58563228  0.70193703  1
  Se  Se245  1  0.09269252  0.90657831  0.19024109  1
  Se  Se246  1  0.09175913  0.89847154  0.69096095  1
  Se  Se247  1  0.41478836  0.24741055  0.20255757  1
  Se  Se248  1  0.41713417  0.26144385  0.69435837  1
  Se  Se249  1  0.42270010  0.57787915  0.19753386  1
  Se  Se250  1  0.41450203  0.59065524  0.69609385  1
  Se  Se251  1  0.42350340  0.90644649  0.19296952  1
  Se  Se252  1  0.43349173  0.92170986  0.68380956  1
  Se  Se253  1  0.74234778  0.25973671  0.19771688  1
  Se  Se254  1  0.75528997  0.24784077  0.69848068  1
  Se  Se255  1  0.75395521  0.58352143  0.20649588  1
  Se  Se256  1  0.73974558  0.59212331  0.69704871  1
  Se  Se257  1  0.75576601  0.91203113  0.18890540  1
  Se  Se258  1  0.75355618  0.90376659  0.68806850  1
