# generated using pymatgen
data_In86Cu29Se144
_symmetry_space_group_name_H-M   'P 1'
_cell_length_a   17.57851520
_cell_length_b   17.57951642
_cell_length_c   23.43547496
_cell_angle_alpha   89.99852510
_cell_angle_beta   90.00922060
_cell_angle_gamma   90.01724100
_symmetry_Int_Tables_number   1
_chemical_formula_structural   In86Cu29Se144
_chemical_formula_sum   'In86 Cu29 Se144'
_cell_volume   7242.07215052
_cell_formula_units_Z   1
loop_
 _symmetry_equiv_pos_site_id
 _symmetry_equiv_pos_as_xyz
  1  'x, y, z'
loop_
 _atom_site_type_symbol
 _atom_site_label
 _atom_site_symmetry_multiplicity
 _atom_site_fract_x
 _atom_site_fract_y
 _atom_site_fract_z
 _atom_site_occupancy
  In  In0  1  -0.01939417  0.17994378  0.14363046  1
  In  In1  1  0.00230923  0.18484833  0.60905511  1
  In  In2  1  -0.00936598  0.49742406  0.12833197  1
  In  In3  1  0.00365115  0.49186257  0.62562723  1
  In  In4  1  -0.01099569  0.84971743  0.13577574  1
  In  In5  1  -0.01373053  0.82688051  0.62274852  1
  In  In6  1  0.34998675  0.16833179  0.13719785  1
  In  In7  1  0.33588932  0.17217451  0.61571400  1
  In  In8  1  0.33109989  0.50232015  0.13186110  1
  In  In9  1  0.34147059  0.52356534  0.60601207  1
  In  In10  1  0.33661056  0.82551638  0.12714846  1
  In  In11  1  0.32086991  0.80936399  0.60606659  1
  In  In12  1  0.66463230  0.16479267  0.12234854  1
  In  In13  1  0.65827825  0.15644863  0.61705825  1
  In  In14  1  0.67219559  0.48634298  0.12447485  1
  In  In15  1  0.67075417  0.51621543  0.62728553  1
  In  In16  1  0.69108709  0.85528568  0.09506229  1
  In  In17  1  0.66939231  0.83797949  0.62667004  1
  In  In18  1  0.15419808  0.01293875  0.38931372  1
  In  In19  1  0.15719989  -0.00369274  0.87280840  1
  In  In20  1  0.16068271  0.32610747  0.37422139  1
  In  In21  1  0.16565132  0.34840971  0.86851606  1
  In  In22  1  0.18501157  0.65485120  0.40263154  1
  In  In23  1  0.16439165  0.65981260  0.85650551  1
  In  In24  1  0.51127275  -0.00708144  0.37616461  1
  In  In25  1  0.53298351  -0.02993954  0.90236697  1
  In  In26  1  0.49514321  0.34052133  0.38550337  1
  In  In27  1  0.49946909  0.32443004  0.87871517  1
  In  In28  1  0.49875674  0.66221994  0.38697781  1
  In  In29  1  0.51906149  0.68679409  0.84954204  1
  In  In30  1  0.83131367  0.00138772  0.36667278  1
  In  In31  1  0.81335436  0.00653194  0.88881957  1
  In  In32  1  0.84113780  0.29551041  0.38275637  1
  In  In33  1  0.84071088  0.32523366  0.87671056  1
  In  In34  1  0.84963932  0.66607597  0.38084006  1
  In  In35  1  0.83324194  0.66550456  0.87727832  1
  In  In36  1  -0.00421615  0.16500828  0.37131736  1
  In  In37  1  -0.01909141  0.15986554  0.86935277  1
  In  In38  1  0.01005358  0.49395998  0.37908051  1
  In  In39  1  -0.00493419  0.49132655  0.86578758  1
  In  In40  1  -0.01053332  0.84276065  0.38619844  1
  In  In41  1  -0.00056855  0.82003080  0.86988041  1
  In  In42  1  0.32224245  0.17838697  0.38081854  1
  In  In43  1  0.34895932  0.17446929  0.87100165  1
  In  In44  1  0.35256906  0.48169457  0.39210150  1
  In  In45  1  0.32570857  0.50068282  0.86942422  1
  In  In46  1  0.34350486  0.82237821  0.39138580  1
  In  In47  1  0.34537920  0.83346728  0.86812278  1
  In  In48  1  0.68528796  0.15156271  0.38802337  1
  In  In49  1  0.67321340  0.15737640  0.88210464  1
  In  In50  1  0.65262686  0.48694819  0.37822727  1
  In  In51  1  0.66881944  0.52344688  0.87494904  1
  In  In52  1  0.65988901  0.84229256  0.37660049  1
  In  In53  1  0.66551531  0.82593230  0.87838691  1
  In  In54  1  0.14587467  -0.00733756  0.13381175  1
  In  In55  1  0.17006834  0.00747422  0.61339521  1
  In  In56  1  0.16865068  0.33053049  0.13930799  1
  In  In57  1  0.15385175  0.33810861  0.61018170  1
  In  In58  1  0.17642899  0.66795592  0.12652898  1
  In  In59  1  0.16058602  0.66185592  0.62075714  1
  In  In60  1  0.51999979  0.01428947  0.11242794  1
  In  In61  1  0.50961471  0.00211125  0.62184565  1
  In  In62  1  0.51067444  0.32540814  0.13675766  1
  In  In63  1  0.49795535  0.32329115  0.61031221  1
  In  In64  1  0.50139578  0.67890702  0.11952392  1
  In  In65  1  0.50366141  0.67378706  0.62249176  1
  In  In66  1  0.83179275  0.00383010  0.12430084  1
  In  In67  1  0.82587752  -0.00474507  0.62323068  1
  In  In68  1  0.83671724  0.33250713  0.12078996  1
  In  In69  1  0.84434337  0.33564644  0.61860266  1
  In  In70  1  0.82305837  0.66338647  0.11107273  1
  In  In71  1  0.82331007  0.67862161  0.63608548  1
  In  In72  1  0.16228640  0.49897992  -0.00015009  1
  In  In73  1  0.16678770  0.83023026  0.00507213  1
  In  In74  1  0.00882056  0.67284857  0.25369827  1
  In  In75  1  0.32974909  -0.00093829  0.25806543  1
  In  In76  1  0.82786650  0.49910097  0.49998542  1
  In  In77  1  0.66294792  0.67021833  0.25433877  1
  In  In78  1  0.66879801  0.32668758  0.25849210  1
  In  In79  1  0.50336480  0.50296254  -0.00383143  1
  In  In80  1  0.16646450  0.16459356  -0.00166045  1
  In  In81  1  0.33918227  0.66425068  0.25983058  1
  In  In82  1  0.34485902  -0.00085881  0.74452639  1
  In  In83  1  -0.00662950  -0.00266512  0.74490497  1
  In  In84  1  0.33030702  0.33706193  0.73512928  1
  In  In85  1  0.67291666  0.34203150  0.74286549  1
  Cu  Cu86  1  -0.00519170  0.00272416  0.50015238  1
  Cu  Cu87  1  0.50965217  0.84490966  0.24644189  1
  Cu  Cu88  1  0.66934317  0.67248576  0.50438972  1
  Cu  Cu89  1  0.34564316  0.00283417  0.49862927  1
  Cu  Cu90  1  0.16491578  0.50432744  0.74102859  1
  Cu  Cu91  1  0.82790674  0.83542634  0.24660660  1
  Cu  Cu92  1  0.51310975  0.15631659  0.75179851  1
  Cu  Cu93  1  0.83186442  0.48909303  0.24991038  1
  Cu  Cu94  1  0.83845255  0.50561392  0.75001202  1
  Cu  Cu95  1  -0.00588719  0.67288179  0.50655899  1
  Cu  Cu96  1  0.50191123  0.16944508  0.25428099  1
  Cu  Cu97  1  0.34500357  0.32366449  0.00651714  1
  Cu  Cu98  1  -0.00362500  0.32402523  -0.00133172  1
  Cu  Cu99  1  0.49168061  0.50117549  0.74095534  1
  Cu  Cu100  1  0.34333669  0.67316416  -0.01157406  1
  Cu  Cu101  1  0.16232069  0.16460479  0.25871265  1
  Cu  Cu102  1  0.67209821  -0.00244814  0.49910983  1
  Cu  Cu103  1  0.17063734  0.82919788  0.73802706  1
  Cu  Cu104  1  0.83470540  0.16841366  0.75011129  1
  Cu  Cu105  1  0.67423382  0.33083127  0.00093743  1
  Cu  Cu106  1  0.82712777  0.83700399  0.75394425  1
  Cu  Cu107  1  0.50330022  0.83419401  0.74592399  1
  Cu  Cu108  1  0.16001373  0.17867064  0.73779788  1
  Cu  Cu109  1  0.16260817  0.83414674  0.27205548  1
  Cu  Cu110  1  -0.00607102  0.66865330  -0.00202027  1
  Cu  Cu111  1  0.17237276  0.48977396  0.25732292  1
  Cu  Cu112  1  0.33574736  0.00566116  0.00341308  1
  Cu  Cu113  1  -0.01281858  0.00105005  0.00619052  1
  Cu  Cu114  1  0.32094360  0.33141449  0.49821750  1
  Se  Se115  1  0.07405543  0.08160836  0.06089199  1
  Se  Se116  1  0.08139828  0.08781376  0.54914619  1
  Se  Se117  1  0.07989816  0.40258053  0.06018571  1
  Se  Se118  1  0.06664439  0.41815041  0.54390109  1
  Se  Se119  1  0.07247627  0.74357126  0.06630309  1
  Se  Se120  1  0.08117028  0.75591472  0.55667883  1
  Se  Se121  1  0.41504509  0.09053070  0.05759530  1
  Se  Se122  1  0.42503545  0.08696885  0.55523195  1
  Se  Se123  1  0.41774349  0.41412934  0.06348617  1
  Se  Se124  1  0.40705268  0.41112873  0.55283457  1
  Se  Se125  1  0.41585022  0.75604831  0.04941401  1
  Se  Se126  1  0.42858368  0.75219864  0.54683451  1
  Se  Se127  1  0.73989484  0.07555294  0.05571131  1
  Se  Se128  1  0.75402674  0.08328087  0.55152644  1
  Se  Se129  1  0.75715007  0.41743997  0.05115842  1
  Se  Se130  1  0.73730015  0.41307449  0.56221174  1
  Se  Se131  1  0.74396448  0.74034387  0.04068590  1
  Se  Se132  1  0.75331999  0.75430769  0.55711605  1
  Se  Se133  1  0.25497306  0.25135318  0.06416503  1
  Se  Se134  1  0.24100811  0.24546425  0.55173872  1
  Se  Se135  1  0.26479624  0.59279605  0.05123531  1
  Se  Se136  1  0.23128358  0.57711894  0.54652047  1
  Se  Se137  1  0.25305245  0.92821211  0.06518834  1
  Se  Se138  1  0.25866221  0.92329310  0.55219203  1
  Se  Se139  1  0.58512825  0.25732032  0.05712718  1
  Se  Se140  1  0.58747565  0.24598343  0.54716875  1
  Se  Se141  1  0.59294919  0.58543410  0.06055584  1
  Se  Se142  1  0.58568684  0.58558630  0.55397255  1
  Se  Se143  1  0.55931956  0.89540317  0.05705649  1
  Se  Se144  1  0.58780799  0.91509010  0.55287229  1
  Se  Se145  1  0.91705762  0.24163001  0.05490383  1
  Se  Se146  1  0.90213277  0.24692615  0.54309631  1
  Se  Se147  1  0.92030447  0.57967649  0.05424920  1
  Se  Se148  1  0.91074238  0.59080619  0.56490183  1
  Se  Se149  1  0.90959055  0.90917317  0.05516297  1
  Se  Se150  1  0.91395758  0.91838330  0.55485966  1
  Se  Se151  1  0.08886015  0.23364376  0.44079549  1
  Se  Se152  1  0.08037767  0.25480266  0.93310714  1
  Se  Se153  1  0.07158320  0.58597779  0.45170510  1
  Se  Se154  1  0.07875797  0.59144053  0.93752374  1
  Se  Se155  1  0.08230452  0.91548459  0.45364957  1
  Se  Se156  1  0.07135764  0.92151598  0.94630911  1
  Se  Se157  1  0.41318175  0.25024490  0.45004587  1
  Se  Se158  1  0.42538218  0.24153532  0.95167979  1
  Se  Se159  1  0.39177679  0.60288047  0.44694716  1
  Se  Se160  1  0.41759013  0.58849392  0.92938060  1
  Se  Se161  1  0.42808488  0.91668372  0.44838953  1
  Se  Se162  1  0.40781053  0.91568923  0.94676515  1
  Se  Se163  1  0.72653654  0.27008973  0.44701063  1
  Se  Se164  1  0.75501343  0.24761767  0.94577807  1
  Se  Se165  1  0.73973877  0.59143554  0.43699619  1
  Se  Se166  1  0.76073186  0.57668793  0.94843502  1
  Se  Se167  1  0.75363121  0.91786268  0.44074979  1
  Se  Se168  1  0.73146280  0.91918741  0.95065248  1
  Se  Se169  1  0.25546567  0.08376729  0.44979815  1
  Se  Se170  1  0.25764815  0.07530893  0.93513400  1
  Se  Se171  1  0.24011752  0.41522685  0.44341608  1
  Se  Se172  1  0.26315724  0.40517547  0.94693037  1
  Se  Se173  1  0.24533112  0.76272955  0.45952143  1
  Se  Se174  1  0.24782454  0.74445303  0.93339846  1
  Se  Se175  1  0.58386728  0.08014456  0.44812291  1
  Se  Se176  1  0.56401507  0.10162038  0.94265110  1
  Se  Se177  1  0.56608413  0.43255053  0.45522349  1
  Se  Se178  1  0.59576328  0.41043700  0.93699314  1
  Se  Se179  1  0.58695750  0.75137648  0.44535025  1
  Se  Se180  1  0.57301452  0.74231595  0.94039955  1
  Se  Se181  1  0.91363556  0.07937557  0.44030097  1
  Se  Se182  1  0.91130174  0.08648346  0.94868075  1
  Se  Se183  1  0.91418684  0.40936858  0.43840897  1
  Se  Se184  1  0.92259851  0.41429836  0.94332389  1
  Se  Se185  1  0.90905432  0.75583564  0.45508292  1
  Se  Se186  1  0.91480854  0.75545579  0.94547905  1
  Se  Se187  1  0.25030625  0.25182397  0.30206957  1
  Se  Se188  1  0.24611314  0.24676861  0.80443566  1
  Se  Se189  1  0.24492032  0.57691737  0.31609802  1
  Se  Se190  1  0.25653191  0.58097339  0.79308713  1
  Se  Se191  1  0.24962762  0.91216553  0.32662570  1
  Se  Se192  1  0.24223890  0.91248515  0.80273083  1
  Se  Se193  1  0.57875322  0.24333039  0.32107755  1
  Se  Se194  1  0.58705293  0.24883990  0.80607410  1
  Se  Se195  1  0.57165680  0.57833796  0.30950113  1
  Se  Se196  1  0.58308132  0.57655507  0.79385034  1
  Se  Se197  1  0.59477656  0.92635031  0.29866080  1
  Se  Se198  1  0.58260929  0.91346705  0.80789755  1
  Se  Se199  1  0.91595446  0.24489785  0.29828395  1
  Se  Se200  1  0.92005161  0.25507017  0.79805886  1
  Se  Se201  1  0.91534941  0.57378134  0.30561411  1
  Se  Se202  1  0.92019103  0.58919218  0.80519134  1
  Se  Se203  1  0.91651991  0.90949463  0.30353787  1
  Se  Se204  1  0.90774355  0.91807992  0.81515640  1
  Se  Se205  1  0.08113604  0.07477393  0.30562021  1
  Se  Se206  1  0.08909850  0.09324694  0.80156405  1
  Se  Se207  1  0.07889774  0.41150199  0.30359886  1
  Se  Se208  1  0.08388187  0.41815999  0.79433274  1
  Se  Se209  1  0.08952014  0.74603353  0.32916777  1
  Se  Se210  1  0.08329044  0.75209233  0.79468939  1
  Se  Se211  1  0.42021058  0.09057721  0.31541684  1
  Se  Se212  1  0.43164627  0.07894758  0.81218096  1
  Se  Se213  1  0.42241954  0.42011359  0.30881324  1
  Se  Se214  1  0.42349959  0.41641005  0.80551340  1
  Se  Se215  1  0.43378501  0.76231824  0.30889546  1
  Se  Se216  1  0.41050737  0.75076673  0.79119852  1
  Se  Se217  1  0.75111492  0.09159037  0.30224912  1
  Se  Se218  1  0.75386183  0.08623489  0.80588988  1
  Se  Se219  1  0.75910466  0.41786980  0.31806382  1
  Se  Se220  1  0.75707117  0.42475872  0.81165408  1
  Se  Se221  1  0.76112465  0.75279805  0.31328769  1
  Se  Se222  1  0.74940003  0.74783559  0.80717330  1
  Se  Se223  1  0.23996740  0.08750456  0.19201547  1
  Se  Se224  1  0.24724418  0.09368832  0.69025708  1
  Se  Se225  1  0.25949123  0.41354971  0.20111357  1
  Se  Se226  1  0.24444989  0.42743571  0.67652978  1
  Se  Se227  1  0.24094309  0.76024051  0.20402735  1
  Se  Se228  1  0.25197559  0.74112631  0.68930489  1
  Se  Se229  1  0.58044959  0.08879909  0.19607522  1
  Se  Se230  1  0.59393187  0.07484020  0.69650640  1
  Se  Se231  1  0.58139733  0.42730904  0.20111999  1
  Se  Se232  1  0.57084735  0.41933094  0.68274538  1
  Se  Se233  1  0.58698412  0.76218247  0.18749684  1
  Se  Se234  1  0.58890609  0.74988259  0.69461836  1
  Se  Se235  1  0.93888685  0.05578145  0.19068643  1
  Se  Se236  1  0.91515122  0.09459606  0.68447716  1
  Se  Se237  1  0.91728425  0.40875381  0.19667514  1
  Se  Se238  1  0.91300296  0.41721821  0.69551501  1
  Se  Se239  1  0.90485462  0.74595325  0.19113834  1
  Se  Se240  1  0.91503352  0.75529525  0.70359200  1
  Se  Se241  1  0.08114777  0.25129160  0.20501602  1
  Se  Se242  1  0.07671969  0.26072175  0.68718851  1
  Se  Se243  1  0.09730749  0.57386157  0.19333148  1
  Se  Se244  1  0.07528516  0.58608154  0.69317704  1
  Se  Se245  1  0.08093091  0.90959830  0.21104596  1
  Se  Se246  1  0.09104447  0.91582913  0.68410787  1
  Se  Se247  1  0.41783849  0.25906449  0.20815917  1
  Se  Se248  1  0.42997789  0.23722587  0.69329145  1
  Se  Se249  1  0.42928610  0.58445929  0.19121164  1
  Se  Se250  1  0.41405288  0.58930077  0.68889136  1
  Se  Se251  1  0.41847595  0.91914032  0.19013559  1
  Se  Se252  1  0.42022760  0.90443593  0.68043874  1
  Se  Se253  1  0.75588702  0.24411039  0.19151972  1
  Se  Se254  1  0.75486368  0.24377141  0.68561481  1
  Se  Se255  1  0.75600751  0.57757848  0.19406303  1
  Se  Se256  1  0.74776281  0.58736992  0.70400018  1
  Se  Se257  1  0.74646604  0.91235570  0.18796173  1
  Se  Se258  1  0.74801336  0.92199152  0.69968807  1
