# generated using pymatgen
data_In86Cu29Se144
_symmetry_space_group_name_H-M   'P 1'
_cell_length_a   17.58376495
_cell_length_b   17.58435479
_cell_length_c   23.43574869
_cell_angle_alpha   89.98048352
_cell_angle_beta   90.01258977
_cell_angle_gamma   89.97991531
_symmetry_Int_Tables_number   1
_chemical_formula_structural   In86Cu29Se144
_chemical_formula_sum   'In86 Cu29 Se144'
_cell_volume   7246.31279967
_cell_formula_units_Z   1
loop_
 _symmetry_equiv_pos_site_id
 _symmetry_equiv_pos_as_xyz
  1  'x, y, z'
loop_
 _atom_site_type_symbol
 _atom_site_label
 _atom_site_symmetry_multiplicity
 _atom_site_fract_x
 _atom_site_fract_y
 _atom_site_fract_z
 _atom_site_occupancy
  In  In0  1  -0.00083471  0.16806840  0.12107929  1
  In  In1  1  -0.01118701  0.17272604  0.62553795  1
  In  In2  1  0.00051464  0.49212122  0.13544961  1
  In  In3  1  0.01666874  0.50183933  0.62062061  1
  In  In4  1  0.01535905  0.82944242  0.13669076  1
  In  In5  1  0.00580672  0.82537913  0.62960452  1
  In  In6  1  0.34057535  0.17579259  0.11779107  1
  In  In7  1  0.33672453  0.17101211  0.63336208  1
  In  In8  1  0.34974251  0.49149488  0.14342296  1
  In  In9  1  0.32402602  0.49724002  0.62284756  1
  In  In10  1  0.32435757  0.82619971  0.12369278  1
  In  In11  1  0.33141728  0.83829090  0.61563585  1
  In  In12  1  0.66853971  0.16185530  0.12307186  1
  In  In13  1  0.67216515  0.16365993  0.62650549  1
  In  In14  1  0.67263173  0.49259749  0.14810386  1
  In  In15  1  0.66863953  0.50028074  0.62782000  1
  In  In16  1  0.66466218  0.84377448  0.12888257  1
  In  In17  1  0.65202757  0.83356397  0.62451281  1
  In  In18  1  0.15350302  -0.00403366  0.37032835  1
  In  In19  1  0.15385759  0.00860303  0.88273746  1
  In  In20  1  0.17523280  0.34763249  0.36779385  1
  In  In21  1  0.16626015  0.30084896  0.87310612  1
  In  In22  1  0.16398270  0.66814411  0.37378983  1
  In  In23  1  0.16461359  0.67891656  0.87872625  1
  In  In24  1  0.49296746  -0.00998860  0.37133786  1
  In  In25  1  0.49364162  0.00237631  0.88717975  1
  In  In26  1  0.50978271  0.34716892  0.35064905  1
  In  In27  1  0.49624470  0.32094161  0.86506747  1
  In  In28  1  0.50845789  0.67521579  0.36444850  1
  In  In29  1  0.50902329  0.66044620  0.88142235  1
  In  In30  1  0.84168561  0.00917843  0.37062004  1
  In  In31  1  0.85046448  0.00161480  0.87390006  1
  In  In32  1  0.82672859  0.32876249  0.36372824  1
  In  In33  1  0.82371549  0.33310116  0.87850441  1
  In  In34  1  0.83908309  0.66439027  0.35926510  1
  In  In35  1  0.83307648  0.66204331  0.86902931  1
  In  In36  1  -0.00822873  0.16003358  0.36829033  1
  In  In37  1  0.01613015  0.15457426  0.89435143  1
  In  In38  1  0.01263221  0.51365323  0.36230455  1
  In  In39  1  -0.00948976  0.50008772  0.87323803  1
  In  In40  1  0.00998350  0.83743308  0.36371678  1
  In  In41  1  0.00515302  0.84154511  0.87069448  1
  In  In42  1  0.33943019  0.17835082  0.36392861  1
  In  In43  1  0.33024920  0.16945209  0.87963409  1
  In  In44  1  0.32819781  0.49451122  0.36790788  1
  In  In45  1  0.34526471  0.49422243  0.87785306  1
  In  In46  1  0.33526544  0.82745247  0.37841619  1
  In  In47  1  0.32808073  0.83744650  0.88870137  1
  In  In48  1  0.67193966  0.17834136  0.36394285  1
  In  In49  1  0.65732820  0.17694453  0.88572398  1
  In  In50  1  0.67460006  0.50612716  0.35463505  1
  In  In51  1  0.67008325  0.49705120  0.87040827  1
  In  In52  1  0.65706522  0.82747137  0.36778706  1
  In  In53  1  0.66516381  0.81964158  0.87827237  1
  In  In54  1  0.15657518  -0.00891063  0.12416656  1
  In  In55  1  0.17069483  -0.01386882  0.62521788  1
  In  In56  1  0.17087762  0.32426617  0.12372732  1
  In  In57  1  0.16511922  0.34136524  0.62431690  1
  In  In58  1  0.16459373  0.67797411  0.13651678  1
  In  In59  1  0.16269518  0.66248889  0.61898950  1
  In  In60  1  0.51018038  0.00954928  0.11652758  1
  In  In61  1  0.50552223  -0.00217319  0.62396403  1
  In  In62  1  0.52008946  0.30870706  0.15115017  1
  In  In63  1  0.50064341  0.33283453  0.63516028  1
  In  In64  1  0.49255255  0.67159077  0.13720679  1
  In  In65  1  0.50057812  0.67816829  0.62490813  1
  In  In66  1  0.82571682  0.01053306  0.12940671  1
  In  In67  1  0.83217457  0.01525883  0.62310050  1
  In  In68  1  0.84904181  0.31580651  0.13770934  1
  In  In69  1  0.83591724  0.32050696  0.62189115  1
  In  In70  1  0.83529544  0.65659093  0.14293779  1
  In  In71  1  0.83349798  0.66635100  0.62813396  1
  In  In72  1  0.66649316  0.00122761  0.74707072  1
  In  In73  1  0.83037966  0.49373447  0.00772276  1
  In  In74  1  0.83442866  0.83572570  0.49141927  1
  In  In75  1  0.83581655  0.49897551  0.48211633  1
  In  In76  1  0.32900787  0.00182592  0.24982043  1
  In  In77  1  0.33376153  0.66344892  0.74973183  1
  In  In78  1  0.49975964  0.16557677  0.49921846  1
  In  In79  1  0.16635427  0.16286563  0.49593335  1
  In  In80  1  -0.00125090  0.33179372  0.75220832  1
  In  In81  1  0.32790896  0.00484491  0.75869261  1
  In  In82  1  0.50006721  0.49889098  0.48312034  1
  In  In83  1  0.83327367  0.83618477  0.00256424  1
  In  In84  1  0.50283146  0.49674120  0.01141175  1
  In  In85  1  0.17214363  0.50082685  0.01144987  1
  Cu  Cu86  1  0.33113934  0.67471141  0.01257541  1
  Cu  Cu87  1  0.33577566  0.33604058  0.49326507  1
  Cu  Cu88  1  0.16080168  0.16927229  0.24659172  1
  Cu  Cu89  1  0.49959811  0.82919493  0.75216107  1
  Cu  Cu90  1  0.00369327  0.67147367  0.00567102  1
  Cu  Cu91  1  0.67698584  0.32750436  0.49303646  1
  Cu  Cu92  1  0.15648186  0.83037692  0.75013230  1
  Cu  Cu93  1  0.66443664  0.00157811  0.50187949  1
  Cu  Cu94  1  0.83236860  0.16908380  0.75047588  1
  Cu  Cu95  1  0.65719910  0.67331733  0.49576432  1
  Cu  Cu96  1  0.33311391  0.33182747  -0.00023886  1
  Cu  Cu97  1  0.66220818  0.66983167  0.00686062  1
  Cu  Cu98  1  0.16429596  0.50351953  0.24793242  1
  Cu  Cu99  1  0.32715591  -0.00457037  0.49400503  1
  Cu  Cu100  1  0.16689035  0.49902021  0.74717605  1
  Cu  Cu101  1  0.50855816  0.49777685  0.75333127  1
  Cu  Cu102  1  0.66868279  0.00340283  0.00331780  1
  Cu  Cu103  1  0.66045250  0.32907203  0.00473809  1
  Cu  Cu104  1  0.00095869  -0.00185324  0.00409289  1
  Cu  Cu105  1  0.83391347  0.16484416  0.24640594  1
  Cu  Cu106  1  0.00507507  0.66455538  0.49680936  1
  Cu  Cu107  1  0.83673695  0.83976107  0.24836628  1
  Cu  Cu108  1  0.83461564  0.50375892  0.74780037  1
  Cu  Cu109  1  0.50057479  0.84222111  0.24733866  1
  Cu  Cu110  1  -0.00009682  -0.00216729  0.49479977  1
  Cu  Cu111  1  0.32839535  0.67096539  0.49930578  1
  Cu  Cu112  1  0.33318033  -0.00253510  0.00715157  1
  Cu  Cu113  1  0.83509705  0.82965587  0.75179805  1
  Cu  Cu114  1  0.00313262  0.33232537  0.49839013  1
  Se  Se115  1  0.08594211  0.08302160  0.05476689  1
  Se  Se116  1  0.07712288  0.07712074  0.55992080  1
  Se  Se117  1  0.07327090  0.40995266  0.05917521  1
  Se  Se118  1  0.08812167  0.41617729  0.54808501  1
  Se  Se119  1  0.08796275  0.75215139  0.05839527  1
  Se  Se120  1  0.08229090  0.75103434  0.55270689  1
  Se  Se121  1  0.41858877  0.08665705  0.05091218  1
  Se  Se122  1  0.40365802  0.07530249  0.55774798  1
  Se  Se123  1  0.41324205  0.40287714  0.06514004  1
  Se  Se124  1  0.41868799  0.41289178  0.55553472  1
  Se  Se125  1  0.42388108  0.75341349  0.05977812  1
  Se  Se126  1  0.41594883  0.75009097  0.55290326  1
  Se  Se127  1  0.75592602  0.08723056  0.05053304  1
  Se  Se128  1  0.74822789  0.08818024  0.55016230  1
  Se  Se129  1  0.73693206  0.40927245  0.06677354  1
  Se  Se130  1  0.75023827  0.41462484  0.55317943  1
  Se  Se131  1  0.75165291  0.74224005  0.06531308  1
  Se  Se132  1  0.74377906  0.74695429  0.55553811  1
  Se  Se133  1  0.24693019  0.24605744  0.04815545  1
  Se  Se134  1  0.25901851  0.25410694  0.55507853  1
  Se  Se135  1  0.26291143  0.58565847  0.07291272  1
  Se  Se136  1  0.25046539  0.58245252  0.55230239  1
  Se  Se137  1  0.24651434  0.91437644  0.05594885  1
  Se  Se138  1  0.24254646  0.91300463  0.54637005  1
  Se  Se139  1  0.57741696  0.24837217  0.06029165  1
  Se  Se140  1  0.59059700  0.25953915  0.55687720  1
  Se  Se141  1  0.59256789  0.58599049  0.07055846  1
  Se  Se142  1  0.58432076  0.58514757  0.55429120  1
  Se  Se143  1  0.58632422  0.91430603  0.05088130  1
  Se  Se144  1  0.57919252  0.91620749  0.55039747  1
  Se  Se145  1  0.91397858  0.25137368  0.05396712  1
  Se  Se146  1  0.91723679  0.24852077  0.54696952  1
  Se  Se147  1  0.92267366  0.59000322  0.06202827  1
  Se  Se148  1  0.91928681  0.58506205  0.55353588  1
  Se  Se149  1  0.92293144  0.91852777  0.06683453  1
  Se  Se150  1  0.91934091  0.92098416  0.55921999  1
  Se  Se151  1  0.08236641  0.25419737  0.43425148  1
  Se  Se152  1  0.07992100  0.25915092  0.95417028  1
  Se  Se153  1  0.08637863  0.57879851  0.44466525  1
  Se  Se154  1  0.07807406  0.58555834  0.94488789  1
  Se  Se155  1  0.08154843  0.91221073  0.44446485  1
  Se  Se156  1  0.08164284  0.91234362  0.94899344  1
  Se  Se157  1  0.42246901  0.26274183  0.43536313  1
  Se  Se158  1  0.41976999  0.25224549  0.94460376  1
  Se  Se159  1  0.40728290  0.59567154  0.43441650  1
  Se  Se160  1  0.40847355  0.59090125  0.95182734  1
  Se  Se161  1  0.41737665  0.91381883  0.44672700  1
  Se  Se162  1  0.41862864  0.91270819  0.95469067  1
  Se  Se163  1  0.75801315  0.24413746  0.44043736  1
  Se  Se164  1  0.75051231  0.25103637  0.95257450  1
  Se  Se165  1  0.73899236  0.59652072  0.43470787  1
  Se  Se166  1  0.74316711  0.58972256  0.94610830  1
  Se  Se167  1  0.74101313  0.92527857  0.43605092  1
  Se  Se168  1  0.74494819  0.92425696  0.93793068  1
  Se  Se169  1  0.25909082  0.08042950  0.43100862  1
  Se  Se170  1  0.25450853  0.07756132  0.94540101  1
  Se  Se171  1  0.24967599  0.42138880  0.44615812  1
  Se  Se172  1  0.25162621  0.41239814  0.94079276  1
  Se  Se173  1  0.24373106  0.75218638  0.44551547  1
  Se  Se174  1  0.24610369  0.74933066  0.95394811  1
  Se  Se175  1  0.58734608  0.07942667  0.43614931  1
  Se  Se176  1  0.58135305  0.08522349  0.95115433  1
  Se  Se177  1  0.59967909  0.40936865  0.43217828  1
  Se  Se178  1  0.58666463  0.41241406  0.94178714  1
  Se  Se179  1  0.57473567  0.75650024  0.44378803  1
  Se  Se180  1  0.57918854  0.75049893  0.95246013  1
  Se  Se181  1  0.91733740  0.08588147  0.44734314  1
  Se  Se182  1  0.91383288  0.08098291  0.95354181  1
  Se  Se183  1  0.92939174  0.40799330  0.42981866  1
  Se  Se184  1  0.92292323  0.40917583  0.94569035  1
  Se  Se185  1  0.92259694  0.74041966  0.43644014  1
  Se  Se186  1  0.92049505  0.74360080  0.94148264  1
  Se  Se187  1  0.24461528  0.25119459  0.30052682  1
  Se  Se188  1  0.26259852  0.25085723  0.80178398  1
  Se  Se189  1  0.24693256  0.58464244  0.30408076  1
  Se  Se190  1  0.24446776  0.57660358  0.81334172  1
  Se  Se191  1  0.24303901  0.90778016  0.30786451  1
  Se  Se192  1  0.23889023  0.90683813  0.81231112  1
  Se  Se193  1  0.57964435  0.24404300  0.29423710  1
  Se  Se194  1  0.60108081  0.25745895  0.80457254  1
  Se  Se195  1  0.56525703  0.57106321  0.29998553  1
  Se  Se196  1  0.58630794  0.58595135  0.80638370  1
  Se  Se197  1  0.58540077  0.92291448  0.30116036  1
  Se  Se198  1  0.57770504  0.91269331  0.81199312  1
  Se  Se199  1  0.91849324  0.24938654  0.29877712  1
  Se  Se200  1  0.91311696  0.24329483  0.81484354  1
  Se  Se201  1  0.90522249  0.56528158  0.29680463  1
  Se  Se202  1  0.92067077  0.58484952  0.79998589  1
  Se  Se203  1  0.92022882  0.92226131  0.30272516  1
  Se  Se204  1  0.91883075  0.91702771  0.79964999  1
  Se  Se205  1  0.08130114  0.08324309  0.30027420  1
  Se  Se206  1  0.07855296  0.08737416  0.80950608  1
  Se  Se207  1  0.08119450  0.41365040  0.29769906  1
  Se  Se208  1  0.09308587  0.41904196  0.81319863  1
  Se  Se209  1  0.06852517  0.73124088  0.30301299  1
  Se  Se210  1  0.07755348  0.74452239  0.80444299  1
  Se  Se211  1  0.42868875  0.09162847  0.30163463  1
  Se  Se212  1  0.42844975  0.08978910  0.81006500  1
  Se  Se213  1  0.39604241  0.40351407  0.29795696  1
  Se  Se214  1  0.41875866  0.41763258  0.80280435  1
  Se  Se215  1  0.41811618  0.75924105  0.30204960  1
  Se  Se216  1  0.41770121  0.75389724  0.81494333  1
  Se  Se217  1  0.75127330  0.08292825  0.30229066  1
  Se  Se218  1  0.75374762  0.08713399  0.81201411  1
  Se  Se219  1  0.74975225  0.41191947  0.29387260  1
  Se  Se220  1  0.75620879  0.41755437  0.80247322  1
  Se  Se221  1  0.75239038  0.75622483  0.30183761  1
  Se  Se222  1  0.74899028  0.74903876  0.80434772  1
  Se  Se223  1  0.24360150  0.09119296  0.18563800  1
  Se  Se224  1  0.23836856  0.08790152  0.69274045  1
  Se  Se225  1  0.24198988  0.41617613  0.19366459  1
  Se  Se226  1  0.25121573  0.41471323  0.69665053  1
  Se  Se227  1  0.26280760  0.74413847  0.20214331  1
  Se  Se228  1  0.24642556  0.75801007  0.69088815  1
  Se  Se229  1  0.59483250  0.07152385  0.19218915  1
  Se  Se230  1  0.57038951  0.09455414  0.69420463  1
  Se  Se231  1  0.56399350  0.42828111  0.20426538  1
  Se  Se232  1  0.59059670  0.41592976  0.69710955  1
  Se  Se233  1  0.58543470  0.75674205  0.19702843  1
  Se  Se234  1  0.58507557  0.74766955  0.69988050  1
  Se  Se235  1  0.92132208  0.08376189  0.19397095  1
  Se  Se236  1  0.91612233  0.08550407  0.69754243  1
  Se  Se237  1  0.89019993  0.43581093  0.19357529  1
  Se  Se238  1  0.91436485  0.42370512  0.68522649  1
  Se  Se239  1  0.91939726  0.75211020  0.19906781  1
  Se  Se240  1  0.91750171  0.74630972  0.69623146  1
  Se  Se241  1  0.07809203  0.25343049  0.19285578  1
  Se  Se242  1  0.09019468  0.24424789  0.69077269  1
  Se  Se243  1  0.07890637  0.58681019  0.19672905  1
  Se  Se244  1  0.08575717  0.58560246  0.69568631  1
  Se  Se245  1  0.08818534  0.91925734  0.20487887  1
  Se  Se246  1  0.07975453  0.91910424  0.69639318  1
  Se  Se247  1  0.40109284  0.25247245  0.19925132  1
  Se  Se248  1  0.41505931  0.25332137  0.70034488  1
  Se  Se249  1  0.41850209  0.58686998  0.20817943  1
  Se  Se250  1  0.42651292  0.57396032  0.68962993  1
  Se  Se251  1  0.41978487  0.91877606  0.18513508  1
  Se  Se252  1  0.41865151  0.91140010  0.69438100  1
  Se  Se253  1  0.74511040  0.24707568  0.19634906  1
  Se  Se254  1  0.75016121  0.25105515  0.69525101  1
  Se  Se255  1  0.73120347  0.60160149  0.20682453  1
  Se  Se256  1  0.74805471  0.58616128  0.69554778  1
  Se  Se257  1  0.74996742  0.92208385  0.19802317  1
  Se  Se258  1  0.75744563  0.90867915  0.68706512  1
