# generated using pymatgen
data_In86Cu29Se144
_symmetry_space_group_name_H-M   'P 1'
_cell_length_a   17.58156216
_cell_length_b   17.58852063
_cell_length_c   23.42857192
_cell_angle_alpha   89.98634553
_cell_angle_beta   89.99790214
_cell_angle_gamma   89.97817193
_symmetry_Int_Tables_number   1
_chemical_formula_structural   In86Cu29Se144
_chemical_formula_sum   'In86 Cu29 Se144'
_cell_volume   7244.90251318
_cell_formula_units_Z   1
loop_
 _symmetry_equiv_pos_site_id
 _symmetry_equiv_pos_as_xyz
  1  'x, y, z'
loop_
 _atom_site_type_symbol
 _atom_site_label
 _atom_site_symmetry_multiplicity
 _atom_site_fract_x
 _atom_site_fract_y
 _atom_site_fract_z
 _atom_site_occupancy
  In  In0  1  -0.00557548  0.17341532  0.13341604  1
  In  In1  1  -0.00214159  0.16214826  0.62191865  1
  In  In2  1  0.00398483  0.49465997  0.12549344  1
  In  In3  1  -0.00608031  0.49545902  0.60772192  1
  In  In4  1  0.00510309  0.83045836  0.14560975  1
  In  In5  1  0.01577329  0.83758210  0.61830749  1
  In  In6  1  0.34274269  0.16729876  0.14608487  1
  In  In7  1  0.33197189  0.16026541  0.61293085  1
  In  In8  1  0.31882030  0.50281140  0.13401872  1
  In  In9  1  0.32659262  0.50894530  0.62538969  1
  In  In10  1  0.33924448  0.82788985  0.15581065  1
  In  In11  1  0.32316766  0.82654026  0.61791347  1
  In  In12  1  0.66901349  0.16189850  0.12193181  1
  In  In13  1  0.66592865  0.16788062  0.61249919  1
  In  In14  1  0.68302398  0.50341978  0.12186139  1
  In  In15  1  0.67816050  0.50085197  0.62603817  1
  In  In16  1  0.66432590  0.83276897  0.13754155  1
  In  In17  1  0.65525874  0.82901932  0.62667021  1
  In  In18  1  0.16650035  0.00109848  0.37727567  1
  In  In19  1  0.16165761  0.01346829  0.87424308  1
  In  In20  1  0.15771695  0.33298505  0.38339186  1
  In  In21  1  0.16685155  0.34454787  0.87743879  1
  In  In22  1  0.16306960  0.66803347  0.37045843  1
  In  In23  1  0.16022401  0.65288604  0.87329091  1
  In  In24  1  0.50525686  0.01252559  0.35451253  1
  In  In25  1  0.50836904  0.00091805  0.88129772  1
  In  In26  1  0.48534012  0.32293763  0.36180836  1
  In  In27  1  0.49050331  0.32566127  0.88390802  1
  In  In28  1  0.49810824  0.67765926  0.35817918  1
  In  In29  1  0.50247513  0.66789962  0.87343811  1
  In  In30  1  0.85061910  0.01987403  0.36865259  1
  In  In31  1  0.83789881  -0.00202523  0.87402448  1
  In  In32  1  0.85123084  0.32288825  0.39368464  1
  In  In33  1  0.84618397  0.32117974  0.88747801  1
  In  In34  1  0.83241798  0.65849099  0.37557634  1
  In  In35  1  0.82269537  0.65712840  0.87594387  1
  In  In36  1  0.00287662  0.17372953  0.38634031  1
  In  In37  1  -0.00724003  0.16113466  0.86814792  1
  In  In38  1  -0.00361656  0.49664754  0.37975423  1
  In  In39  1  0.00762060  0.48862308  0.88702632  1
  In  In40  1  0.02733522  0.85425557  0.35702143  1
  In  In41  1  -0.00849489  0.84393371  0.87459834  1
  In  In42  1  0.33290531  0.16402790  0.37199255  1
  In  In43  1  0.33097778  0.17274157  0.88307305  1
  In  In44  1  0.31763829  0.49193060  0.36526547  1
  In  In45  1  0.32052129  0.50224549  0.87642255  1
  In  In46  1  0.31088758  0.82220525  0.35408652  1
  In  In47  1  0.34482547  0.82678779  0.87775141  1
  In  In48  1  0.67200941  0.16157064  0.37222631  1
  In  In49  1  0.66573577  0.16636470  0.88314386  1
  In  In50  1  0.67231230  0.50924567  0.37157309  1
  In  In51  1  0.67914848  0.51431532  0.87718696  1
  In  In52  1  0.65940245  0.83283924  0.35970425  1
  In  In53  1  0.67792135  0.82738867  0.87680187  1
  In  In54  1  0.16740357  -0.00273012  0.14580892  1
  In  In55  1  0.15928014  -0.00785777  0.60766785  1
  In  In56  1  0.15128130  0.34377796  0.13594966  1
  In  In57  1  0.13299763  0.30684719  0.59490589  1
  In  In58  1  0.17398372  0.65935511  0.13559570  1
  In  In59  1  0.17238648  0.66794913  0.61452940  1
  In  In60  1  0.48988909  0.02072425  0.15120175  1
  In  In61  1  0.49262948  -0.00402696  0.61581526  1
  In  In62  1  0.50327145  0.31549368  0.13309835  1
  In  In63  1  0.50352241  0.32139831  0.61999836  1
  In  In64  1  0.50211048  0.67006174  0.13356559  1
  In  In65  1  0.49638234  0.66488153  0.62927275  1
  In  In66  1  0.83023625  0.00443697  0.13422064  1
  In  In67  1  0.83933666  0.01594402  0.61519080  1
  In  In68  1  0.85628522  0.33620024  0.11346168  1
  In  In69  1  0.84770348  0.34161067  0.60439947  1
  In  In70  1  0.83468742  0.66291550  0.13178905  1
  In  In71  1  0.83276500  0.65684870  0.62518693  1
  In  In72  1  0.66976417  -0.00440261  0.75340670  1
  In  In73  1  0.17415092  0.83158174  0.01813606  1
  In  In74  1  0.32779178  -0.00533268  0.74202910  1
  In  In75  1  0.16144570  0.17429982  0.01063068  1
  In  In76  1  0.83818905  0.83527051  0.48911076  1
  In  In77  1  0.32465174  0.33877545  0.74983635  1
  In  In78  1  0.83616732  0.83311736  0.00391646  1
  In  In79  1  0.67713798  0.33921034  0.24255059  1
  In  In80  1  0.49582686  0.49620484  0.48893640  1
  In  In81  1  0.66865681  0.33519758  0.74874169  1
  In  In82  1  0.50473196  0.83509801  0.01118937  1
  In  In83  1  0.00178312  0.66813346  0.74655453  1
  In  In84  1  0.50414281  0.49249912  0.00422366  1
  In  In85  1  0.49198637  0.83992621  0.47823147  1
  Cu  Cu86  1  0.16298737  0.49850006  0.74799899  1
  Cu  Cu87  1  0.49863401  0.81267385  0.75041031  1
  Cu  Cu88  1  0.16157839  0.49906740  0.25638114  1
  Cu  Cu89  1  0.49729568  0.50691417  0.24857843  1
  Cu  Cu90  1  0.66067149  0.32791106  0.49465541  1
  Cu  Cu91  1  0.15115009  0.16993283  0.74287637  1
  Cu  Cu92  1  0.83294095  0.83644807  0.75005617  1
  Cu  Cu93  1  0.83281318  0.82672012  0.25700598  1
  Cu  Cu94  1  0.84055479  0.16861865  0.25376255  1
  Cu  Cu95  1  0.66981780  0.32786534  0.00600256  1
  Cu  Cu96  1  0.33297410  0.66845080  0.48892487  1
  Cu  Cu97  1  0.83973832  0.49471182  0.24985510  1
  Cu  Cu98  1  0.00169865  -0.00226812  0.00211189  1
  Cu  Cu99  1  0.00598909  0.67109945  0.49297219  1
  Cu  Cu100  1  -0.00206522  0.65750750  0.00566681  1
  Cu  Cu101  1  0.50028247  0.50612909  0.75161840  1
  Cu  Cu102  1  0.32852993  0.66384662  0.00717308  1
  Cu  Cu103  1  0.84031384  0.17779348  0.74410581  1
  Cu  Cu104  1  0.49768067  0.15795971  0.74894296  1
  Cu  Cu105  1  0.33566226  0.33241502  0.49067878  1
  Cu  Cu106  1  0.33508449  0.32795109  0.00854851  1
  Cu  Cu107  1  0.34019154  0.00902812  0.01881735  1
  Cu  Cu108  1  0.16347322  0.17092099  0.26045394  1
  Cu  Cu109  1  0.66465052  -0.00007600  0.48444952  1
  Cu  Cu110  1  0.83809481  0.49785093  0.74633004  1
  Cu  Cu111  1  0.66995061  0.66238790  0.49975726  1
  Cu  Cu112  1  0.33399319  0.00483518  0.48879027  1
  Cu  Cu113  1  0.17234103  0.83311735  0.74292231  1
  Cu  Cu114  1  0.66169862  0.01098167  0.01081739  1
  Se  Se115  1  0.08253879  0.07138763  0.06646787  1
  Se  Se116  1  0.10157436  0.10447990  0.55448652  1
  Se  Se117  1  0.08002466  0.40888242  0.05436643  1
  Se  Se118  1  0.09795708  0.43346446  0.54682149  1
  Se  Se119  1  0.07313787  0.74258060  0.06526429  1
  Se  Se120  1  0.08934861  0.75275202  0.54772163  1
  Se  Se121  1  0.42228227  0.09317645  0.06871619  1
  Se  Se122  1  0.42026724  0.08150182  0.54536310  1
  Se  Se123  1  0.41319854  0.41090327  0.06881667  1
  Se  Se124  1  0.41180028  0.40993784  0.55814215  1
  Se  Se125  1  0.40291602  0.74924542  0.06586002  1
  Se  Se126  1  0.41720740  0.74445676  0.54917698  1
  Se  Se127  1  0.76151225  0.08439266  0.05557265  1
  Se  Se128  1  0.74277727  0.07802224  0.54629230  1
  Se  Se129  1  0.75443945  0.41244673  0.05433480  1
  Se  Se130  1  0.73860550  0.41317386  0.55096981  1
  Se  Se131  1  0.74362289  0.74804229  0.06256249  1
  Se  Se132  1  0.74546672  0.74988214  0.55685145  1
  Se  Se133  1  0.25545588  0.25441643  0.07323719  1
  Se  Se134  1  0.25495420  0.25041092  0.54771898  1
  Se  Se135  1  0.24404709  0.57999562  0.05684687  1
  Se  Se136  1  0.25543810  0.58383392  0.54639293  1
  Se  Se137  1  0.26584089  0.92303142  0.07553828  1
  Se  Se138  1  0.25880888  0.91759920  0.54669662  1
  Se  Se139  1  0.58256668  0.24628544  0.05543547  1
  Se  Se140  1  0.57505587  0.24292708  0.54471866  1
  Se  Se141  1  0.58784104  0.59044750  0.05942847  1
  Se  Se142  1  0.58304891  0.58444584  0.55601822  1
  Se  Se143  1  0.58518653  0.93069500  0.07154645  1
  Se  Se144  1  0.58894123  0.91743975  0.54705836  1
  Se  Se145  1  0.92678963  0.23893843  0.04949364  1
  Se  Se146  1  0.90074924  0.22622778  0.55144269  1
  Se  Se147  1  0.91346401  0.57984516  0.06081470  1
  Se  Se148  1  0.91691882  0.59522309  0.54826745  1
  Se  Se149  1  0.92800461  0.91669858  0.06622335  1
  Se  Se150  1  0.92557021  0.92336354  0.55254527  1
  Se  Se151  1  0.06795167  0.26916339  0.45773993  1
  Se  Se152  1  0.07912604  0.25092226  0.93715974  1
  Se  Se153  1  0.08692280  0.58332535  0.44251426  1
  Se  Se154  1  0.08703594  0.58068472  0.95155727  1
  Se  Se155  1  0.08781566  0.91330605  0.44547129  1
  Se  Se156  1  0.08715500  0.91825160  0.94654978  1
  Se  Se157  1  0.41997633  0.24713547  0.44217942  1
  Se  Se158  1  0.41702262  0.24227522  0.95629772  1
  Se  Se159  1  0.41225592  0.59014320  0.42842680  1
  Se  Se160  1  0.41150258  0.58748472  0.94576952  1
  Se  Se161  1  0.40367925  0.92754505  0.41969203  1
  Se  Se162  1  0.40919977  0.92635685  0.95065734  1
  Se  Se163  1  0.74713099  0.24369057  0.44614884  1
  Se  Se164  1  0.75228502  0.24375472  0.95048030  1
  Se  Se165  1  0.75257223  0.57764037  0.44935508  1
  Se  Se166  1  0.74740296  0.59101590  0.95504294  1
  Se  Se167  1  0.74535552  0.92007260  0.42707787  1
  Se  Se168  1  0.73926812  0.92897848  0.94763191  1
  Se  Se169  1  0.24592057  0.09156176  0.44465648  1
  Se  Se170  1  0.25494971  0.07598738  0.95225930  1
  Se  Se171  1  0.24961086  0.41997055  0.44620328  1
  Se  Se172  1  0.25855663  0.40987061  0.94937979  1
  Se  Se173  1  0.24766882  0.75346042  0.43953607  1
  Se  Se174  1  0.25177237  0.74467091  0.94369355  1
  Se  Se175  1  0.57674077  0.08307874  0.43653733  1
  Se  Se176  1  0.57817105  0.08846958  0.95176868  1
  Se  Se177  1  0.58609712  0.40666390  0.42962874  1
  Se  Se178  1  0.59485896  0.40660610  0.93905555  1
  Se  Se179  1  0.59117742  0.73998544  0.43792399  1
  Se  Se180  1  0.58985473  0.74667402  0.94648617  1
  Se  Se181  1  0.91194529  0.09068141  0.45169123  1
  Se  Se182  1  0.92080360  0.07695453  0.94400249  1
  Se  Se183  1  0.90706322  0.43078380  0.45415426  1
  Se  Se184  1  0.89299086  0.43807184  0.94305820  1
  Se  Se185  1  0.93004604  0.75038258  0.42926109  1
  Se  Se186  1  0.92639940  0.74143464  0.94136436  1
  Se  Se187  1  0.24515583  0.25632183  0.31302712  1
  Se  Se188  1  0.23780922  0.23895622  0.80778412  1
  Se  Se189  1  0.24948800  0.58867621  0.29924605  1
  Se  Se190  1  0.24765592  0.58239818  0.80056821  1
  Se  Se191  1  0.24936039  0.93310907  0.29952185  1
  Se  Se192  1  0.24480947  0.90957842  0.81369977  1
  Se  Se193  1  0.58813794  0.24827046  0.30126193  1
  Se  Se194  1  0.57374680  0.24253813  0.80813072  1
  Se  Se195  1  0.58512934  0.58357569  0.30167390  1
  Se  Se196  1  0.58602436  0.58297541  0.80744519  1
  Se  Se197  1  0.57195031  0.90926204  0.29248387  1
  Se  Se198  1  0.57372624  0.90133174  0.80898789  1
  Se  Se199  1  0.91897315  0.25176524  0.31130797  1
  Se  Se200  1  0.91908648  0.25847450  0.80311585  1
  Se  Se201  1  0.91800746  0.57958357  0.30595354  1
  Se  Se202  1  0.91695641  0.57748256  0.80876931  1
  Se  Se203  1  0.91393020  0.91762189  0.30397125  1
  Se  Se204  1  0.91711897  0.92154346  0.79923001  1
  Se  Se205  1  0.07859389  0.08926922  0.31392786  1
  Se  Se206  1  0.07822949  0.07968055  0.79891271  1
  Se  Se207  1  0.07898909  0.41476434  0.30934276  1
  Se  Se208  1  0.08226364  0.41888323  0.80551780  1
  Se  Se209  1  0.07781435  0.74174256  0.29808774  1
  Se  Se210  1  0.08997465  0.76096192  0.80927510  1
  Se  Se211  1  0.42091637  0.10320426  0.29468721  1
  Se  Se212  1  0.41589646  0.08250370  0.81101749  1
  Se  Se213  1  0.41544142  0.42188708  0.29990499  1
  Se  Se214  1  0.42357637  0.42291260  0.81130363  1
  Se  Se215  1  0.40712416  0.74832807  0.29133354  1
  Se  Se216  1  0.40870301  0.73810845  0.80441162  1
  Se  Se217  1  0.75211806  0.08283517  0.29934941  1
  Se  Se218  1  0.75804398  0.09774886  0.80562912  1
  Se  Se219  1  0.76325976  0.41496298  0.31382818  1
  Se  Se220  1  0.75942070  0.42066684  0.80973804  1
  Se  Se221  1  0.74835131  0.73990283  0.30520816  1
  Se  Se222  1  0.75519126  0.74968515  0.80354220  1
  Se  Se223  1  0.24891722  0.08784766  0.20798860  1
  Se  Se224  1  0.24042326  0.09150956  0.68816960  1
  Se  Se225  1  0.24628036  0.41367961  0.20374500  1
  Se  Se226  1  0.23631779  0.41750285  0.68380365  1
  Se  Se227  1  0.22221094  0.76743378  0.20137542  1
  Se  Se228  1  0.25086868  0.74492334  0.69206617  1
  Se  Se229  1  0.59961040  0.09022088  0.20174535  1
  Se  Se230  1  0.57812652  0.08103224  0.68820044  1
  Se  Se231  1  0.57864488  0.42886949  0.18634191  1
  Se  Se232  1  0.57229733  0.42335602  0.68874268  1
  Se  Se233  1  0.59172307  0.73928210  0.20217440  1
  Se  Se234  1  0.58916053  0.73805026  0.69727097  1
  Se  Se235  1  0.92168359  0.08075056  0.20110769  1
  Se  Se236  1  0.91547494  0.08255652  0.69524080  1
  Se  Se237  1  0.92081871  0.41085130  0.19577020  1
  Se  Se238  1  0.91500086  0.42073379  0.68394519  1
  Se  Se239  1  0.91556744  0.74268444  0.20347945  1
  Se  Se240  1  0.91310316  0.76083353  0.68558706  1
  Se  Se241  1  0.07978696  0.25024750  0.20369781  1
  Se  Se242  1  0.07426771  0.25752850  0.68935065  1
  Se  Se243  1  0.08047771  0.57933498  0.19769452  1
  Se  Se244  1  0.08621145  0.57804396  0.68395419  1
  Se  Se245  1  0.07544942  0.92411545  0.21032050  1
  Se  Se246  1  0.09160558  0.91978722  0.69127799  1
  Se  Se247  1  0.41392658  0.26422491  0.21048084  1
  Se  Se248  1  0.41649365  0.24163126  0.69302744  1
  Se  Se249  1  0.41060914  0.58662155  0.19484652  1
  Se  Se250  1  0.41294903  0.58240678  0.69661420  1
  Se  Se251  1  0.43863835  0.90733921  0.21088017  1
  Se  Se252  1  0.42576716  0.90003155  0.68956557  1
  Se  Se253  1  0.76769912  0.24731954  0.18569456  1
  Se  Se254  1  0.75349001  0.24919352  0.68326953  1
  Se  Se255  1  0.75140024  0.57906396  0.20143637  1
  Se  Se256  1  0.75019661  0.58440669  0.69975117  1
  Se  Se257  1  0.75481518  0.91320408  0.20076584  1
  Se  Se258  1  0.75619588  0.91343408  0.68410517  1
