# generated using pymatgen
data_In86Cu29Se144
_symmetry_space_group_name_H-M   'P 1'
_cell_length_a   17.57837391
_cell_length_b   17.57870473
_cell_length_c   23.43483480
_cell_angle_alpha   89.96630969
_cell_angle_beta   89.96901913
_cell_angle_gamma   89.98192948
_symmetry_Int_Tables_number   1
_chemical_formula_structural   In86Cu29Se144
_chemical_formula_sum   'In86 Cu29 Se144'
_cell_volume   7241.47950281
_cell_formula_units_Z   1
loop_
 _symmetry_equiv_pos_site_id
 _symmetry_equiv_pos_as_xyz
  1  'x, y, z'
loop_
 _atom_site_type_symbol
 _atom_site_label
 _atom_site_symmetry_multiplicity
 _atom_site_fract_x
 _atom_site_fract_y
 _atom_site_fract_z
 _atom_site_occupancy
  In  In0  1  -0.00015325  0.15128826  0.12884144  1
  In  In1  1  -0.01129933  0.17787939  0.62243064  1
  In  In2  1  0.00300896  0.51248776  0.11263864  1
  In  In3  1  0.01561618  0.49817312  0.62203605  1
  In  In4  1  -0.00573280  0.84199664  0.12946310  1
  In  In5  1  0.00064514  0.82307907  0.61339166  1
  In  In6  1  0.33967079  0.16560069  0.12175964  1
  In  In7  1  0.34834025  0.16717400  0.62439679  1
  In  In8  1  0.32486429  0.49481990  0.11259523  1
  In  In9  1  0.33251580  0.49754867  0.63083029  1
  In  In10  1  0.34127644  0.83717509  0.12747910  1
  In  In11  1  0.32547810  0.83454477  0.61845528  1
  In  In12  1  0.65630565  0.17624109  0.13352007  1
  In  In13  1  0.66570407  0.16631423  0.62540077  1
  In  In14  1  0.66056435  0.49769791  0.12113504  1
  In  In15  1  0.65021174  0.50002718  0.62228847  1
  In  In16  1  0.67296400  0.82652618  0.14055844  1
  In  In17  1  0.67907757  0.83456501  0.61719371  1
  In  In18  1  0.15628240  -0.00660912  0.36548435  1
  In  In19  1  0.18164754  0.00173750  0.88241034  1
  In  In20  1  0.18553024  0.33133785  0.37285263  1
  In  In21  1  0.17525393  0.32596971  0.88292488  1
  In  In22  1  0.15878616  0.66857704  0.39294295  1
  In  In23  1  0.17896597  0.64506275  0.88697912  1
  In  In24  1  0.51192262  0.01793072  0.36986768  1
  In  In25  1  0.51458277  -0.00456482  0.87760912  1
  In  In26  1  0.49943782  0.33449214  0.37720048  1
  In  In27  1  0.50168859  0.33229722  0.87620182  1
  In  In28  1  0.50171732  0.65051504  0.37804000  1
  In  In29  1  0.47958687  0.66279541  0.87303820  1
  In  In30  1  0.83313199  -0.00619808  0.37284001  1
  In  In31  1  0.81624625  0.00094501  0.88029961  1
  In  In32  1  0.80941429  0.33644185  0.37259986  1
  In  In33  1  0.83327871  0.34196023  0.87505640  1
  In  In34  1  0.82901038  0.70152718  0.37266231  1
  In  In35  1  0.84082345  0.66815149  0.89342788  1
  In  In36  1  -0.00268037  0.14740108  0.37140389  1
  In  In37  1  0.00664653  0.17886283  0.87965044  1
  In  In38  1  0.00664983  0.51352527  0.37429596  1
  In  In39  1  0.00154182  0.50121305  0.88837510  1
  In  In40  1  -0.01506373  0.84640892  0.38861069  1
  In  In41  1  -0.00473428  0.81227510  0.88216435  1
  In  In42  1  0.34576136  0.18047796  0.36751511  1
  In  In43  1  0.32471142  0.17367405  0.88675255  1
  In  In44  1  0.34433096  0.49972363  0.38408931  1
  In  In45  1  0.34223120  0.49756816  0.87796170  1
  In  In46  1  0.31681566  0.83040553  0.37534206  1
  In  In47  1  0.34600992  0.83394644  0.87117199  1
  In  In48  1  0.65976889  0.16607290  0.38054221  1
  In  In49  1  0.65791021  0.15863068  0.87182635  1
  In  In50  1  0.65810372  0.49056891  0.36639135  1
  In  In51  1  0.67500697  0.49218775  0.87906792  1
  In  In52  1  0.69151534  0.85430831  0.35134082  1
  In  In53  1  0.66779478  0.84530978  0.87694727  1
  In  In54  1  0.16455256  0.00294717  0.12858315  1
  In  In55  1  0.17794979  -0.00738927  0.61768407  1
  In  In56  1  0.17883922  0.34670906  0.12003412  1
  In  In57  1  0.17179504  0.34719939  0.62582505  1
  In  In58  1  0.17652973  0.65582233  0.11882302  1
  In  In59  1  0.18470046  0.67810231  0.60969320  1
  In  In60  1  0.49198920  0.01283940  0.13560314  1
  In  In61  1  0.50575580  0.01637328  0.61672133  1
  In  In62  1  0.50005448  0.33020308  0.12281652  1
  In  In63  1  0.49854761  0.33306701  0.62897606  1
  In  In64  1  0.50664740  0.66800940  0.12130104  1
  In  In65  1  0.49596548  0.64809366  0.61748622  1
  In  In66  1  0.83513638  -0.00968615  0.14210092  1
  In  In67  1  0.82059536  -0.00916824  0.61597891  1
  In  In68  1  0.81743304  0.33763479  0.12791459  1
  In  In69  1  0.82842687  0.31578129  0.61976646  1
  In  In70  1  0.82523326  0.66268157  0.11783946  1
  In  In71  1  0.82477056  0.67369308  0.61855318  1
  In  In72  1  0.50711766  0.83465019  0.49247422  1
  In  In73  1  0.50044889  0.83453867  0.00094326  1
  In  In74  1  0.00014007  0.33560865  0.75026651  1
  In  In75  1  0.33492117  0.66360863  0.25199690  1
  In  In76  1  0.16407844  0.16232428  0.49490111  1
  In  In77  1  -0.00184268  -0.00375595  0.75064267  1
  In  In78  1  -0.00383800  0.67256145  0.25162126  1
  In  In79  1  0.66371717  0.66798090  0.74812038  1
  In  In80  1  0.16080165  0.83450736  0.00755953  1
  In  In81  1  0.83737609  0.50633397  0.49581319  1
  In  In82  1  0.34475439  0.00222882  0.74950197  1
  In  In83  1  -0.00290272  0.33069379  0.24234627  1
  In  In84  1  0.00110236  0.66194327  0.75548558  1
  In  In85  1  0.83313887  0.16659624  0.00860098  1
  Cu  Cu86  1  0.16913042  0.82292853  0.74366900  1
  Cu  Cu87  1  -0.00003808  -0.00015444  0.00657485  1
  Cu  Cu88  1  0.49976374  0.83568068  0.24970559  1
  Cu  Cu89  1  0.33850901  0.33692716  0.50170774  1
  Cu  Cu90  1  0.17395049  0.17009594  0.75692850  1
  Cu  Cu91  1  0.66224033  0.66425687  0.00246756  1
  Cu  Cu92  1  0.83100656  0.49268349  0.75124000  1
  Cu  Cu93  1  0.65720090  0.33376672  0.49989784  1
  Cu  Cu94  1  0.82749512  0.16539332  0.25422583  1
  Cu  Cu95  1  0.49755394  0.49431777  0.75040044  1
  Cu  Cu96  1  0.66812395  0.67095894  0.49173502  1
  Cu  Cu97  1  0.33395263  0.00040024  0.49309880  1
  Cu  Cu98  1  -0.00496849  0.32970999  0.49618195  1
  Cu  Cu99  1  0.49756042  0.49045459  0.24782581  1
  Cu  Cu100  1  0.17708761  0.49948803  0.75453293  1
  Cu  Cu101  1  0.16120507  0.83736750  0.25107090  1
  Cu  Cu102  1  0.17574260  0.49712697  0.25092783  1
  Cu  Cu103  1  0.50420033  0.83086322  0.74775559  1
  Cu  Cu104  1  0.66324434  0.33341326  0.00160290  1
  Cu  Cu105  1  0.82483036  0.50729000  0.24516899  1
  Cu  Cu106  1  0.66435246  -0.00239876  0.00808202  1
  Cu  Cu107  1  0.81984178  0.16264838  0.74738336  1
  Cu  Cu108  1  0.82739640  0.83683684  0.74974344  1
  Cu  Cu109  1  0.33882379  0.33369115  -0.00060588  1
  Cu  Cu110  1  0.00659980  0.33483076  0.00385317  1
  Cu  Cu111  1  -0.00537752  -0.00486712  0.49798062  1
  Cu  Cu112  1  0.50104339  0.17208213  0.25115814  1
  Cu  Cu113  1  0.17681551  0.16553974  0.24852571  1
  Cu  Cu114  1  0.50267652  0.17208661  0.75060873  1
  Se  Se115  1  0.08587777  0.08398291  0.05435514  1
  Se  Se116  1  0.07311304  0.07617684  0.56100929  1
  Se  Se117  1  0.08947707  0.42368575  0.05214984  1
  Se  Se118  1  0.08109413  0.40680663  0.55048007  1
  Se  Se119  1  0.07268028  0.74242281  0.06604064  1
  Se  Se120  1  0.08974019  0.75087424  0.54700153  1
  Se  Se121  1  0.42793395  0.08591356  0.05457885  1
  Se  Se122  1  0.41370036  0.08498650  0.54695343  1
  Se  Se123  1  0.42211558  0.41680632  0.05263049  1
  Se  Se124  1  0.41857653  0.41866917  0.55978876  1
  Se  Se125  1  0.40557923  0.74179633  0.05551939  1
  Se  Se126  1  0.41702307  0.74747824  0.55535642  1
  Se  Se127  1  0.74449047  0.07823374  0.06925578  1
  Se  Se128  1  0.76342938  0.10020940  0.55852613  1
  Se  Se129  1  0.74914048  0.41775793  0.05129669  1
  Se  Se130  1  0.74548367  0.41478537  0.55652600  1
  Se  Se131  1  0.73801261  0.75344684  0.05677084  1
  Se  Se132  1  0.75399791  0.75356194  0.54274942  1
  Se  Se133  1  0.25462908  0.25322333  0.05554336  1
  Se  Se134  1  0.25363593  0.25207701  0.55772612  1
  Se  Se135  1  0.25146820  0.58393703  0.04320206  1
  Se  Se136  1  0.23067441  0.55523966  0.56292770  1
  Se  Se137  1  0.25867646  0.92393736  0.05877786  1
  Se  Se138  1  0.25080060  0.91412817  0.54282909  1
  Se  Se139  1  0.58322935  0.24570018  0.05293654  1
  Se  Se140  1  0.57925388  0.25033104  0.55847768  1
  Se  Se141  1  0.57666373  0.57920566  0.05034017  1
  Se  Se142  1  0.58809851  0.58487460  0.54480764  1
  Se  Se143  1  0.58465077  0.91770157  0.06920521  1
  Se  Se144  1  0.59416548  0.92707770  0.55284153  1
  Se  Se145  1  0.92497793  0.25910471  0.06724184  1
  Se  Se146  1  0.91011955  0.24459959  0.54387574  1
  Se  Se147  1  0.90864369  0.58318440  0.04922124  1
  Se  Se148  1  0.92575070  0.59074736  0.56141222  1
  Se  Se149  1  0.91182265  0.92409328  0.06002415  1
  Se  Se150  1  0.91333803  0.91063280  0.55291437  1
  Se  Se151  1  0.07667543  0.25362952  0.43248144  1
  Se  Se152  1  0.08892756  0.24801411  0.95353592  1
  Se  Se153  1  0.08975147  0.56663251  0.45358315  1
  Se  Se154  1  0.06167152  0.60940387  0.94603298  1
  Se  Se155  1  0.08824097  0.91965934  0.44703885  1
  Se  Se156  1  0.07383488  0.92229518  0.93904086  1
  Se  Se157  1  0.41811207  0.25043508  0.44818079  1
  Se  Se158  1  0.42261662  0.24847830  0.94770693  1
  Se  Se159  1  0.41230066  0.59261947  0.45260692  1
  Se  Se160  1  0.41439833  0.58486343  0.95041079  1
  Se  Se161  1  0.41470403  0.92241288  0.43188982  1
  Se  Se162  1  0.40937093  0.92888048  0.94358754  1
  Se  Se163  1  0.74466478  0.25282447  0.44849957  1
  Se  Se164  1  0.74658979  0.25147131  0.94207032  1
  Se  Se165  1  0.74772494  0.58838204  0.43051783  1
  Se  Se166  1  0.74752085  0.58175508  0.94901489  1
  Se  Se167  1  0.75554544  0.90487437  0.44125186  1
  Se  Se168  1  0.74811431  0.91509296  0.95443293  1
  Se  Se169  1  0.25480416  0.08092583  0.43082718  1
  Se  Se170  1  0.24789038  0.08618758  0.95446053  1
  Se  Se171  1  0.25233845  0.41561003  0.44715434  1
  Se  Se172  1  0.25300598  0.41745637  0.94650210  1
  Se  Se173  1  0.26049768  0.74144605  0.45047553  1
  Se  Se174  1  0.25485144  0.75547474  0.94063712  1
  Se  Se175  1  0.57714953  0.08791160  0.45193874  1
  Se  Se176  1  0.58699340  0.08087277  0.95039779  1
  Se  Se177  1  0.58033796  0.42226432  0.44592794  1
  Se  Se178  1  0.58305289  0.41754969  0.94552502  1
  Se  Se179  1  0.59488085  0.75129506  0.42708421  1
  Se  Se180  1  0.58625691  0.74270243  0.93608119  1
  Se  Se181  1  0.91314494  0.07975454  0.44528188  1
  Se  Se182  1  0.92237558  0.07961602  0.94128824  1
  Se  Se183  1  0.91959068  0.41012391  0.43279160  1
  Se  Se184  1  0.91741773  0.41065553  0.94943312  1
  Se  Se185  1  0.93757577  0.72699594  0.44204046  1
  Se  Se186  1  0.90401896  0.76610099  0.95909505  1
  Se  Se187  1  0.25756844  0.25512049  0.29629384  1
  Se  Se188  1  0.25671589  0.25319514  0.80756542  1
  Se  Se189  1  0.24282163  0.58161679  0.31567094  1
  Se  Se190  1  0.25914243  0.58392264  0.80737387  1
  Se  Se191  1  0.25112048  0.91786495  0.30043148  1
  Se  Se192  1  0.24481966  0.91104794  0.80310496  1
  Se  Se193  1  0.58378124  0.25269854  0.30838024  1
  Se  Se194  1  0.58750778  0.25299691  0.80513970  1
  Se  Se195  1  0.57755804  0.57884868  0.29943418  1
  Se  Se196  1  0.57786322  0.57782684  0.81026730  1
  Se  Se197  1  0.58030199  0.92353363  0.30040654  1
  Se  Se198  1  0.58534314  0.91506966  0.80069579  1
  Se  Se199  1  0.91041902  0.24880740  0.31140912  1
  Se  Se200  1  0.90680816  0.23934911  0.80617728  1
  Se  Se201  1  0.90351306  0.58082791  0.30956783  1
  Se  Se202  1  0.90525589  0.57425144  0.81306618  1
  Se  Se203  1  0.91865682  0.91141413  0.30536796  1
  Se  Se204  1  0.91049797  0.90808359  0.81409855  1
  Se  Se205  1  0.08504270  0.08531531  0.29603150  1
  Se  Se206  1  0.09054538  0.08732995  0.81082500  1
  Se  Se207  1  0.08717956  0.41853602  0.30631206  1
  Se  Se208  1  0.08808810  0.42410301  0.81292026  1
  Se  Se209  1  0.08953603  0.75445563  0.31395033  1
  Se  Se210  1  0.09656157  0.75003337  0.81268977  1
  Se  Se211  1  0.41593268  0.08512524  0.30088467  1
  Se  Se212  1  0.42586598  0.09105157  0.81474796  1
  Se  Se213  1  0.41328054  0.41685342  0.30806544  1
  Se  Se214  1  0.41607355  0.41152156  0.80587256  1
  Se  Se215  1  0.42261588  0.75482089  0.31242999  1
  Se  Se216  1  0.41552210  0.75017722  0.79670491  1
  Se  Se217  1  0.74675156  0.08523409  0.31169778  1
  Se  Se218  1  0.74337538  0.07617689  0.80324027  1
  Se  Se219  1  0.74452845  0.41643735  0.29405669  1
  Se  Se220  1  0.74581409  0.41063882  0.80198217  1
  Se  Se221  1  0.73526346  0.73606810  0.29420732  1
  Se  Se222  1  0.75664108  0.74999641  0.81222668  1
  Se  Se223  1  0.25664335  0.08190471  0.19243167  1
  Se  Se224  1  0.24495710  0.08812554  0.69100936  1
  Se  Se225  1  0.25990861  0.41907222  0.19554421  1
  Se  Se226  1  0.25507614  0.40967229  0.70310849  1
  Se  Se227  1  0.24069296  0.75462619  0.19165373  1
  Se  Se228  1  0.25774450  0.74568454  0.69188036  1
  Se  Se229  1  0.58612785  0.08422301  0.20305099  1
  Se  Se230  1  0.58131993  0.08446703  0.69642114  1
  Se  Se231  1  0.58421858  0.41181719  0.19287946  1
  Se  Se232  1  0.58537766  0.41531294  0.69788788  1
  Se  Se233  1  0.57656013  0.74432857  0.19918828  1
  Se  Se234  1  0.57806290  0.75325934  0.68124247  1
  Se  Se235  1  0.91594911  0.08428505  0.20383100  1
  Se  Se236  1  0.90937082  0.08703493  0.69096831  1
  Se  Se237  1  0.91305502  0.43186710  0.18716832  1
  Se  Se238  1  0.91107440  0.42110617  0.68513290  1
  Se  Se239  1  0.90191606  0.75517494  0.19176689  1
  Se  Se240  1  0.91015347  0.75455235  0.69352188  1
  Se  Se241  1  0.09512425  0.24487947  0.18662125  1
  Se  Se242  1  0.09157745  0.24233705  0.69176364  1
  Se  Se243  1  0.09100869  0.57815869  0.19463354  1
  Se  Se244  1  0.09534152  0.57936094  0.69497898  1
  Se  Se245  1  0.07970922  0.92120598  0.19712643  1
  Se  Se246  1  0.08972900  0.90762331  0.68827871  1
  Se  Se247  1  0.41700284  0.25074105  0.19405113  1
  Se  Se248  1  0.41359802  0.25129379  0.69971166  1
  Se  Se249  1  0.41939996  0.57473089  0.18742475  1
  Se  Se250  1  0.41887462  0.58255781  0.69755849  1
  Se  Se251  1  0.41322050  0.91908257  0.20045430  1
  Se  Se252  1  0.42751819  0.91251408  0.68344593  1
  Se  Se253  1  0.74855527  0.25204597  0.20079744  1
  Se  Se254  1  0.74393280  0.25445818  0.69701014  1
  Se  Se255  1  0.74119314  0.58568128  0.18922566  1
  Se  Se256  1  0.75620794  0.57561043  0.68905469  1
  Se  Se257  1  0.73798636  0.92392677  0.20707345  1
  Se  Se258  1  0.74523512  0.91731563  0.69496451  1
