# generated using pymatgen
data_In86Cu29Se144
_symmetry_space_group_name_H-M   'P 1'
_cell_length_a   17.57905840
_cell_length_b   17.57986152
_cell_length_c   23.43816734
_cell_angle_alpha   89.98170612
_cell_angle_beta   90.01229304
_cell_angle_gamma   89.98365282
_symmetry_Int_Tables_number   1
_chemical_formula_structural   In86Cu29Se144
_chemical_formula_sum   'In86 Cu29 Se144'
_cell_volume   7243.26975660
_cell_formula_units_Z   1
loop_
 _symmetry_equiv_pos_site_id
 _symmetry_equiv_pos_as_xyz
  1  'x, y, z'
loop_
 _atom_site_type_symbol
 _atom_site_label
 _atom_site_symmetry_multiplicity
 _atom_site_fract_x
 _atom_site_fract_y
 _atom_site_fract_z
 _atom_site_occupancy
  In  In0  1  0.00165477  0.17346391  0.13987485  1
  In  In1  1  0.00344277  0.16388976  0.62084609  1
  In  In2  1  -0.00419071  0.48910329  0.12024540  1
  In  In3  1  -0.01441900  0.48554784  0.60878900  1
  In  In4  1  0.00485475  0.82626498  0.12832668  1
  In  In5  1  0.00343633  0.85310942  0.61809850  1
  In  In6  1  0.31373982  0.17158119  0.15463863  1
  In  In7  1  0.32047520  0.15519867  0.61344477  1
  In  In8  1  0.32094932  0.51484603  0.13559642  1
  In  In9  1  0.32649342  0.49100067  0.61419123  1
  In  In10  1  0.33132374  0.83165208  0.12902762  1
  In  In11  1  0.34716541  0.83651618  0.61980439  1
  In  In12  1  0.65814455  0.15841558  0.13240646  1
  In  In13  1  0.67397696  0.17120954  0.61276134  1
  In  In14  1  0.67780528  0.49746911  0.12695440  1
  In  In15  1  0.67563228  0.51061934  0.61730482  1
  In  In16  1  0.66354535  0.84756697  0.12900325  1
  In  In17  1  0.66925149  0.83291701  0.62265526  1
  In  In18  1  0.16915310  0.01340057  0.36703619  1
  In  In19  1  0.16190961  -0.00040652  0.87392431  1
  In  In20  1  0.16628367  0.32802452  0.36793950  1
  In  In21  1  0.16005988  0.34173366  0.88053183  1
  In  In22  1  0.16106705  0.65188847  0.37976275  1
  In  In23  1  0.16975527  0.66499107  0.87918565  1
  In  In24  1  0.49966312  -0.00321824  0.38038297  1
  In  In25  1  0.48486717  0.00152378  0.87591783  1
  In  In26  1  0.49247018  0.34122197  0.38325832  1
  In  In27  1  0.49554863  0.32612107  0.87370402  1
  In  In28  1  0.49181872  0.67325686  0.37830953  1
  In  In29  1  0.51507041  0.66991827  0.87255592  1
  In  In30  1  0.83476795  0.00289265  0.37052938  1
  In  In31  1  0.83825973  -0.00579544  0.86898151  1
  In  In32  1  0.84165000  0.32917211  0.37640928  1
  In  In33  1  0.86447644  0.33862480  0.87141867  1
  In  In34  1  0.84647216  0.66897976  0.39245767  1
  In  In35  1  0.81891831  0.66770113  0.87139571  1
  In  In36  1  0.00032566  0.16353389  0.37057448  1
  In  In37  1  0.00061707  0.17006347  0.86204290  1
  In  In38  1  0.00869729  0.49890348  0.38496398  1
  In  In39  1  0.00442694  0.49224769  0.88143005  1
  In  In40  1  -0.01550146  0.85164688  0.37801319  1
  In  In41  1  0.00490654  0.84176516  0.87645435  1
  In  In42  1  0.32937960  0.16865156  0.37397947  1
  In  In43  1  0.34347165  0.16089478  0.87294427  1
  In  In44  1  0.32970228  0.49647460  0.36796327  1
  In  In45  1  0.32479049  0.48933730  0.87756508  1
  In  In46  1  0.34238391  0.84314055  0.36931029  1
  In  In47  1  0.32717154  0.84265283  0.88300683  1
  In  In48  1  0.68045959  0.15228507  0.38685226  1
  In  In49  1  0.66659080  0.16445809  0.86919749  1
  In  In50  1  0.67712885  0.49124079  0.38307102  1
  In  In51  1  0.66701445  0.51698701  0.86970190  1
  In  In52  1  0.66325045  0.83482953  0.37755616  1
  In  In53  1  0.67199707  0.82248255  0.87498499  1
  In  In54  1  0.17344224  -0.00703472  0.13807083  1
  In  In55  1  0.15594883  0.01203921  0.62912873  1
  In  In56  1  0.14442728  0.34783076  0.14964904  1
  In  In57  1  0.15112485  0.31767410  0.61511329  1
  In  In58  1  0.16886294  0.67651731  0.12142382  1
  In  In59  1  0.17548323  0.66071545  0.61997228  1
  In  In60  1  0.50124696  -0.00502045  0.13414287  1
  In  In61  1  0.49489722  -0.00657439  0.61700029  1
  In  In62  1  0.50001478  0.31975684  0.13043212  1
  In  In63  1  0.49287277  0.32892655  0.60967093  1
  In  In64  1  0.48470312  0.66416113  0.12672808  1
  In  In65  1  0.51420701  0.68031830  0.61683226  1
  In  In66  1  0.83289131  -0.01301025  0.14550553  1
  In  In67  1  0.87401700  0.02305005  0.58439689  1
  In  In68  1  0.84996013  0.34924429  0.12495263  1
  In  In69  1  0.84178722  0.33290303  0.62093964  1
  In  In70  1  0.84500884  0.66024573  0.12854690  1
  In  In71  1  0.82916184  0.65476996  0.61477347  1
  In  In72  1  0.83879048  0.82471536  0.00076691  1
  In  In73  1  0.16558475  0.16986930  0.00887159  1
  In  In74  1  -0.00013882  0.66994579  0.25566244  1
  In  In75  1  0.33522551  0.67081234  0.74842106  1
  In  In76  1  0.67836492  0.33969125  0.73214736  1
  In  In77  1  0.83458754  0.16793100  0.00596482  1
  In  In78  1  0.67390908  -0.00648335  0.74230319  1
  In  In79  1  0.49233572  0.50382316  -0.00334869  1
  In  In80  1  0.66860039  0.32424267  0.25820655  1
  In  In81  1  0.16500636  0.83906035  0.48898511  1
  In  In82  1  0.66808301  0.66876572  0.26050444  1
  In  In83  1  -0.00207822  0.66763681  0.74351335  1
  In  In84  1  0.49381803  0.15912598  0.01006880  1
  In  In85  1  0.32994988  0.33040144  0.75421977  1
  Cu  Cu86  1  0.33246772  -0.00002593  0.49536213  1
  Cu  Cu87  1  0.15639145  0.49157910  0.74743246  1
  Cu  Cu88  1  0.16338985  0.50174172  0.25349224  1
  Cu  Cu89  1  0.66277274  -0.00618234  0.00785744  1
  Cu  Cu90  1  0.33505048  0.65698155  0.49694650  1
  Cu  Cu91  1  0.83241078  0.16654481  0.25636118  1
  Cu  Cu92  1  0.49950399  0.15976692  0.26069625  1
  Cu  Cu93  1  0.83493421  0.50115039  0.74270880  1
  Cu  Cu94  1  0.66505362  -0.00715556  0.50052293  1
  Cu  Cu95  1  0.66125728  0.66310229  0.49510104  1
  Cu  Cu96  1  0.67912661  0.33928087  -0.00294379  1
  Cu  Cu97  1  0.16554752  0.83151649  0.25188798  1
  Cu  Cu98  1  0.32884892  0.67507554  0.00333272  1
  Cu  Cu99  1  0.32664272  0.33536341  0.49064437  1
  Cu  Cu100  1  0.17027496  0.84380087  0.75070247  1
  Cu  Cu101  1  0.32468670  0.34130324  0.01238054  1
  Cu  Cu102  1  0.50203412  0.83728446  0.74420986  1
  Cu  Cu103  1  0.33193223  -0.00535845  0.01006565  1
  Cu  Cu104  1  0.49476887  0.83352162  0.25342700  1
  Cu  Cu105  1  0.66451246  0.33325343  0.49997617  1
  Cu  Cu106  1  0.49756776  0.49565245  0.25529968  1
  Cu  Cu107  1  0.66415565  0.66959718  -0.00023938  1
  Cu  Cu108  1  0.83541296  0.83895759  0.74178654  1
  Cu  Cu109  1  0.50213018  0.51170085  0.73963667  1
  Cu  Cu110  1  0.16363578  0.16063244  0.74307120  1
  Cu  Cu111  1  0.00274549  -0.00011935  0.00065353  1
  Cu  Cu112  1  0.00652461  0.65693881  0.00133235  1
  Cu  Cu113  1  0.49876454  0.16348697  0.74269399  1
  Cu  Cu114  1  0.00422920  0.32925733  0.49405925  1
  Se  Se115  1  0.07629039  0.07673800  0.06722886  1
  Se  Se116  1  0.09212725  0.08903051  0.55060097  1
  Se  Se117  1  0.08863430  0.40768134  0.05964842  1
  Se  Se118  1  0.08695065  0.41600075  0.54735432  1
  Se  Se119  1  0.07947785  0.75168307  0.05167402  1
  Se  Se120  1  0.08675946  0.75156026  0.56046280  1
  Se  Se121  1  0.39932756  0.08228925  0.07395705  1
  Se  Se122  1  0.41746662  0.08267926  0.54946825  1
  Se  Se123  1  0.41481501  0.41613751  0.06783982  1
  Se  Se124  1  0.41368460  0.41739188  0.54427394  1
  Se  Se125  1  0.41621110  0.75312323  0.05578585  1
  Se  Se126  1  0.41444984  0.74491446  0.54988265  1
  Se  Se127  1  0.74685650  0.07181147  0.06510505  1
  Se  Se128  1  0.75079914  0.08419297  0.54338845  1
  Se  Se129  1  0.75776104  0.42031044  0.05481503  1
  Se  Se130  1  0.74976325  0.41212260  0.55650360  1
  Se  Se131  1  0.74402428  0.74417380  0.06456812  1
  Se  Se132  1  0.74321228  0.74323872  0.55287193  1
  Se  Se133  1  0.25195924  0.25696333  0.07273468  1
  Se  Se134  1  0.24912323  0.25129307  0.54886111  1
  Se  Se135  1  0.24988898  0.58617604  0.05493373  1
  Se  Se136  1  0.24571135  0.57680235  0.54633089  1
  Se  Se137  1  0.24375373  0.91393054  0.06048922  1
  Se  Se138  1  0.25185914  0.92215975  0.55948143  1
  Se  Se139  1  0.59750489  0.25624944  0.05500956  1
  Se  Se140  1  0.58030692  0.24439114  0.54715352  1
  Se  Se141  1  0.58782333  0.58596738  0.06110330  1
  Se  Se142  1  0.57857009  0.58015207  0.55122261  1
  Se  Se143  1  0.57348607  0.91420728  0.05661400  1
  Se  Se144  1  0.58181886  0.90968755  0.55318782  1
  Se  Se145  1  0.93180471  0.25556907  0.05910376  1
  Se  Se146  1  0.92127488  0.24939674  0.55129930  1
  Se  Se147  1  0.91725277  0.58090707  0.05423736  1
  Se  Se148  1  0.92443782  0.58978070  0.54753966  1
  Se  Se149  1  0.91793597  0.92389713  0.06072196  1
  Se  Se150  1  0.90735760  0.89302563  0.53900713  1
  Se  Se151  1  0.08587507  0.24591294  0.43970613  1
  Se  Se152  1  0.07301825  0.25000175  0.94324738  1
  Se  Se153  1  0.07284901  0.59408198  0.45510921  1
  Se  Se154  1  0.09017810  0.57807298  0.94543257  1
  Se  Se155  1  0.07592974  0.93969091  0.44061462  1
  Se  Se156  1  0.08723153  0.91715082  0.94863411  1
  Se  Se157  1  0.41451544  0.24726952  0.44636336  1
  Se  Se158  1  0.40372805  0.25887270  0.95032869  1
  Se  Se159  1  0.41526609  0.57592823  0.43957699  1
  Se  Se160  1  0.40432315  0.59701326  0.93477749  1
  Se  Se161  1  0.41718227  0.91115934  0.45010709  1
  Se  Se162  1  0.41718932  0.91888828  0.95211031  1
  Se  Se163  1  0.75118492  0.25545176  0.44545133  1
  Se  Se164  1  0.75051841  0.25336126  0.93607586  1
  Se  Se165  1  0.75380166  0.58149250  0.44958944  1
  Se  Se166  1  0.74723177  0.58631538  0.94715886  1
  Se  Se167  1  0.74981005  0.92009961  0.44067063  1
  Se  Se168  1  0.74664490  0.92207568  0.94448068  1
  Se  Se169  1  0.24867177  0.08433128  0.44476420  1
  Se  Se170  1  0.25895746  0.08095638  0.94686185  1
  Se  Se171  1  0.24337910  0.41813771  0.43772294  1
  Se  Se172  1  0.24377943  0.41923108  0.95262430  1
  Se  Se173  1  0.25938859  0.74409672  0.43687515  1
  Se  Se174  1  0.24468445  0.75421363  0.94657176  1
  Se  Se175  1  0.58145921  0.08059162  0.44962835  1
  Se  Se176  1  0.58933274  0.07771517  0.94398060  1
  Se  Se177  1  0.58248493  0.42032535  0.44914235  1
  Se  Se178  1  0.58670416  0.41130698  0.93892856  1
  Se  Se179  1  0.57996506  0.75094391  0.44523061  1
  Se  Se180  1  0.58284730  0.75483420  0.94790373  1
  Se  Se181  1  0.90623855  0.09495291  0.43938734  1
  Se  Se182  1  0.92223672  0.07882299  0.94058269  1
  Se  Se183  1  0.91655036  0.41568425  0.44736612  1
  Se  Se184  1  0.90526734  0.42992802  0.94902664  1
  Se  Se185  1  0.92150268  0.76607932  0.45497486  1
  Se  Se186  1  0.92667150  0.73587163  0.93721929  1
  Se  Se187  1  0.26021778  0.25616762  0.30138727  1
  Se  Se188  1  0.23784452  0.23827038  0.81324104  1
  Se  Se189  1  0.24687467  0.58783244  0.30319739  1
  Se  Se190  1  0.24188308  0.57233843  0.80255655  1
  Se  Se191  1  0.24711116  0.91664328  0.30525181  1
  Se  Se192  1  0.25342515  0.92185809  0.80742808  1
  Se  Se193  1  0.57983043  0.24087615  0.32132993  1
  Se  Se194  1  0.57966806  0.24905662  0.79809669  1
  Se  Se195  1  0.57980496  0.57208745  0.31514777  1
  Se  Se196  1  0.58575841  0.59107971  0.79526094  1
  Se  Se197  1  0.57910965  0.91385159  0.30742313  1
  Se  Se198  1  0.58014939  0.91478146  0.81099880  1
  Se  Se199  1  0.91890027  0.25251422  0.30204618  1
  Se  Se200  1  0.90837235  0.24352113  0.79721718  1
  Se  Se201  1  0.91304520  0.57962298  0.31568528  1
  Se  Se202  1  0.91211655  0.57954735  0.80853851  1
  Se  Se203  1  0.91813441  0.92463995  0.29843776  1
  Se  Se204  1  0.92032262  0.91081074  0.80198024  1
  Se  Se205  1  0.09221129  0.09882396  0.29516999  1
  Se  Se206  1  0.08266065  0.07859138  0.80133617  1
  Se  Se207  1  0.07904498  0.42035721  0.30691860  1
  Se  Se208  1  0.07670381  0.41121409  0.80484519  1
  Se  Se209  1  0.08724850  0.75931621  0.31834651  1
  Se  Se210  1  0.09265140  0.75401718  0.80555567  1
  Se  Se211  1  0.41434665  0.07672703  0.31125445  1
  Se  Se212  1  0.41629442  0.08108989  0.79773972  1
  Se  Se213  1  0.41468385  0.40808236  0.30283301  1
  Se  Se214  1  0.42795899  0.42979278  0.80425106  1
  Se  Se215  1  0.41212641  0.74577209  0.30204933  1
  Se  Se216  1  0.42355232  0.76044245  0.80995434  1
  Se  Se217  1  0.74343329  0.08295459  0.30193276  1
  Se  Se218  1  0.76059077  0.08967903  0.80326313  1
  Se  Se219  1  0.76033167  0.42246102  0.30541419  1
  Se  Se220  1  0.75444555  0.42352711  0.80786363  1
  Se  Se221  1  0.76419977  0.75238889  0.31742688  1
  Se  Se222  1  0.75335043  0.75620331  0.79730678  1
  Se  Se223  1  0.23715407  0.07795378  0.21515149  1
  Se  Se224  1  0.25518358  0.08085183  0.69588441  1
  Se  Se225  1  0.25300222  0.41869596  0.20289716  1
  Se  Se226  1  0.24064325  0.41311368  0.68871919  1
  Se  Se227  1  0.24781212  0.74762672  0.19817249  1
  Se  Se228  1  0.24499806  0.76216820  0.68891960  1
  Se  Se229  1  0.58181651  0.07882965  0.20431751  1
  Se  Se230  1  0.58290590  0.08750624  0.68397419  1
  Se  Se231  1  0.58087416  0.41990937  0.19381799  1
  Se  Se232  1  0.57251133  0.42158216  0.68124412  1
  Se  Se233  1  0.57631448  0.75067449  0.19317921  1
  Se  Se234  1  0.58762121  0.75264696  0.69629943  1
  Se  Se235  1  0.91591176  0.08361301  0.20052649  1
  Se  Se236  1  0.92327111  0.06708992  0.68131117  1
  Se  Se237  1  0.92900232  0.41505948  0.20210702  1
  Se  Se238  1  0.91973340  0.41671278  0.69322852  1
  Se  Se239  1  0.90442684  0.76038883  0.19806702  1
  Se  Se240  1  0.91307679  0.75674961  0.68087475  1
  Se  Se241  1  0.09908989  0.23259746  0.20998891  1
  Se  Se242  1  0.07971196  0.24842615  0.69604285  1
  Se  Se243  1  0.08501258  0.58295663  0.18912674  1
  Se  Se244  1  0.08477381  0.57441515  0.68459363  1
  Se  Se245  1  0.07829827  0.91175246  0.19921453  1
  Se  Se246  1  0.08118822  0.92043213  0.69765232  1
  Se  Se247  1  0.42219852  0.24742516  0.20546365  1
  Se  Se248  1  0.41468812  0.24525376  0.68657493  1
  Se  Se249  1  0.41689809  0.58387394  0.20354154  1
  Se  Se250  1  0.41571180  0.58339497  0.68004861  1
  Se  Se251  1  0.41049753  0.91638771  0.19936106  1
  Se  Se252  1  0.41648510  0.92062147  0.69521564  1
  Se  Se253  1  0.75814249  0.24510865  0.18691465  1
  Se  Se254  1  0.76507275  0.23376530  0.68899127  1
  Se  Se255  1  0.75898917  0.57750012  0.19932233  1
  Se  Se256  1  0.75006782  0.58694446  0.69448114  1
  Se  Se257  1  0.73894504  0.91285183  0.20788512  1
  Se  Se258  1  0.76797786  0.92165190  0.67621081  1
