# generated using pymatgen
data_In86Cu29Se144
_symmetry_space_group_name_H-M   'P 1'
_cell_length_a   17.58895638
_cell_length_b   17.59080853
_cell_length_c   23.45979383
_cell_angle_alpha   89.98467756
_cell_angle_beta   90.01027470
_cell_angle_gamma   89.99918138
_symmetry_Int_Tables_number   1
_chemical_formula_structural   In86Cu29Se144
_chemical_formula_sum   'In86 Cu29 Se144'
_cell_volume   7258.55282775
_cell_formula_units_Z   1
loop_
 _symmetry_equiv_pos_site_id
 _symmetry_equiv_pos_as_xyz
  1  'x, y, z'
loop_
 _atom_site_type_symbol
 _atom_site_label
 _atom_site_symmetry_multiplicity
 _atom_site_fract_x
 _atom_site_fract_y
 _atom_site_fract_z
 _atom_site_occupancy
  In  In0  1  0.00648922  0.15570450  0.12372230  1
  In  In1  1  -0.00302794  0.16283131  0.61662415  1
  In  In2  1  0.00305086  0.50415284  0.11553551  1
  In  In3  1  0.00133846  0.51279346  0.63039579  1
  In  In4  1  -0.00456353  0.82775210  0.11476549  1
  In  In5  1  -0.00930910  0.83194287  0.62684266  1
  In  In6  1  0.33355788  0.15973968  0.12431361  1
  In  In7  1  0.32513985  0.14994753  0.61047267  1
  In  In8  1  0.33760041  0.50382889  0.11881518  1
  In  In9  1  0.33871457  0.51398712  0.62759002  1
  In  In10  1  0.33151854  0.84373563  0.12593725  1
  In  In11  1  0.33691107  0.83137369  0.62950217  1
  In  In12  1  0.65982217  0.16421931  0.12865000  1
  In  In13  1  0.65129536  0.14532287  0.61165804  1
  In  In14  1  0.67610084  0.50827472  0.11801021  1
  In  In15  1  0.67762582  0.50559204  0.62330540  1
  In  In16  1  0.66801947  0.83148885  0.12888676  1
  In  In17  1  0.67047173  0.82968364  0.62780601  1
  In  In18  1  0.18464860  0.00091968  0.37463722  1
  In  In19  1  0.18149790  -0.01358256  0.88453717  1
  In  In20  1  0.15970427  0.32905992  0.37216730  1
  In  In21  1  0.17522974  0.32818864  0.88524890  1
  In  In22  1  0.17966551  0.66122601  0.37068255  1
  In  In23  1  0.16408571  0.66958307  0.87551298  1
  In  In24  1  0.49953806  -0.00635738  0.37531502  1
  In  In25  1  0.50399263  0.00292992  0.87048279  1
  In  In26  1  0.48853866  0.32253728  0.37432471  1
  In  In27  1  0.49996522  0.33193784  0.88357994  1
  In  In28  1  0.51348581  0.68137861  0.36418320  1
  In  In29  1  0.49247433  0.66671421  0.87131341  1
  In  In30  1  0.81153784  0.01353972  0.38011561  1
  In  In31  1  0.81284400  -0.00877480  0.87333565  1
  In  In32  1  0.83396849  0.33108971  0.38033990  1
  In  In33  1  0.84131876  0.33730025  0.87684525  1
  In  In34  1  0.80152469  0.68829131  0.40103323  1
  In  In35  1  0.83218064  0.67293542  0.87460363  1
  In  In36  1  -0.00305338  0.16646643  0.37921654  1
  In  In37  1  0.00082695  0.17416656  0.87527802  1
  In  In38  1  -0.00720486  0.49282068  0.37309886  1
  In  In39  1  -0.01038078  0.51683775  0.88381635  1
  In  In40  1  -0.00845721  0.82103316  0.37582427  1
  In  In41  1  0.01200864  0.82102470  0.87840989  1
  In  In42  1  0.35925307  0.12816461  0.40328069  1
  In  In43  1  0.34589923  0.15455697  0.88044306  1
  In  In44  1  0.33124980  0.51864431  0.36921610  1
  In  In45  1  0.32588855  0.50834665  0.88795981  1
  In  In46  1  0.35227723  0.85203250  0.36213415  1
  In  In47  1  0.31639828  0.82836550  0.86026493  1
  In  In48  1  0.66911327  0.15227940  0.37363544  1
  In  In49  1  0.65564281  0.14842385  0.87513109  1
  In  In50  1  0.66542243  0.51723415  0.37697320  1
  In  In51  1  0.65427250  0.51246156  0.88448169  1
  In  In52  1  0.65636503  0.83239001  0.37712404  1
  In  In53  1  0.67799948  0.84485131  0.87138869  1
  In  In54  1  0.17557995  0.00701566  0.11506125  1
  In  In55  1  0.16725308  0.00045346  0.62735627  1
  In  In56  1  0.16885362  0.33377146  0.11741315  1
  In  In57  1  0.17549337  0.32753380  0.62734647  1
  In  In58  1  0.17243841  0.67201764  0.11771902  1
  In  In59  1  0.16492296  0.67426021  0.64287555  1
  In  In60  1  0.50323292  0.00703347  0.13350910  1
  In  In61  1  0.49983698  -0.00148509  0.62595506  1
  In  In62  1  0.49677176  0.32752257  0.12035747  1
  In  In63  1  0.50948786  0.32743839  0.62129381  1
  In  In64  1  0.50940932  0.66284503  0.12803276  1
  In  In65  1  0.49662605  0.67818251  0.63055258  1
  In  In66  1  0.82967831  -0.00781394  0.12601246  1
  In  In67  1  0.82009832  -0.01796471  0.61356532  1
  In  In68  1  0.82378552  0.34492471  0.12361732  1
  In  In69  1  0.83286172  0.33079310  0.61583137  1
  In  In70  1  0.82916949  0.66573690  0.12112401  1
  In  In71  1  0.83196294  0.66929051  0.62729310  1
  In  In72  1  0.16796374  0.83715522  0.50447934  1
  In  In73  1  0.00414582  -0.00639806  0.74745225  1
  In  In74  1  0.00101552  0.33955430  0.75740266  1
  In  In75  1  -0.00253515  0.66516961  0.24668347  1
  In  In76  1  0.83533505  0.17068499  0.00088870  1
  In  In77  1  -0.00295707  -0.00594411  0.24387337  1
  In  In78  1  0.33193764  0.32559472  0.24516546  1
  In  In79  1  0.49977383  0.83777959  -0.00146825  1
  In  In80  1  0.00130555  0.33644376  0.25616397  1
  In  In81  1  0.50357961  0.49832241  0.50589999  1
  In  In82  1  0.66487979  0.32814342  0.25393127  1
  In  In83  1  0.16272027  0.49779682  0.49923897  1
  In  In84  1  0.66925064  0.33609223  0.74406359  1
  In  In85  1  0.33783457  0.33729157  0.74692448  1
  Cu  Cu86  1  0.67008197  0.67099423  0.00124080  1
  Cu  Cu87  1  0.17467952  0.16339266  0.25168444  1
  Cu  Cu88  1  0.00075016  0.66732741  -0.00288041  1
  Cu  Cu89  1  0.82305426  0.15609623  0.74176218  1
  Cu  Cu90  1  -0.00281327  0.32994180  0.49743563  1
  Cu  Cu91  1  0.17058152  0.16205283  0.75036226  1
  Cu  Cu92  1  0.00073885  0.00069571  0.49750034  1
  Cu  Cu93  1  0.66676620  0.33622318  0.00211689  1
  Cu  Cu94  1  0.49728823  0.51170893  0.75457275  1
  Cu  Cu95  1  0.33429660  0.66702406  -0.00486019  1
  Cu  Cu96  1  0.66763288  0.32842844  0.49592909  1
  Cu  Cu97  1  0.83027806  0.50719658  0.75335284  1
  Cu  Cu98  1  0.00448952  0.33762308  -0.00337184  1
  Cu  Cu99  1  0.32622342  0.32588755  0.49862138  1
  Cu  Cu100  1  0.33723004  0.32943886  0.00456949  1
  Cu  Cu101  1  0.16742787  0.51075720  0.76258154  1
  Cu  Cu102  1  0.49990372  0.16138282  0.74674332  1
  Cu  Cu103  1  0.50432298  0.83738086  0.74926851  1
  Cu  Cu104  1  0.17516863  0.83199535  0.24357678  1
  Cu  Cu105  1  0.00077293  0.00001686  -0.00075543  1
  Cu  Cu106  1  0.66343657  -0.00698625  0.49972964  1
  Cu  Cu107  1  0.49932199  0.83148341  0.24821090  1
  Cu  Cu108  1  0.33399820  -0.00153436  0.00024304  1
  Cu  Cu109  1  0.50057294  0.50052904  0.24469284  1
  Cu  Cu110  1  0.82091288  0.83618666  0.25775630  1
  Cu  Cu111  1  0.83303404  0.82997328  0.74801805  1
  Cu  Cu112  1  0.33481568  0.67478923  0.50133444  1
  Cu  Cu113  1  -0.01062759  0.66160444  0.50307028  1
  Cu  Cu114  1  0.83100189  0.51240657  0.25038527  1
  Se  Se115  1  0.08563237  0.08602559  0.04797953  1
  Se  Se116  1  0.08448874  0.07769576  0.55530753  1
  Se  Se117  1  0.08800120  0.41989166  0.05065015  1
  Se  Se118  1  0.07440188  0.40753936  0.56302863  1
  Se  Se119  1  0.08560599  0.75115341  0.04942745  1
  Se  Se120  1  0.07942387  0.73776033  0.55977609  1
  Se  Se121  1  0.41826885  0.07668510  0.05714548  1
  Se  Se122  1  0.43369254  0.09100428  0.55366679  1
  Se  Se123  1  0.42079100  0.41676419  0.05354017  1
  Se  Se124  1  0.40303065  0.40779963  0.56110806  1
  Se  Se125  1  0.41334698  0.74494208  0.05923190  1
  Se  Se126  1  0.41850347  0.75485648  0.55567852  1
  Se  Se127  1  0.74505025  0.07991136  0.05669212  1
  Se  Se128  1  0.75264819  0.08022115  0.54733147  1
  Se  Se129  1  0.75432200  0.42276525  0.04690422  1
  Se  Se130  1  0.74437035  0.41349985  0.55271215  1
  Se  Se131  1  0.75053129  0.75568628  0.05519615  1
  Se  Se132  1  0.76139418  0.75938932  0.55777067  1
  Se  Se133  1  0.25251910  0.24495108  0.05584624  1
  Se  Se134  1  0.24120831  0.24547576  0.55170404  1
  Se  Se135  1  0.25139335  0.58374006  0.05019085  1
  Se  Se136  1  0.24924352  0.59442509  0.55811307  1
  Se  Se137  1  0.24873552  0.91210360  0.04920149  1
  Se  Se138  1  0.26252385  0.92670808  0.55774431  1
  Se  Se139  1  0.58806417  0.24911915  0.05540271  1
  Se  Se140  1  0.58244017  0.24657182  0.54823847  1
  Se  Se141  1  0.58496346  0.58573793  0.05170853  1
  Se  Se142  1  0.58889134  0.59485798  0.56075916  1
  Se  Se143  1  0.58798577  0.92359672  0.06049285  1
  Se  Se144  1  0.58524297  0.91320631  0.55980830  1
  Se  Se145  1  0.92642220  0.26096329  0.06287652  1
  Se  Se146  1  0.91330296  0.24484205  0.54928347  1
  Se  Se147  1  0.91541054  0.58671914  0.05244684  1
  Se  Se148  1  0.91180021  0.57748513  0.55882217  1
  Se  Se149  1  0.91496346  0.92056273  0.05309030  1
  Se  Se150  1  0.92220742  0.91372455  0.55127367  1
  Se  Se151  1  0.08320589  0.24968379  0.44496952  1
  Se  Se152  1  0.08380089  0.24686283  0.94804291  1
  Se  Se153  1  0.07500986  0.59260867  0.43912492  1
  Se  Se154  1  0.08924307  0.58326933  0.94830650  1
  Se  Se155  1  0.07850356  0.91940738  0.43546540  1
  Se  Se156  1  0.08310747  0.91491396  0.94677055  1
  Se  Se157  1  0.41980117  0.24675726  0.45286520  1
  Se  Se158  1  0.41847243  0.24600952  0.94895474  1
  Se  Se159  1  0.41463060  0.58901177  0.44530126  1
  Se  Se160  1  0.42471605  0.58431660  0.94862841  1
  Se  Se161  1  0.41724176  0.91303696  0.44665839  1
  Se  Se162  1  0.40633223  0.91788196  0.93438812  1
  Se  Se163  1  0.74731782  0.24406482  0.44120405  1
  Se  Se164  1  0.74146883  0.25488513  0.93666980  1
  Se  Se165  1  0.75505526  0.56916032  0.45352690  1
  Se  Se166  1  0.75256474  0.58723149  0.94550887  1
  Se  Se167  1  0.74743500  0.91233244  0.44436538  1
  Se  Se168  1  0.74804750  0.91543576  0.95264610  1
  Se  Se169  1  0.23551183  0.08855222  0.45282838  1
  Se  Se170  1  0.25029633  0.08621295  0.94848114  1
  Se  Se171  1  0.25831315  0.41384817  0.43738380  1
  Se  Se172  1  0.25260931  0.41432331  0.95326115  1
  Se  Se173  1  0.25602420  0.75210526  0.43881096  1
  Se  Se174  1  0.25228110  0.75237050  0.94255392  1
  Se  Se175  1  0.58328329  0.07806503  0.44483045  1
  Se  Se176  1  0.56718284  0.08769365  0.94790790  1
  Se  Se177  1  0.58509553  0.40917570  0.43654178  1
  Se  Se178  1  0.58077232  0.41831467  0.94969606  1
  Se  Se179  1  0.58248209  0.74310337  0.44691732  1
  Se  Se180  1  0.58964217  0.74800522  0.93814186  1
  Se  Se181  1  0.91438043  0.08033370  0.44396684  1
  Se  Se182  1  0.91850267  0.07687139  0.93648720  1
  Se  Se183  1  0.91533685  0.41747925  0.44764842  1
  Se  Se184  1  0.91587992  0.41965145  0.94821943  1
  Se  Se185  1  0.91318208  0.75477996  0.45429535  1
  Se  Se186  1  0.91629697  0.75242963  0.94585996  1
  Se  Se187  1  0.25198222  0.24018731  0.31470936  1
  Se  Se188  1  0.25085993  0.24509451  0.80826676  1
  Se  Se189  1  0.24930006  0.58486904  0.29434715  1
  Se  Se190  1  0.25888895  0.58900268  0.81065309  1
  Se  Se191  1  0.25211537  0.92005831  0.29753386  1
  Se  Se192  1  0.24904837  0.93014605  0.79825779  1
  Se  Se193  1  0.57176786  0.23711706  0.30764309  1
  Se  Se194  1  0.57631359  0.24852069  0.80497791  1
  Se  Se195  1  0.58394224  0.58277322  0.29936372  1
  Se  Se196  1  0.58722396  0.59021680  0.80512698  1
  Se  Se197  1  0.58229446  0.91444145  0.30296707  1
  Se  Se198  1  0.58733040  0.92001326  0.80346142  1
  Se  Se199  1  0.90761589  0.24182672  0.30563554  1
  Se  Se200  1  0.90194364  0.23840024  0.80151456  1
  Se  Se201  1  0.90707651  0.58879755  0.31517632  1
  Se  Se202  1  0.91656905  0.58847297  0.80518276  1
  Se  Se203  1  0.90862911  0.91375118  0.31285615  1
  Se  Se204  1  0.91221611  0.90990141  0.81084072  1
  Se  Se205  1  0.08595480  0.08448479  0.30708314  1
  Se  Se206  1  0.08748180  0.08661524  0.81066818  1
  Se  Se207  1  0.09701226  0.43296547  0.30419501  1
  Se  Se208  1  0.09159976  0.42400705  0.81957514  1
  Se  Se209  1  0.09251959  0.75764628  0.30539553  1
  Se  Se210  1  0.08658510  0.74946345  0.80224612  1
  Se  Se211  1  0.40995637  0.07640497  0.30995732  1
  Se  Se212  1  0.41506665  0.08034622  0.80056637  1
  Se  Se213  1  0.42050238  0.42386329  0.30622337  1
  Se  Se214  1  0.42189100  0.42475901  0.81280252  1
  Se  Se215  1  0.41287954  0.74614364  0.29925418  1
  Se  Se216  1  0.41905043  0.75509860  0.80217560  1
  Se  Se217  1  0.74651594  0.08079746  0.29618887  1
  Se  Se218  1  0.74294705  0.08001714  0.80172240  1
  Se  Se219  1  0.75568817  0.42501545  0.30938072  1
  Se  Se220  1  0.75171091  0.42372254  0.81189273  1
  Se  Se221  1  0.74419130  0.74616896  0.30996146  1
  Se  Se222  1  0.74746728  0.75033032  0.80334658  1
  Se  Se223  1  0.25044910  0.07831466  0.19441619  1
  Se  Se224  1  0.25303482  0.08381091  0.69382862  1
  Se  Se225  1  0.24571796  0.42085457  0.18899705  1
  Se  Se226  1  0.23959570  0.43215591  0.69470225  1
  Se  Se227  1  0.25557339  0.74790239  0.19017575  1
  Se  Se228  1  0.26488521  0.74365735  0.70068715  1
  Se  Se229  1  0.59604417  0.07744177  0.20237997  1
  Se  Se230  1  0.58718793  0.07867573  0.69688886  1
  Se  Se231  1  0.58278419  0.41989826  0.18744090  1
  Se  Se232  1  0.57209150  0.42969993  0.69145566  1
  Se  Se233  1  0.58618266  0.74845870  0.19773182  1
  Se  Se234  1  0.58741733  0.75003219  0.69976203  1
  Se  Se235  1  0.90718068  0.09243875  0.19192121  1
  Se  Se236  1  0.91000430  0.07949922  0.68590734  1
  Se  Se237  1  0.91216829  0.42951029  0.19358650  1
  Se  Se238  1  0.90582876  0.42002981  0.69422870  1
  Se  Se239  1  0.90575122  0.76267196  0.19448779  1
  Se  Se240  1  0.91923565  0.74603950  0.69870698  1
  Se  Se241  1  0.09130866  0.24379502  0.19404519  1
  Se  Se242  1  0.08559140  0.24355426  0.69503377  1
  Se  Se243  1  0.08988834  0.57929608  0.18818427  1
  Se  Se244  1  0.08034820  0.58497977  0.70516203  1
  Se  Se245  1  0.08980472  0.90768430  0.18375378  1
  Se  Se246  1  0.09512377  0.89978555  0.69230515  1
  Se  Se247  1  0.42942475  0.23563631  0.19431782  1
  Se  Se248  1  0.42068170  0.24216448  0.68630276  1
  Se  Se249  1  0.41666566  0.58316460  0.19182374  1
  Se  Se250  1  0.41386551  0.59298478  0.69996622  1
  Se  Se251  1  0.41807373  0.91799952  0.19595491  1
  Se  Se252  1  0.41767236  0.91864702  0.69699811  1
  Se  Se253  1  0.76035357  0.24673712  0.19181213  1
  Se  Se254  1  0.74797132  0.23927602  0.68182694  1
  Se  Se255  1  0.74643871  0.59005009  0.19439953  1
  Se  Se256  1  0.74708616  0.58784357  0.69832582  1
  Se  Se257  1  0.74549831  0.91943064  0.19893709  1
  Se  Se258  1  0.75088563  0.91789153  0.69774243  1
