# generated using pymatgen
data_In86Cu29Se144
_symmetry_space_group_name_H-M   'P 1'
_cell_length_a   17.57467279
_cell_length_b   17.57177829
_cell_length_c   23.43399567
_cell_angle_alpha   89.99859572
_cell_angle_beta   90.02684612
_cell_angle_gamma   89.99438503
_symmetry_Int_Tables_number   1
_chemical_formula_structural   In86Cu29Se144
_chemical_formula_sum   'In86 Cu29 Se144'
_cell_volume   7236.84479342
_cell_formula_units_Z   1
loop_
 _symmetry_equiv_pos_site_id
 _symmetry_equiv_pos_as_xyz
  1  'x, y, z'
loop_
 _atom_site_type_symbol
 _atom_site_label
 _atom_site_symmetry_multiplicity
 _atom_site_fract_x
 _atom_site_fract_y
 _atom_site_fract_z
 _atom_site_occupancy
  In  In0  1  0.01243072  0.17768093  0.12519842  1
  In  In1  1  -0.00705976  0.17802381  0.63143296  1
  In  In2  1  -0.00120128  0.50262156  0.12311103  1
  In  In3  1  0.00174015  0.49950986  0.62559364  1
  In  In4  1  -0.01688178  0.83627398  0.12847978  1
  In  In5  1  -0.00299414  0.83199536  0.62491254  1
  In  In6  1  0.32663744  0.16405194  0.12221990  1
  In  In7  1  0.32672251  0.17402575  0.63791840  1
  In  In8  1  0.32753368  0.50823090  0.10698894  1
  In  In9  1  0.32641940  0.50531303  0.63018368  1
  In  In10  1  0.35963005  0.83047595  0.12050744  1
  In  In11  1  0.32505540  0.81485640  0.61924972  1
  In  In12  1  0.64895039  0.18528206  0.15110727  1
  In  In13  1  0.66574302  0.15762703  0.62075443  1
  In  In14  1  0.66940594  0.49840297  0.12997468  1
  In  In15  1  0.67741822  0.48935677  0.62175678  1
  In  In16  1  0.65388502  0.83931361  0.13575390  1
  In  In17  1  0.66498954  0.83115392  0.61115226  1
  In  In18  1  0.17711106  -0.00449213  0.37150552  1
  In  In19  1  0.16534140  0.01673027  0.87307486  1
  In  In20  1  0.16301400  0.36239780  0.38224200  1
  In  In21  1  0.17146635  0.33462803  0.87342091  1
  In  In22  1  0.15485973  0.66376570  0.37942034  1
  In  In23  1  0.15663346  0.65954032  0.86831086  1
  In  In24  1  0.50219348  0.00385940  0.36329637  1
  In  In25  1  0.49835650  -0.00172729  0.88843453  1
  In  In26  1  0.50551688  0.32025903  0.36880494  1
  In  In27  1  0.48187822  0.35113981  0.89099732  1
  In  In28  1  0.51434270  0.66143141  0.37336866  1
  In  In29  1  0.48415508  0.67315718  0.89092649  1
  In  In30  1  0.82091654  0.00883330  0.37827738  1
  In  In31  1  0.83665898  -0.00293070  0.87466163  1
  In  In32  1  0.84009048  0.33313139  0.36844873  1
  In  In33  1  0.84806883  0.33695296  0.87286288  1
  In  In34  1  0.83673783  0.66533914  0.38137323  1
  In  In35  1  0.83565198  0.65560613  0.87508837  1
  In  In36  1  -0.01964929  0.17176209  0.37297704  1
  In  In37  1  0.03006927  0.19588907  0.84570585  1
  In  In38  1  0.00044922  0.50169444  0.37635230  1
  In  In39  1  0.00145291  0.50087658  0.87509109  1
  In  In40  1  -0.00100000  0.80790172  0.37824083  1
  In  In41  1  0.00095830  0.83736780  0.86231166  1
  In  In42  1  0.34621922  0.16739115  0.37069843  1
  In  In43  1  0.31655454  0.18023163  0.88857104  1
  In  In44  1  0.31932823  0.50035784  0.38565078  1
  In  In45  1  0.32916323  0.50096007  0.87581337  1
  In  In46  1  0.33545605  0.85115257  0.37456240  1
  In  In47  1  0.34490986  0.83357239  0.87455796  1
  In  In48  1  0.69013471  0.18280285  0.34506196  1
  In  In49  1  0.66141770  0.15912310  0.88313672  1
  In  In50  1  0.67857213  0.51109917  0.36343778  1
  In  In51  1  0.66655501  0.50007968  0.88871588  1
  In  In52  1  0.66790854  0.83111464  0.37573739  1
  In  In53  1  0.65962378  0.82185547  0.88112089  1
  In  In54  1  0.16262899  0.01957723  0.12340642  1
  In  In55  1  0.16423790  -0.01235231  0.62776379  1
  In  In56  1  0.16394032  0.33565414  0.12007962  1
  In  In57  1  0.15721415  0.33725359  0.63235207  1
  In  In58  1  0.17060258  0.65211143  0.12030696  1
  In  In59  1  0.17690046  0.65462777  0.63062384  1
  In  In60  1  0.50110055  0.00397106  0.12925873  1
  In  In61  1  0.50936659  -0.00145711  0.62447924  1
  In  In62  1  0.50269652  0.34129443  0.12205380  1
  In  In63  1  0.49812588  0.32894498  0.63210101  1
  In  In64  1  0.50049529  0.66916696  0.11707289  1
  In  In65  1  0.48003245  0.66576934  0.62178240  1
  In  In66  1  0.82124696  0.00054489  0.13307553  1
  In  In67  1  0.83973077  0.00514741  0.60920351  1
  In  In68  1  0.82383940  0.34048858  0.13831675  1
  In  In69  1  0.85322530  0.35235548  0.60745886  1
  In  In70  1  0.84305379  0.65859587  0.13484587  1
  In  In71  1  0.84924276  0.67608143  0.60693377  1
  In  In72  1  0.66917179  0.32814229  0.75158891  1
  In  In73  1  0.66851058  0.66162713  0.75196716  1
  In  In74  1  0.33091337  0.33513425  0.25085880  1
  In  In75  1  0.66956738  -0.00094647  0.75320951  1
  In  In76  1  0.33496567  0.66839934  0.24052124  1
  In  In77  1  0.50278589  0.50243385  0.49927834  1
  In  In78  1  0.82574597  0.83431834  0.00335418  1
  In  In79  1  0.16092911  0.17133797  0.51134858  1
  In  In80  1  0.50510567  0.16378240  0.48993874  1
  In  In81  1  -0.00078435  -0.00110279  0.25525046  1
  In  In82  1  0.33179711  -0.00192369  0.75235881  1
  In  In83  1  0.83590302  0.16836063  0.00231237  1
  In  In84  1  0.16549643  0.82781512  0.50160746  1
  In  In85  1  0.17095365  0.83007902  -0.00128420  1
  Cu  Cu86  1  0.16873664  0.17522350  0.24810084  1
  Cu  Cu87  1  0.66976232  0.33085051  0.01233540  1
  Cu  Cu88  1  -0.00159926  0.66492284  0.00002862  1
  Cu  Cu89  1  0.49259233  0.50330569  0.75828037  1
  Cu  Cu90  1  0.33023121  0.32899969  0.00032838  1
  Cu  Cu91  1  0.33621404  -0.00195398  0.00379338  1
  Cu  Cu92  1  0.16542219  0.49583868  0.75226909  1
  Cu  Cu93  1  0.66776967  -0.00002779  0.49201296  1
  Cu  Cu94  1  0.34479826  0.00936316  0.49562044  1
  Cu  Cu95  1  0.16874807  0.83219004  0.25235428  1
  Cu  Cu96  1  0.00327038  0.34081806  -0.00470414  1
  Cu  Cu97  1  0.84284048  0.50040252  0.74744229  1
  Cu  Cu98  1  0.83644131  0.50071171  0.25269113  1
  Cu  Cu99  1  0.49070717  0.17451413  0.76115931  1
  Cu  Cu100  1  0.16331303  0.82474438  0.74706404  1
  Cu  Cu101  1  0.66843012  0.66446401  0.49299131  1
  Cu  Cu102  1  0.83483186  0.81995557  0.25853201  1
  Cu  Cu103  1  0.83634422  0.83379946  0.74052905  1
  Cu  Cu104  1  0.83773268  0.16919853  0.73749618  1
  Cu  Cu105  1  -0.00147604  0.33338846  0.50037870  1
  Cu  Cu106  1  0.15714327  0.50215222  0.24829620  1
  Cu  Cu107  1  0.67137907  0.32798880  0.48674728  1
  Cu  Cu108  1  0.49586951  0.82474375  0.74994250  1
  Cu  Cu109  1  0.65421856  0.00190688  0.01236944  1
  Cu  Cu110  1  -0.00765273  -0.00682459  0.49770185  1
  Cu  Cu111  1  0.00132956  0.01230780  -0.00518507  1
  Cu  Cu112  1  0.50438823  0.49253112  0.24908940  1
  Cu  Cu113  1  0.66470049  0.66419891  0.00596401  1
  Cu  Cu114  1  0.50234710  0.83231993  0.24933985  1
  Se  Se115  1  0.08290810  0.09465356  0.04933529  1
  Se  Se116  1  0.07248364  0.06985421  0.56103107  1
  Se  Se117  1  0.08444266  0.42309502  0.05275332  1
  Se  Se118  1  0.08345909  0.41377645  0.55549664  1
  Se  Se119  1  0.07157754  0.75086756  0.06069071  1
  Se  Se120  1  0.08115573  0.73614686  0.56170477  1
  Se  Se121  1  0.41702337  0.08293673  0.05811857  1
  Se  Se122  1  0.41373200  0.08791375  0.56441627  1
  Se  Se123  1  0.41422222  0.41395056  0.05191598  1
  Se  Se124  1  0.41752790  0.41408506  0.56302129  1
  Se  Se125  1  0.39652893  0.72567591  0.05082865  1
  Se  Se126  1  0.42848908  0.76555955  0.55191995  1
  Se  Se127  1  0.74104047  0.08490481  0.06298501  1
  Se  Se128  1  0.74736347  0.08642204  0.54683612  1
  Se  Se129  1  0.75490890  0.41758139  0.05934121  1
  Se  Se130  1  0.74820823  0.41387419  0.54364473  1
  Se  Se131  1  0.74361977  0.74483845  0.06774350  1
  Se  Se132  1  0.75153361  0.75061849  0.54533649  1
  Se  Se133  1  0.24479048  0.24793171  0.05397115  1
  Se  Se134  1  0.25839475  0.26004330  0.56248235  1
  Se  Se135  1  0.24200833  0.58585066  0.03969009  1
  Se  Se136  1  0.26928723  0.59800393  0.55621329  1
  Se  Se137  1  0.25280736  0.92138475  0.06473046  1
  Se  Se138  1  0.26135862  0.92718274  0.55375227  1
  Se  Se139  1  0.58614232  0.24534059  0.06200459  1
  Se  Se140  1  0.58950915  0.25953999  0.55474960  1
  Se  Se141  1  0.58453916  0.57599742  0.05774854  1
  Se  Se142  1  0.59300278  0.59116500  0.56322386  1
  Se  Se143  1  0.57430808  0.90966286  0.05881017  1
  Se  Se144  1  0.58244798  0.92223790  0.54841065  1
  Se  Se145  1  0.92211478  0.26457727  0.05973954  1
  Se  Se146  1  0.91648583  0.24265029  0.54924727  1
  Se  Se147  1  0.91248318  0.58522593  0.05410665  1
  Se  Se148  1  0.89797275  0.55568380  0.55791633  1
  Se  Se149  1  0.91866587  0.93444525  0.05512092  1
  Se  Se150  1  0.91385639  0.90426978  0.54969474  1
  Se  Se151  1  0.07867999  0.25340513  0.43902122  1
  Se  Se152  1  0.08008435  0.25221079  0.94038498  1
  Se  Se153  1  0.09745182  0.56497425  0.44645356  1
  Se  Se154  1  0.08249142  0.58390299  0.94614552  1
  Se  Se155  1  0.07878228  0.92029114  0.43773677  1
  Se  Se156  1  0.07655262  0.92036466  0.94093126  1
  Se  Se157  1  0.40854828  0.26293999  0.44552087  1
  Se  Se158  1  0.41978272  0.24395096  0.95223417  1
  Se  Se159  1  0.41212529  0.59441278  0.44137754  1
  Se  Se160  1  0.43353344  0.55679786  0.94337531  1
  Se  Se161  1  0.42587917  0.92671706  0.44170497  1
  Se  Se162  1  0.41669061  0.90969463  0.95291624  1
  Se  Se163  1  0.75307561  0.24436268  0.43375409  1
  Se  Se164  1  0.74552040  0.26098378  0.94041711  1
  Se  Se165  1  0.75102642  0.57561621  0.44604242  1
  Se  Se166  1  0.75274121  0.58803508  0.95091498  1
  Se  Se167  1  0.75358619  0.91195452  0.44532593  1
  Se  Se168  1  0.73390769  0.92885889  0.94443491  1
  Se  Se169  1  0.25383783  0.08650741  0.44379472  1
  Se  Se170  1  0.24816371  0.07856375  0.95190122  1
  Se  Se171  1  0.25278613  0.41526538  0.45851577  1
  Se  Se172  1  0.24890145  0.41525702  0.94645525  1
  Se  Se173  1  0.25792573  0.74927993  0.43564965  1
  Se  Se174  1  0.25362027  0.74219303  0.93438217  1
  Se  Se175  1  0.59968252  0.08564528  0.42794430  1
  Se  Se176  1  0.57687779  0.08710563  0.95503476  1
  Se  Se177  1  0.58896281  0.41348036  0.43312289  1
  Se  Se178  1  0.58747125  0.41220869  0.95446778  1
  Se  Se179  1  0.58198724  0.74989832  0.44580839  1
  Se  Se180  1  0.57985412  0.74992571  0.95512742  1
  Se  Se181  1  0.91442197  0.08248368  0.44567522  1
  Se  Se182  1  0.92324419  0.09035801  0.93293689  1
  Se  Se183  1  0.91617880  0.41399715  0.44271386  1
  Se  Se184  1  0.91430795  0.42309521  0.94662620  1
  Se  Se185  1  0.92463186  0.73610445  0.45423200  1
  Se  Se186  1  0.92205074  0.75216829  0.94078440  1
  Se  Se187  1  0.24035417  0.25282814  0.31711055  1
  Se  Se188  1  0.24486835  0.24092647  0.80618587  1
  Se  Se189  1  0.24631378  0.58018991  0.30495189  1
  Se  Se190  1  0.24908899  0.58178461  0.80354088  1
  Se  Se191  1  0.25464583  0.91970028  0.29676655  1
  Se  Se192  1  0.23930834  0.90668489  0.81144684  1
  Se  Se193  1  0.57208077  0.23848624  0.29455638  1
  Se  Se194  1  0.57672374  0.25136946  0.81911801  1
  Se  Se195  1  0.58496529  0.58431573  0.29628605  1
  Se  Se196  1  0.57864386  0.57934045  0.81662998  1
  Se  Se197  1  0.58777347  0.91254009  0.30333949  1
  Se  Se198  1  0.57390927  0.90778875  0.80968750  1
  Se  Se199  1  0.91678975  0.25043075  0.29513840  1
  Se  Se200  1  0.91312858  0.25618370  0.79468206  1
  Se  Se201  1  0.91744857  0.58477100  0.30786548  1
  Se  Se202  1  0.92148453  0.58605643  0.80275550  1
  Se  Se203  1  0.91404101  0.90630129  0.31684384  1
  Se  Se204  1  0.91076752  0.91992662  0.79901522  1
  Se  Se205  1  0.09138164  0.09376142  0.31244251  1
  Se  Se206  1  0.06391147  0.06505964  0.80387508  1
  Se  Se207  1  0.07853589  0.41662711  0.30230055  1
  Se  Se208  1  0.08087024  0.41462551  0.80660107  1
  Se  Se209  1  0.08672347  0.74585559  0.30206315  1
  Se  Se210  1  0.07572035  0.74349957  0.79865861  1
  Se  Se211  1  0.41085932  0.08164310  0.29835547  1
  Se  Se212  1  0.41685895  0.08573954  0.81824466  1
  Se  Se213  1  0.41898315  0.42660310  0.31423017  1
  Se  Se214  1  0.41135556  0.41304025  0.80623777  1
  Se  Se215  1  0.41999271  0.75288699  0.30948058  1
  Se  Se216  1  0.41675913  0.74199688  0.80566323  1
  Se  Se217  1  0.75225947  0.06882982  0.29286253  1
  Se  Se218  1  0.75934763  0.09862129  0.80635209  1
  Se  Se219  1  0.75033784  0.41350622  0.30055411  1
  Se  Se220  1  0.75417341  0.42798315  0.80815619  1
  Se  Se221  1  0.74775190  0.73987051  0.31047408  1
  Se  Se222  1  0.75880184  0.76025983  0.80839758  1
  Se  Se223  1  0.24824036  0.08635428  0.19838628  1
  Se  Se224  1  0.23448215  0.08579324  0.69747086  1
  Se  Se225  1  0.24774654  0.43029449  0.18903119  1
  Se  Se226  1  0.25012413  0.41528250  0.69732271  1
  Se  Se227  1  0.24403121  0.75987529  0.18244360  1
  Se  Se228  1  0.25468305  0.74487230  0.69989221  1
  Se  Se229  1  0.60162062  0.06230866  0.19783096  1
  Se  Se230  1  0.57266269  0.09574002  0.70037125  1
  Se  Se231  1  0.58818985  0.40900541  0.19762911  1
  Se  Se232  1  0.57808240  0.42834816  0.69733877  1
  Se  Se233  1  0.57707118  0.74055744  0.19605108  1
  Se  Se234  1  0.58244693  0.75319447  0.68920974  1
  Se  Se235  1  0.91977420  0.08793048  0.18820640  1
  Se  Se236  1  0.91425618  0.07622427  0.68853192  1
  Se  Se237  1  0.92097191  0.42112110  0.19636392  1
  Se  Se238  1  0.92007884  0.41064219  0.69492421  1
  Se  Se239  1  0.92331464  0.74612512  0.20280988  1
  Se  Se240  1  0.91574647  0.74301703  0.69216650  1
  Se  Se241  1  0.08655409  0.26118141  0.19801868  1
  Se  Se242  1  0.08914852  0.24072242  0.69869552  1
  Se  Se243  1  0.08034239  0.58923432  0.19330451  1
  Se  Se244  1  0.08422338  0.57975489  0.69643719  1
  Se  Se245  1  0.08906476  0.91309745  0.18932492  1
  Se  Se246  1  0.08029243  0.91050885  0.69682480  1
  Se  Se247  1  0.41798897  0.24815467  0.18907029  1
  Se  Se248  1  0.41252537  0.25642111  0.70411161  1
  Se  Se249  1  0.42087715  0.56799031  0.18725449  1
  Se  Se250  1  0.41437739  0.58519378  0.69981452  1
  Se  Se251  1  0.41764397  0.91640496  0.19775812  1
  Se  Se252  1  0.42083477  0.91023107  0.68919705  1
  Se  Se253  1  0.76607950  0.23752937  0.20338128  1
  Se  Se254  1  0.75446991  0.24987541  0.68035096  1
  Se  Se255  1  0.75000648  0.58323801  0.19978422  1
  Se  Se256  1  0.75980427  0.57937021  0.68811862  1
  Se  Se257  1  0.75750477  0.90254704  0.19964099  1
  Se  Se258  1  0.75156259  0.91321577  0.68451631  1
