# generated using pymatgen
data_In86Cu29Se144
_symmetry_space_group_name_H-M   'P 1'
_cell_length_a   17.58332080
_cell_length_b   17.58429532
_cell_length_c   23.44010619
_cell_angle_alpha   89.99286344
_cell_angle_beta   90.00309663
_cell_angle_gamma   90.01599456
_symmetry_Int_Tables_number   1
_chemical_formula_structural   In86Cu29Se144
_chemical_formula_sum   'In86 Cu29 Se144'
_cell_volume   7247.45324644
_cell_formula_units_Z   1
loop_
 _symmetry_equiv_pos_site_id
 _symmetry_equiv_pos_as_xyz
  1  'x, y, z'
loop_
 _atom_site_type_symbol
 _atom_site_label
 _atom_site_symmetry_multiplicity
 _atom_site_fract_x
 _atom_site_fract_y
 _atom_site_fract_z
 _atom_site_occupancy
  In  In0  1  0.00400450  0.16340719  0.11996329  1
  In  In1  1  -0.00941592  0.16368951  0.62117215  1
  In  In2  1  -0.02601145  0.51406798  0.15377807  1
  In  In3  1  0.00253473  0.50537602  0.61110056  1
  In  In4  1  -0.00368290  0.83368938  0.11267804  1
  In  In5  1  0.01072522  0.83676330  0.62370466  1
  In  In6  1  0.32268264  0.16824338  0.13433114  1
  In  In7  1  0.32966536  0.15853217  0.61349005  1
  In  In8  1  0.33010045  0.49996863  0.14191667  1
  In  In9  1  0.32942101  0.49643352  0.61299588  1
  In  In10  1  0.32166302  0.84515583  0.13730420  1
  In  In11  1  0.32977152  0.82876923  0.61263489  1
  In  In12  1  0.67093752  0.15085709  0.13102003  1
  In  In13  1  0.67742413  0.17496065  0.61528461  1
  In  In14  1  0.68755120  0.51056127  0.13119013  1
  In  In15  1  0.65976754  0.49127354  0.61532053  1
  In  In16  1  0.67412885  0.82984242  0.12960111  1
  In  In17  1  0.66289872  0.84538229  0.62180129  1
  In  In18  1  0.17042942  -0.00891587  0.37946288  1
  In  In19  1  0.14231604  0.02181913  0.90950674  1
  In  In20  1  0.16531276  0.32939670  0.37517760  1
  In  In21  1  0.15287926  0.33441336  0.87556255  1
  In  In22  1  0.16557652  0.66356335  0.36974462  1
  In  In23  1  0.17324750  0.67908563  0.87741797  1
  In  In24  1  0.49912606  0.00051509  0.37261922  1
  In  In25  1  0.49961637  -0.00260056  0.87419195  1
  In  In26  1  0.49046948  0.34182885  0.38170703  1
  In  In27  1  0.50524014  0.31981531  0.86913651  1
  In  In28  1  0.50023829  0.66627717  0.37405961  1
  In  In29  1  0.49331963  0.67423240  0.87684496  1
  In  In30  1  0.82907180  0.02068247  0.36441507  1
  In  In31  1  0.85094501  -0.01223789  0.90296985  1
  In  In32  1  0.84441189  0.32650513  0.37006338  1
  In  In33  1  0.83104906  0.34117438  0.88164781  1
  In  In34  1  0.81997076  0.64937133  0.34973087  1
  In  In35  1  0.83114052  0.66397242  0.89289662  1
  In  In36  1  -0.01156677  0.17836954  0.37639584  1
  In  In37  1  0.00362151  0.16458869  0.89001073  1
  In  In38  1  -0.00108422  0.50042187  0.37021922  1
  In  In39  1  -0.00872161  0.49066513  0.87531241  1
  In  In40  1  0.01224456  0.82977125  0.37540691  1
  In  In41  1  -0.00668029  0.84565462  0.89331437  1
  In  In42  1  0.32878288  0.16439272  0.37561252  1
  In  In43  1  0.32495342  0.15810016  0.87959038  1
  In  In44  1  0.33271361  0.49821601  0.37433380  1
  In  In45  1  0.33479475  0.51539250  0.87529271  1
  In  In46  1  0.33187466  0.83314462  0.37037567  1
  In  In47  1  0.32737996  0.83643771  0.88460657  1
  In  In48  1  0.67798093  0.15459727  0.37410249  1
  In  In49  1  0.66778174  0.17454241  0.87452332  1
  In  In50  1  0.66279208  0.50432588  0.37849524  1
  In  In51  1  0.68218812  0.49465502  0.87665256  1
  In  In52  1  0.66138826  0.82596052  0.36491573  1
  In  In53  1  0.67234645  0.84030491  0.88372877  1
  In  In54  1  0.17252019  0.00667733  0.11124363  1
  In  In55  1  0.15965846  -0.00321451  0.61957840  1
  In  In56  1  0.16129752  0.32915271  0.13279008  1
  In  In57  1  0.16567085  0.33523823  0.61729085  1
  In  In58  1  0.15902461  0.67304904  0.13429079  1
  In  In59  1  0.16282328  0.67004472  0.61208642  1
  In  In60  1  0.49827455  -0.00387818  0.13620293  1
  In  In61  1  0.49751985  -0.00410516  0.60839194  1
  In  In62  1  0.49284022  0.32461990  0.13382226  1
  In  In63  1  0.51224751  0.34222163  0.61180656  1
  In  In64  1  0.50717879  0.66380234  0.13841974  1
  In  In65  1  0.49327592  0.65963093  0.60731030  1
  In  In66  1  0.82926478  -0.00554019  0.10770068  1
  In  In67  1  0.83305505  0.01447452  0.62655583  1
  In  In68  1  0.84187746  0.34162630  0.12805820  1
  In  In69  1  0.82518224  0.32668496  0.61798346  1
  In  In70  1  0.83217541  0.67508586  0.12896016  1
  In  In71  1  0.84634382  0.66286486  0.62129030  1
  In  In72  1  0.67078671  0.00936807  0.75698613  1
  In  In73  1  0.33277239  -0.00123410  0.75610185  1
  In  In74  1  0.66197976  0.33643146  0.25612454  1
  In  In75  1  0.83262218  0.83032091  0.49390875  1
  In  In76  1  0.51197203  0.49479637  0.02067112  1
  In  In77  1  -0.00159450  0.33305096  0.74643772  1
  In  In78  1  0.33731436  0.33230807  0.73362748  1
  In  In79  1  0.50448658  0.83055946  0.00219849  1
  In  In80  1  0.00037684  -0.00101806  0.23956586  1
  In  In81  1  0.32525675  0.66151607  0.73612559  1
  In  In82  1  -0.00025350  0.66714987  0.74464812  1
  In  In83  1  0.50470973  0.16262814  0.00332355  1
  In  In84  1  0.15993713  0.49661519  0.00100931  1
  In  In85  1  0.66611115  0.66402659  0.75382147  1
  Cu  Cu86  1  0.83954887  0.84132205  0.24134837  1
  Cu  Cu87  1  0.67146218  0.33167233  0.49049250  1
  Cu  Cu88  1  0.66901166  0.66702130  0.49036245  1
  Cu  Cu89  1  -0.00301329  0.66278247  0.49072326  1
  Cu  Cu90  1  -0.00118623  0.65981457  0.01111045  1
  Cu  Cu91  1  0.32164905  0.32677864  0.00579290  1
  Cu  Cu92  1  0.16110448  0.16021229  0.25170405  1
  Cu  Cu93  1  0.49009826  0.16578621  0.25486671  1
  Cu  Cu94  1  0.83096154  0.49575467  0.74999553  1
  Cu  Cu95  1  -0.00189427  0.00387545  0.49377658  1
  Cu  Cu96  1  0.67083669  0.33789669  0.00344928  1
  Cu  Cu97  1  0.33304932  -0.00154043  0.49224035  1
  Cu  Cu98  1  0.32941186  0.33014864  0.49654368  1
  Cu  Cu99  1  0.33964085  0.66428983  0.01183215  1
  Cu  Cu100  1  0.17070287  0.83106756  0.25023488  1
  Cu  Cu101  1  0.00188053  0.33530662  0.49573963  1
  Cu  Cu102  1  0.16508091  0.16391432  0.75904046  1
  Cu  Cu103  1  0.00158968  0.33749636  0.00766149  1
  Cu  Cu104  1  0.15508371  0.84618230  0.75154498  1
  Cu  Cu105  1  0.50015371  0.50294116  0.25714891  1
  Cu  Cu106  1  0.50717509  0.48526259  0.74667618  1
  Cu  Cu107  1  0.50090180  0.83409894  0.25390090  1
  Cu  Cu108  1  0.84044144  0.84494601  0.76386664  1
  Cu  Cu109  1  0.49603915  0.82682865  0.74227954  1
  Cu  Cu110  1  0.66506040  -0.00095752  0.49430879  1
  Cu  Cu111  1  0.83945602  0.16395819  0.75174359  1
  Cu  Cu112  1  0.33210893  0.66942776  0.48813816  1
  Cu  Cu113  1  0.51368927  0.16947754  0.74231789  1
  Cu  Cu114  1  0.16859588  0.49023041  0.25703199  1
  Se  Se115  1  0.06920619  0.06985266  0.04849820  1
  Se  Se116  1  0.07852454  0.08451059  0.55375484  1
  Se  Se117  1  0.07232518  0.42196268  0.07083133  1
  Se  Se118  1  0.08706273  0.41920177  0.54782002  1
  Se  Se119  1  0.08875712  0.74505335  0.05389518  1
  Se  Se120  1  0.07395565  0.75051125  0.54735278  1
  Se  Se121  1  0.41298815  0.08145481  0.06622503  1
  Se  Se122  1  0.41763212  0.08413240  0.54441272  1
  Se  Se123  1  0.40262653  0.40784573  0.06354848  1
  Se  Se124  1  0.41580159  0.41522690  0.54783203  1
  Se  Se125  1  0.41830166  0.74647216  0.06966388  1
  Se  Se126  1  0.41643218  0.75210290  0.54431580  1
  Se  Se127  1  0.74231287  0.08671221  0.04925476  1
  Se  Se128  1  0.75012007  0.07900766  0.54987508  1
  Se  Se129  1  0.75255315  0.41937142  0.05891808  1
  Se  Se130  1  0.75152657  0.41585704  0.54848136  1
  Se  Se131  1  0.76118726  0.76238209  0.05617380  1
  Se  Se132  1  0.74232765  0.74259487  0.56065488  1
  Se  Se133  1  0.24100823  0.24575761  0.06043524  1
  Se  Se134  1  0.24622093  0.24782367  0.55166896  1
  Se  Se135  1  0.25358582  0.58160783  0.06386487  1
  Se  Se136  1  0.25194057  0.58863275  0.54884540  1
  Se  Se137  1  0.25567619  0.91097445  0.05375863  1
  Se  Se138  1  0.24875489  0.92031120  0.55154858  1
  Se  Se139  1  0.58977354  0.25896917  0.06320393  1
  Se  Se140  1  0.58791168  0.24892436  0.54651362  1
  Se  Se141  1  0.60096222  0.59887796  0.06286191  1
  Se  Se142  1  0.58723583  0.58173143  0.54610672  1
  Se  Se143  1  0.58717315  0.92343801  0.06274714  1
  Se  Se144  1  0.58303132  0.91056834  0.54390185  1
  Se  Se145  1  0.91674129  0.25344094  0.05793893  1
  Se  Se146  1  0.91814518  0.25286306  0.55178218  1
  Se  Se147  1  0.91492854  0.57954075  0.06536465  1
  Se  Se148  1  0.91183106  0.58149760  0.54438296  1
  Se  Se149  1  0.94048655  0.93818001  0.04752432  1
  Se  Se150  1  0.91816025  0.92276508  0.55723258  1
  Se  Se151  1  0.08227765  0.24640783  0.44548701  1
  Se  Se152  1  0.08721311  0.25642752  0.95343257  1
  Se  Se153  1  0.08457520  0.58083616  0.44111019  1
  Se  Se154  1  0.07415225  0.59103609  0.93788238  1
  Se  Se155  1  0.08211494  0.91421599  0.44947121  1
  Se  Se156  1  0.11757349  0.88521187  0.94340037  1
  Se  Se157  1  0.41361360  0.24683994  0.44507058  1
  Se  Se158  1  0.40951926  0.25659327  0.94374465  1
  Se  Se159  1  0.41770051  0.58162777  0.44235614  1
  Se  Se160  1  0.42061850  0.58423861  0.95375324  1
  Se  Se161  1  0.41646150  0.91441042  0.44072317  1
  Se  Se162  1  0.41159648  0.92871862  0.94810778  1
  Se  Se163  1  0.75483792  0.24793872  0.43855425  1
  Se  Se164  1  0.74782104  0.25355054  0.94653944  1
  Se  Se165  1  0.75703872  0.58792041  0.43940616  1
  Se  Se166  1  0.74752378  0.57499138  0.95240067  1
  Se  Se167  1  0.74774538  0.92249467  0.43247467  1
  Se  Se168  1  0.74995958  0.91062752  0.95826560  1
  Se  Se169  1  0.24484292  0.08380983  0.44656774  1
  Se  Se170  1  0.25937927  0.08223215  0.95704311  1
  Se  Se171  1  0.24833421  0.41501954  0.44285942  1
  Se  Se172  1  0.25842063  0.41279765  0.93845427  1
  Se  Se173  1  0.24479979  0.75219931  0.43900514  1
  Se  Se174  1  0.25888997  0.74285805  0.95344224  1
  Se  Se175  1  0.58357959  0.08428661  0.44187088  1
  Se  Se176  1  0.59304503  0.07289864  0.94041120  1
  Se  Se177  1  0.58346170  0.41878560  0.44661986  1
  Se  Se178  1  0.58242972  0.40831769  0.94271720  1
  Se  Se179  1  0.58471056  0.75246032  0.44213289  1
  Se  Se180  1  0.59400624  0.73568812  0.94391101  1
  Se  Se181  1  0.91080346  0.08547882  0.44352605  1
  Se  Se182  1  0.90057279  0.10686082  0.95424611  1
  Se  Se183  1  0.91752207  0.41554302  0.44059276  1
  Se  Se184  1  0.91695125  0.41908888  0.95227814  1
  Se  Se185  1  0.91418310  0.74000631  0.43029675  1
  Se  Se186  1  0.91929729  0.74677296  0.95489082  1
  Se  Se187  1  0.24546978  0.24450354  0.30434611  1
  Se  Se188  1  0.24960850  0.25147514  0.80808472  1
  Se  Se189  1  0.25193051  0.58047112  0.30347375  1
  Se  Se190  1  0.23669557  0.57827028  0.80482214  1
  Se  Se191  1  0.24891401  0.91935168  0.30238694  1
  Se  Se192  1  0.24002119  0.91510676  0.81518817  1
  Se  Se193  1  0.57307854  0.24561985  0.31514129  1
  Se  Se194  1  0.59389502  0.25273557  0.79683555  1
  Se  Se195  1  0.58744110  0.58643909  0.30482918  1
  Se  Se196  1  0.57173233  0.57399643  0.81209190  1
  Se  Se197  1  0.58547131  0.92188613  0.30195167  1
  Se  Se198  1  0.57695180  0.90313446  0.80492319  1
  Se  Se199  1  0.91324735  0.24203090  0.29507817  1
  Se  Se200  1  0.91624042  0.24658867  0.81315075  1
  Se  Se201  1  0.93660955  0.59548340  0.29835135  1
  Se  Se202  1  0.90572177  0.58153058  0.80868836  1
  Se  Se203  1  0.91508728  0.91349029  0.31121385  1
  Se  Se204  1  0.92253317  0.92620672  0.81671187  1
  Se  Se205  1  0.08101515  0.08059793  0.31306214  1
  Se  Se206  1  0.08576019  0.08487972  0.81835859  1
  Se  Se207  1  0.08006087  0.40835886  0.30541812  1
  Se  Se208  1  0.08939052  0.42966040  0.80261267  1
  Se  Se209  1  0.08336719  0.74911328  0.29999689  1
  Se  Se210  1  0.08115608  0.75774190  0.81018259  1
  Se  Se211  1  0.40868416  0.07922169  0.30562017  1
  Se  Se212  1  0.42936844  0.09790126  0.80579648  1
  Se  Se213  1  0.41537238  0.41496542  0.30328929  1
  Se  Se214  1  0.41786679  0.41999900  0.80889929  1
  Se  Se215  1  0.41751298  0.74866129  0.30449378  1
  Se  Se216  1  0.40961301  0.75428504  0.80288507  1
  Se  Se217  1  0.74320272  0.08531379  0.29025188  1
  Se  Se218  1  0.76742537  0.08580611  0.81863105  1
  Se  Se219  1  0.75634083  0.42500375  0.31099027  1
  Se  Se220  1  0.75037883  0.40996209  0.80210262  1
  Se  Se221  1  0.75424199  0.75897677  0.29455564  1
  Se  Se222  1  0.75889035  0.75564267  0.81272144  1
  Se  Se223  1  0.24048426  0.07514658  0.19579866  1
  Se  Se224  1  0.24511444  0.08881595  0.69428543  1
  Se  Se225  1  0.24970560  0.40627566  0.20167117  1
  Se  Se226  1  0.24005025  0.42879865  0.69020519  1
  Se  Se227  1  0.25575821  0.74287675  0.20061568  1
  Se  Se228  1  0.23307926  0.76493241  0.68935066  1
  Se  Se229  1  0.57727603  0.08652958  0.20143950  1
  Se  Se230  1  0.58245848  0.07993811  0.68245952  1
  Se  Se231  1  0.57677113  0.42800272  0.18903957  1
  Se  Se232  1  0.59182281  0.40780311  0.69204673  1
  Se  Se233  1  0.58890997  0.75401141  0.20112565  1
  Se  Se234  1  0.57809308  0.74811321  0.68491241  1
  Se  Se235  1  0.90549030  0.08550566  0.18489092  1
  Se  Se236  1  0.92249716  0.08119097  0.69892717  1
  Se  Se237  1  0.92054008  0.40062156  0.21043330  1
  Se  Se238  1  0.91296323  0.42559388  0.68474883  1
  Se  Se239  1  0.92620128  0.75754240  0.19201214  1
  Se  Se240  1  0.90670047  0.76582442  0.69290885  1
  Se  Se241  1  0.07721516  0.24183345  0.19778328  1
  Se  Se242  1  0.09265478  0.24180590  0.69175660  1
  Se  Se243  1  0.09153755  0.57630253  0.20091233  1
  Se  Se244  1  0.09138017  0.57899641  0.68665426  1
  Se  Se245  1  0.09400668  0.90872622  0.18489785  1
  Se  Se246  1  0.07511831  0.92837742  0.69641214  1
  Se  Se247  1  0.40729220  0.25071480  0.20322520  1
  Se  Se248  1  0.42900413  0.23905268  0.67930151  1
  Se  Se249  1  0.41566880  0.58670128  0.20380223  1
  Se  Se250  1  0.42773995  0.56981050  0.68774737  1
  Se  Se251  1  0.41310538  0.91838996  0.20509131  1
  Se  Se252  1  0.41744976  0.91131395  0.68633201  1
  Se  Se253  1  0.74753398  0.25181617  0.19069482  1
  Se  Se254  1  0.75715227  0.24238688  0.69436190  1
  Se  Se255  1  0.76069207  0.58948534  0.20410692  1
  Se  Se256  1  0.75433454  0.57898786  0.68823045  1
  Se  Se257  1  0.75576400  0.92535956  0.19024223  1
  Se  Se258  1  0.75669106  0.91229359  0.69666628  1
