# generated using pymatgen
data_In86Cu29Se144
_symmetry_space_group_name_H-M   'P 1'
_cell_length_a   17.56006987
_cell_length_b   17.56101062
_cell_length_c   23.41416957
_cell_angle_alpha   90.01779467
_cell_angle_beta   90.01987848
_cell_angle_gamma   90.01139658
_symmetry_Int_Tables_number   1
_chemical_formula_structural   In86Cu29Se144
_chemical_formula_sum   'In86 Cu29 Se144'
_cell_volume   7220.28679897
_cell_formula_units_Z   1
loop_
 _symmetry_equiv_pos_site_id
 _symmetry_equiv_pos_as_xyz
  1  'x, y, z'
loop_
 _atom_site_type_symbol
 _atom_site_label
 _atom_site_symmetry_multiplicity
 _atom_site_fract_x
 _atom_site_fract_y
 _atom_site_fract_z
 _atom_site_occupancy
  In  In0  1  0.00314752  0.17371192  0.10593937  1
  In  In1  1  0.00924294  0.17668116  0.63741832  1
  In  In2  1  -0.02799659  0.46776892  0.08747768  1
  In  In3  1  0.01258022  0.48809453  0.63776777  1
  In  In4  1  -0.00627269  0.83617823  0.10634963  1
  In  In5  1  -0.01958504  0.83571991  0.63560647  1
  In  In6  1  0.33236405  0.16776134  0.11302147  1
  In  In7  1  0.32896802  0.16262091  0.65028650  1
  In  In8  1  0.32339906  0.49155831  0.11412406  1
  In  In9  1  0.32014884  0.51157704  0.63083278  1
  In  In10  1  0.34155183  0.84127515  0.11510704  1
  In  In11  1  0.34475743  0.83047513  0.62768221  1
  In  In12  1  0.67002444  0.17077546  0.11909144  1
  In  In13  1  0.67161982  0.16262243  0.63587914  1
  In  In14  1  0.66753227  0.49912196  0.12132162  1
  In  In15  1  0.66160542  0.49378384  0.62970934  1
  In  In16  1  0.66649097  0.83344451  0.12495509  1
  In  In17  1  0.66730816  0.84520657  0.62031176  1
  In  In18  1  0.17353276  0.00224439  0.37363972  1
  In  In19  1  0.17100534  -0.01194370  0.87947653  1
  In  In20  1  0.16900138  0.34288574  0.37501975  1
  In  In21  1  0.16158199  0.32701345  0.88234115  1
  In  In22  1  0.14779969  0.65385953  0.37439775  1
  In  In23  1  0.15402897  0.68362539  0.87349429  1
  In  In24  1  0.51806947  -0.00944826  0.38292446  1
  In  In25  1  0.50070962  -0.00041678  0.87606210  1
  In  In26  1  0.50415492  0.32710598  0.37133253  1
  In  In27  1  0.50208628  0.32691281  0.87831664  1
  In  In28  1  0.51402721  0.67445365  0.36667554  1
  In  In29  1  0.49839118  0.66531800  0.88562142  1
  In  In30  1  0.79550326  -0.01122858  0.36032067  1
  In  In31  1  0.82978483  0.01039837  0.89022049  1
  In  In32  1  0.83318703  0.32026843  0.35360108  1
  In  In33  1  0.83798801  0.33476854  0.88402785  1
  In  In34  1  0.82959935  0.67966432  0.37501127  1
  In  In35  1  0.84769277  0.65614915  0.88530495  1
  In  In36  1  -0.01743670  0.16904882  0.36811951  1
  In  In37  1  -0.01225514  0.17507819  0.89410118  1
  In  In38  1  0.00633736  0.49586283  0.37419320  1
  In  In39  1  0.00164121  0.49387289  0.88236593  1
  In  In40  1  -0.00857513  0.81810573  0.37397012  1
  In  In41  1  0.01036294  0.82817799  0.88088695  1
  In  In42  1  0.33483957  0.16785528  0.37227467  1
  In  In43  1  0.33292499  0.16580740  0.87368971  1
  In  In44  1  0.31977081  0.49280267  0.37674296  1
  In  In45  1  0.34369903  0.48781214  0.88332603  1
  In  In46  1  0.34320430  0.84308841  0.37287582  1
  In  In47  1  0.31917163  0.84942762  0.87761767  1
  In  In48  1  0.66983779  0.15939837  0.35624664  1
  In  In49  1  0.66686558  0.16477417  0.87957390  1
  In  In50  1  0.66920649  0.49994455  0.36235800  1
  In  In51  1  0.68073002  0.48496833  0.88857420  1
  In  In52  1  0.67077342  0.83507663  0.37135329  1
  In  In53  1  0.65868621  0.84063643  0.88167320  1
  In  In54  1  0.15579675  0.00282190  0.09664569  1
  In  In55  1  0.16937268  0.01369911  0.63926708  1
  In  In56  1  0.14870222  0.31925626  0.09774785  1
  In  In57  1  0.15652122  0.33889769  0.64497189  1
  In  In58  1  0.15786746  0.65942003  0.11738932  1
  In  In59  1  0.17074058  0.65122245  0.63063958  1
  In  In60  1  0.51089689  0.00507785  0.12041580  1
  In  In61  1  0.50635457  -0.00553352  0.63702616  1
  In  In62  1  0.50887666  0.34002385  0.11521431  1
  In  In63  1  0.50559108  0.32442735  0.63949350  1
  In  In64  1  0.51652323  0.68175050  0.11386040  1
  In  In65  1  0.48480789  0.67806683  0.62560589  1
  In  In66  1  0.82520809  -0.00569215  0.11010158  1
  In  In67  1  0.83005823  -0.01135815  0.62758304  1
  In  In68  1  0.83451176  0.33009839  0.11634207  1
  In  In69  1  0.83752475  0.32972052  0.63875604  1
  In  In70  1  0.82376591  0.66369163  0.12083947  1
  In  In71  1  0.82833042  0.67846026  0.63163746  1
  In  In72  1  0.16187455  0.17210338  0.51790627  1
  In  In73  1  0.16533762  0.82523015  0.50651542  1
  In  In74  1  0.49745734  0.16758126  0.49591955  1
  In  In75  1  -0.00570607  0.65795148  0.24778812  1
  In  In76  1  0.66811874  0.66228768  0.75121778  1
  In  In77  1  0.34091799  0.66079826  0.25192319  1
  In  In78  1  0.33576826  0.33592035  0.25033691  1
  In  In79  1  0.49481942  0.51177507  0.50109485  1
  In  In80  1  0.83257271  0.15654900  0.49967817  1
  In  In81  1  0.83967406  0.50038444  0.49593796  1
  In  In82  1  -0.00697578  0.00499453  0.23120994  1
  In  In83  1  0.34531040  0.00896016  0.23292964  1
  In  In84  1  -0.00211283  0.00660952  0.76102774  1
  In  In85  1  0.32995262  0.66959317  0.75304273  1
  Cu  Cu86  1  0.84279110  0.49049896  0.76299653  1
  Cu  Cu87  1  0.67213785  0.33124729  0.49684942  1
  Cu  Cu88  1  0.82775061  0.83205474  0.75879675  1
  Cu  Cu89  1  0.33776316  0.00310086  0.50861490  1
  Cu  Cu90  1  0.66947882  0.67055758  0.00231482  1
  Cu  Cu91  1  0.66331624  0.68028982  0.49809600  1
  Cu  Cu92  1  0.16775511  0.49859428  0.76060339  1
  Cu  Cu93  1  0.83277194  0.49404117  0.23748283  1
  Cu  Cu94  1  0.50894076  0.49091601  0.75911464  1
  Cu  Cu95  1  0.17520091  0.83436647  0.23697060  1
  Cu  Cu96  1  -0.00823137  -0.01118607  0.50064131  1
  Cu  Cu97  1  0.66571144  0.32684421  -0.00026068  1
  Cu  Cu98  1  0.32986486  0.67398220  0.50058978  1
  Cu  Cu99  1  0.15359756  0.16857273  0.23563061  1
  Cu  Cu100  1  0.33227648  0.32369932  -0.00652325  1
  Cu  Cu101  1  0.00319603  0.67339648  -0.00452823  1
  Cu  Cu102  1  0.50404583  0.50544634  0.23716086  1
  Cu  Cu103  1  0.83139154  0.83717408  0.24564000  1
  Cu  Cu104  1  0.32519345  0.34870854  0.51026842  1
  Cu  Cu105  1  0.33871624  -0.00292095  -0.00503333  1
  Cu  Cu106  1  0.50130279  0.16610742  0.75989489  1
  Cu  Cu107  1  0.33273624  0.66610858  -0.00418647  1
  Cu  Cu108  1  0.66116821  0.00052725  0.00094255  1
  Cu  Cu109  1  0.49878518  0.84181465  0.75528920  1
  Cu  Cu110  1  0.83152313  0.16754253  0.76321774  1
  Cu  Cu111  1  0.15211793  0.48794756  0.23986393  1
  Cu  Cu112  1  0.00704722  0.33524377  0.50517280  1
  Cu  Cu113  1  0.51024972  0.16631244  0.24277286  1
  Cu  Cu114  1  0.00026562  0.65705838  0.50506221  1
  Se  Se115  1  0.07792348  0.09103976  0.03194656  1
  Se  Se116  1  0.06676189  0.07050873  0.56387529  1
  Se  Se117  1  0.11034460  0.44804890  0.05440202  1
  Se  Se118  1  0.09045375  0.41360164  0.56162034  1
  Se  Se119  1  0.09020951  0.75457760  0.04858470  1
  Se  Se120  1  0.07268827  0.74117449  0.56897026  1
  Se  Se121  1  0.41899146  0.07928350  0.05280079  1
  Se  Se122  1  0.41139024  0.08922979  0.56845521  1
  Se  Se123  1  0.41160717  0.40958819  0.04997649  1
  Se  Se124  1  0.41758601  0.41807991  0.56811322  1
  Se  Se125  1  0.41755777  0.75035573  0.04888104  1
  Se  Se126  1  0.41671683  0.75775098  0.54750841  1
  Se  Se127  1  0.74799557  0.08840698  0.04622959  1
  Se  Se128  1  0.73870967  0.07223888  0.55963886  1
  Se  Se129  1  0.74708970  0.41565645  0.05095982  1
  Se  Se130  1  0.75017714  0.40995436  0.55950073  1
  Se  Se131  1  0.75330729  0.75728858  0.05337211  1
  Se  Se132  1  0.74945971  0.75290926  0.55739851  1
  Se  Se133  1  0.24455685  0.23726598  0.04071222  1
  Se  Se134  1  0.25920556  0.25854991  0.57328030  1
  Se  Se135  1  0.24815351  0.58463149  0.04900084  1
  Se  Se136  1  0.24957301  0.58552289  0.55054590  1
  Se  Se137  1  0.25123077  0.91275672  0.04530223  1
  Se  Se138  1  0.24958519  0.92577839  0.56429571  1
  Se  Se139  1  0.57748566  0.24355112  0.04944773  1
  Se  Se140  1  0.59080685  0.25459612  0.55923567  1
  Se  Se141  1  0.58457124  0.58099326  0.05076336  1
  Se  Se142  1  0.59042374  0.59785432  0.56341762  1
  Se  Se143  1  0.58158934  0.91133056  0.05266729  1
  Se  Se144  1  0.57068509  0.91737362  0.55743156  1
  Se  Se145  1  0.93387376  0.27482960  0.04188972  1
  Se  Se146  1  0.92290972  0.25206047  0.56061103  1
  Se  Se147  1  0.91660549  0.59503977  0.05070512  1
  Se  Se148  1  0.91892828  0.58157126  0.56959431  1
  Se  Se149  1  0.92626055  0.93380127  0.04221259  1
  Se  Se150  1  0.90911474  0.90754305  0.55490818  1
  Se  Se151  1  0.07846304  0.24889253  0.44074643  1
  Se  Se152  1  0.05961985  0.27633923  0.95672399  1
  Se  Se153  1  0.08055317  0.57269652  0.45192010  1
  Se  Se154  1  0.08556363  0.58931487  0.94246496  1
  Se  Se155  1  0.07990205  0.91758328  0.43999465  1
  Se  Se156  1  0.09022413  0.90984573  0.95069117  1
  Se  Se157  1  0.40115210  0.26823025  0.44535821  1
  Se  Se158  1  0.42129105  0.24027913  0.94599455  1
  Se  Se159  1  0.40669462  0.59557626  0.43275278  1
  Se  Se160  1  0.41994822  0.57705899  0.95187810  1
  Se  Se161  1  0.41555920  0.92491111  0.44736170  1
  Se  Se162  1  0.42178904  0.91030301  0.94389123  1
  Se  Se163  1  0.74919314  0.25148740  0.43562882  1
  Se  Se164  1  0.75310361  0.24547592  0.94783360  1
  Se  Se165  1  0.73866703  0.58891677  0.44241403  1
  Se  Se166  1  0.75199153  0.58400653  0.95082020  1
  Se  Se167  1  0.76091845  0.90432179  0.44390617  1
  Se  Se168  1  0.74760553  0.91557212  0.95071306  1
  Se  Se169  1  0.25502397  0.08552216  0.44952426  1
  Se  Se170  1  0.25313094  0.07952931  0.94338682  1
  Se  Se171  1  0.23897017  0.42241121  0.45290065  1
  Se  Se172  1  0.24863990  0.41423895  0.94772235  1
  Se  Se173  1  0.24946009  0.74562876  0.43256720  1
  Se  Se174  1  0.25050133  0.75038445  0.94251774  1
  Se  Se175  1  0.60178495  0.08680505  0.44386355  1
  Se  Se176  1  0.57892080  0.08439887  0.94673160  1
  Se  Se177  1  0.58712863  0.41570350  0.44281415  1
  Se  Se178  1  0.58008038  0.41342445  0.94947086  1
  Se  Se179  1  0.57977999  0.75832968  0.44224308  1
  Se  Se180  1  0.58259001  0.75136083  0.94979433  1
  Se  Se181  1  0.91797385  0.06719430  0.43518265  1
  Se  Se182  1  0.92928458  0.07027256  0.96074057  1
  Se  Se183  1  0.92099727  0.40029748  0.43847332  1
  Se  Se184  1  0.90764470  0.42874727  0.95299545  1
  Se  Se185  1  0.91863200  0.74087710  0.45088531  1
  Se  Se186  1  0.91340746  0.75851510  0.94858823  1
  Se  Se187  1  0.23762908  0.23948687  0.30258932  1
  Se  Se188  1  0.25482242  0.26062139  0.81234473  1
  Se  Se189  1  0.23313609  0.57043999  0.30024436  1
  Se  Se190  1  0.24999949  0.57907453  0.81844830  1
  Se  Se191  1  0.25094605  0.91682386  0.29812435  1
  Se  Se192  1  0.24723932  0.91958895  0.79895045  1
  Se  Se193  1  0.58689220  0.25512693  0.29871048  1
  Se  Se194  1  0.58914576  0.24970209  0.80805188  1
  Se  Se195  1  0.58457673  0.58480685  0.29713583  1
  Se  Se196  1  0.58436471  0.57571495  0.81784101  1
  Se  Se197  1  0.59813280  0.93014909  0.30457857  1
  Se  Se198  1  0.58889986  0.92111666  0.80518193  1
  Se  Se199  1  0.93531959  0.25900228  0.29041915  1
  Se  Se200  1  0.91781679  0.24973811  0.81283187  1
  Se  Se201  1  0.90165921  0.57112936  0.31046238  1
  Se  Se202  1  0.92389305  0.58101444  0.80956706  1
  Se  Se203  1  0.91741507  0.91421565  0.30542095  1
  Se  Se204  1  0.90728497  0.91370690  0.81775835  1
  Se  Se205  1  0.08650196  0.08334514  0.30239770  1
  Se  Se206  1  0.08098484  0.09195390  0.82647754  1
  Se  Se207  1  0.07819219  0.40816283  0.30246786  1
  Se  Se208  1  0.08281185  0.41371682  0.81047149  1
  Se  Se209  1  0.09244846  0.75613190  0.29971264  1
  Se  Se210  1  0.08038594  0.75972489  0.79815254  1
  Se  Se211  1  0.43003307  0.08875557  0.30841459  1
  Se  Se212  1  0.41601098  0.07876555  0.80622096  1
  Se  Se213  1  0.42625807  0.43300542  0.30741473  1
  Se  Se214  1  0.41917292  0.41039933  0.80755013  1
  Se  Se215  1  0.42781135  0.76536131  0.30043259  1
  Se  Se216  1  0.42284866  0.75591055  0.81335460  1
  Se  Se217  1  0.78428269  0.10832963  0.29969053  1
  Se  Se218  1  0.75012636  0.07820003  0.81102934  1
  Se  Se219  1  0.74839594  0.41375286  0.29587777  1
  Se  Se220  1  0.75171927  0.41009671  0.80971609  1
  Se  Se221  1  0.75068344  0.74993825  0.29926242  1
  Se  Se222  1  0.75214414  0.74637873  0.81852464  1
  Se  Se223  1  0.23568841  0.08562147  0.18006446  1
  Se  Se224  1  0.23892520  0.08845347  0.71657056  1
  Se  Se225  1  0.23892251  0.40775899  0.18492378  1
  Se  Se226  1  0.25397515  0.42221749  0.70245433  1
  Se  Se227  1  0.25267598  0.74603998  0.18440164  1
  Se  Se228  1  0.24094918  0.75891162  0.69121979  1
  Se  Se229  1  0.59386315  0.08223090  0.19172848  1
  Se  Se230  1  0.58415018  0.08422919  0.70282627  1
  Se  Se231  1  0.58574226  0.41378959  0.19197963  1
  Se  Se232  1  0.59255128  0.41022134  0.70334278  1
  Se  Se233  1  0.58959763  0.74599753  0.19468466  1
  Se  Se234  1  0.57530763  0.75553661  0.69495634  1
  Se  Se235  1  0.90666594  0.09647811  0.17318568  1
  Se  Se236  1  0.90607563  0.09109809  0.69314703  1
  Se  Se237  1  0.92017522  0.41770636  0.18416317  1
  Se  Se238  1  0.92502532  0.40849192  0.70458331  1
  Se  Se239  1  0.91515355  0.75845630  0.18787887  1
  Se  Se240  1  0.91183448  0.74616502  0.70787521  1
  Se  Se241  1  0.07746848  0.25568492  0.18244355  1
  Se  Se242  1  0.09408664  0.23951403  0.71150529  1
  Se  Se243  1  0.07363125  0.56972925  0.18146428  1
  Se  Se244  1  0.08568756  0.58231475  0.70468987  1
  Se  Se245  1  0.09126621  0.91189363  0.17953241  1
  Se  Se246  1  0.08074095  0.91516629  0.69483618  1
  Se  Se247  1  0.42057275  0.24356399  0.18812063  1
  Se  Se248  1  0.41657706  0.25300424  0.70871792  1
  Se  Se249  1  0.41711069  0.57724444  0.17886066  1
  Se  Se250  1  0.42923734  0.57578710  0.69899133  1
  Se  Se251  1  0.43469756  0.90601874  0.19001780  1
  Se  Se252  1  0.41035525  0.91876899  0.70090976  1
  Se  Se253  1  0.74382334  0.26143136  0.18675034  1
  Se  Se254  1  0.74996600  0.24894450  0.70327912  1
  Se  Se255  1  0.74754962  0.58336158  0.19362651  1
  Se  Se256  1  0.76340448  0.56717255  0.69628815  1
  Se  Se257  1  0.75236214  0.92217371  0.19036085  1
  Se  Se258  1  0.74800632  0.91165558  0.69990568  1
