# generated using pymatgen
data_In86Cu29Se144
_symmetry_space_group_name_H-M   'P 1'
_cell_length_a   17.57810227
_cell_length_b   17.57846696
_cell_length_c   23.43251086
_cell_angle_alpha   89.99415266
_cell_angle_beta   90.00182908
_cell_angle_gamma   89.99109239
_symmetry_Int_Tables_number   1
_chemical_formula_structural   In86Cu29Se144
_chemical_formula_sum   'In86 Cu29 Se144'
_cell_volume   7240.55410290
_cell_formula_units_Z   1
loop_
 _symmetry_equiv_pos_site_id
 _symmetry_equiv_pos_as_xyz
  1  'x, y, z'
loop_
 _atom_site_type_symbol
 _atom_site_label
 _atom_site_symmetry_multiplicity
 _atom_site_fract_x
 _atom_site_fract_y
 _atom_site_fract_z
 _atom_site_occupancy
  In  In0  1  -0.00376897  0.16976446  0.14617714  1
  In  In1  1  0.00593568  0.18299978  0.60399949  1
  In  In2  1  -0.03085296  0.52354070  0.15707085  1
  In  In3  1  0.02812965  0.49817042  0.62485648  1
  In  In4  1  0.00058982  0.83424345  0.12465173  1
  In  In5  1  -0.00860598  0.82420182  0.62885115  1
  In  In6  1  0.34212965  0.15931986  0.13401363  1
  In  In7  1  0.33415172  0.16842574  0.61931843  1
  In  In8  1  0.32929819  0.50019118  0.13541124  1
  In  In9  1  0.32059328  0.47465000  0.59690671  1
  In  In10  1  0.33082832  0.83747123  0.12522006  1
  In  In11  1  0.34243960  0.83973600  0.62947616  1
  In  In12  1  0.64797242  0.17160970  0.12616438  1
  In  In13  1  0.68506602  0.18316602  0.61238001  1
  In  In14  1  0.68612282  0.50053918  0.13174726  1
  In  In15  1  0.63074845  0.49230678  0.60926926  1
  In  In16  1  0.66322188  0.83290463  0.12544676  1
  In  In17  1  0.67187248  0.83041799  0.62675820  1
  In  In18  1  0.17758603  0.01217441  0.36532419  1
  In  In19  1  0.16232544  -0.00999851  0.87572024  1
  In  In20  1  0.17497104  0.33060656  0.38852435  1
  In  In21  1  0.16953739  0.32860876  0.86933857  1
  In  In22  1  0.15581843  0.65190010  0.36826585  1
  In  In23  1  0.17229625  0.67411138  0.87609898  1
  In  In24  1  0.50889641  0.00871578  0.36846491  1
  In  In25  1  0.49417577  0.00989848  0.88403914  1
  In  In26  1  0.48241002  0.34015177  0.39033978  1
  In  In27  1  0.49424419  0.32313589  0.86660845  1
  In  In28  1  0.50113154  0.66517304  0.36612911  1
  In  In29  1  0.51057990  0.66714926  0.87911559  1
  In  In30  1  0.84517479  0.02471337  0.34794436  1
  In  In31  1  0.82167951  -0.00215177  0.87965906  1
  In  In32  1  0.83571542  0.31806379  0.37053149  1
  In  In33  1  0.83942875  0.34720505  0.87315647  1
  In  In34  1  0.83686439  0.65782340  0.35720967  1
  In  In35  1  0.83879379  0.66098738  0.88726401  1
  In  In36  1  0.00411239  0.17379893  0.37147141  1
  In  In37  1  0.00805817  0.17638323  0.87651763  1
  In  In38  1  0.00498873  0.49966123  0.37038589  1
  In  In39  1  -0.01243302  0.49555811  0.87612702  1
  In  In40  1  -0.00657631  0.82863512  0.36352293  1
  In  In41  1  0.00867804  0.82463990  0.89021426  1
  In  In42  1  0.33843754  0.16976371  0.38433708  1
  In  In43  1  0.34139683  0.17213289  0.86518676  1
  In  In44  1  0.33224515  0.49682334  0.37755715  1
  In  In45  1  0.33915912  0.49633182  0.86895990  1
  In  In46  1  0.33621391  0.83522638  0.36278657  1
  In  In47  1  0.32390596  0.84527148  0.88394340  1
  In  In48  1  0.66727388  0.16177366  0.37993614  1
  In  In49  1  0.65911901  0.16084142  0.87118941  1
  In  In50  1  0.66364353  0.49954020  0.37222248  1
  In  In51  1  0.67856690  0.50630209  0.87277530  1
  In  In52  1  0.67039408  0.83878472  0.36360436  1
  In  In53  1  0.66715216  0.83177638  0.89148620  1
  In  In54  1  0.17340081  -0.00224432  0.13256964  1
  In  In55  1  0.16880559  0.01554034  0.61847511  1
  In  In56  1  0.16538915  0.33837177  0.13295290  1
  In  In57  1  0.17958708  0.34164972  0.59857896  1
  In  In58  1  0.15650121  0.67328875  0.13245721  1
  In  In59  1  0.16552199  0.64166243  0.62467250  1
  In  In60  1  0.49779282  0.00064307  0.12694964  1
  In  In61  1  0.48695447  -0.00274754  0.62872555  1
  In  In62  1  0.50010515  0.32063996  0.12456722  1
  In  In63  1  0.50064497  0.33050742  0.62178390  1
  In  In64  1  0.48782857  0.67424127  0.13330983  1
  In  In65  1  0.50077094  0.64540300  0.61985258  1
  In  In66  1  0.84429219  -0.00604182  0.13729664  1
  In  In67  1  0.83049371  0.01173454  0.62409124  1
  In  In68  1  0.83070487  0.34122633  0.13214418  1
  In  In69  1  0.83268750  0.31712236  0.62578693  1
  In  In70  1  0.82674266  0.66843013  0.12916746  1
  In  In71  1  0.83535448  0.67161673  0.62889716  1
  In  In72  1  0.50427620  0.50111888  -0.00009596  1
  In  In73  1  0.16903156  0.16141016  0.00302496  1
  In  In74  1  0.32999628  0.66512089  0.75068958  1
  In  In75  1  0.50332185  0.83150187  0.50109785  1
  In  In76  1  0.82805557  0.16417746  0.00230273  1
  In  In77  1  0.00149111  0.00145920  0.74587172  1
  In  In78  1  0.66640612  0.33356098  0.25794237  1
  In  In79  1  0.83087155  0.83736839  0.49836051  1
  In  In80  1  0.66567058  0.00529860  0.75389765  1
  In  In81  1  0.16122278  0.83229432  0.48751086  1
  In  In82  1  0.83622644  0.49598839  0.49181550  1
  In  In83  1  0.66756968  0.66361768  0.74733476  1
  In  In84  1  0.00220631  0.33525977  0.74355539  1
  In  In85  1  0.16085298  0.50190481  0.00312228  1
  Cu  Cu86  1  0.33507527  0.00176121  0.49839949  1
  Cu  Cu87  1  0.49841727  0.83602746  0.75468265  1
  Cu  Cu88  1  0.66540063  -0.00496869  0.00587784  1
  Cu  Cu89  1  0.66639288  0.66764887  0.00647725  1
  Cu  Cu90  1  0.83160878  0.83201950  0.24225404  1
  Cu  Cu91  1  0.33206962  0.67882070  0.00427859  1
  Cu  Cu92  1  0.33623812  0.00066638  0.00696320  1
  Cu  Cu93  1  0.33887080  0.32550395  -0.00332254  1
  Cu  Cu94  1  0.49096456  0.17006139  0.25492293  1
  Cu  Cu95  1  0.84079047  0.82922369  0.75806765  1
  Cu  Cu96  1  0.66861948  0.00371189  0.49219470  1
  Cu  Cu97  1  0.49910845  0.49785547  0.25535556  1
  Cu  Cu98  1  -0.00703166  0.00843867  0.48901267  1
  Cu  Cu99  1  0.66604266  0.33492399  0.00280361  1
  Cu  Cu100  1  0.17122967  0.17068373  0.25908373  1
  Cu  Cu101  1  0.33491673  0.65899392  0.49227977  1
  Cu  Cu102  1  0.49809688  0.83418834  0.24483530  1
  Cu  Cu103  1  0.17814246  0.48780831  0.25802742  1
  Cu  Cu104  1  0.83017660  0.49943776  0.74886662  1
  Cu  Cu105  1  -0.00768736  0.34487950  0.00905687  1
  Cu  Cu106  1  0.66407014  0.33368148  0.49674604  1
  Cu  Cu107  1  0.16547363  0.83342830  0.24745966  1
  Cu  Cu108  1  0.49320462  0.48461370  0.74327870  1
  Cu  Cu109  1  0.17830734  0.16931622  0.74127254  1
  Cu  Cu110  1  0.16880907  0.83359821  0.75493850  1
  Cu  Cu111  1  -0.00636348  0.66786759  0.01163049  1
  Cu  Cu112  1  0.50214876  0.16778780  0.74416140  1
  Cu  Cu113  1  0.00113996  0.66032702  0.49611662  1
  Cu  Cu114  1  -0.00162593  -0.00144715  0.00660868  1
  Se  Se115  1  0.07255015  0.08401373  0.06658590  1
  Se  Se116  1  0.08153840  0.08171341  0.54569751  1
  Se  Se117  1  0.07287697  0.42190559  0.06931215  1
  Se  Se118  1  0.05932127  0.39724980  0.55061998  1
  Se  Se119  1  0.08512275  0.75129152  0.05507255  1
  Se  Se120  1  0.07863102  0.74442943  0.55673948  1
  Se  Se121  1  0.41880314  0.08812339  0.05584410  1
  Se  Se122  1  0.42051646  0.08036713  0.55348149  1
  Se  Se123  1  0.40990807  0.41339279  0.05826541  1
  Se  Se124  1  0.45322932  0.44447693  0.55829107  1
  Se  Se125  1  0.41961530  0.75665254  0.05673464  1
  Se  Se126  1  0.40651512  0.73977130  0.55812442  1
  Se  Se127  1  0.74242187  0.07797886  0.06682271  1
  Se  Se128  1  0.75474020  0.08373067  0.54741773  1
  Se  Se129  1  0.75142067  0.41451110  0.05570331  1
  Se  Se130  1  0.74408007  0.41422161  0.55845845  1
  Se  Se131  1  0.75068272  0.75247821  0.05692286  1
  Se  Se132  1  0.74212137  0.74056870  0.55411338  1
  Se  Se133  1  0.25588991  0.25490565  0.06154140  1
  Se  Se134  1  0.24017107  0.22921306  0.54658525  1
  Se  Se135  1  0.25603419  0.58994372  0.06073466  1
  Se  Se136  1  0.24486104  0.58130489  0.54384957  1
  Se  Se137  1  0.24630154  0.92009510  0.05530127  1
  Se  Se138  1  0.25466224  0.91550333  0.55416197  1
  Se  Se139  1  0.57816571  0.24913888  0.04715844  1
  Se  Se140  1  0.58171426  0.24791698  0.55030114  1
  Se  Se141  1  0.58802014  0.58573851  0.06730882  1
  Se  Se142  1  0.59474170  0.60276721  0.54321170  1
  Se  Se143  1  0.57737339  0.91514277  0.05722585  1
  Se  Se144  1  0.59533093  0.92542227  0.55962074  1
  Se  Se145  1  0.92159833  0.24967442  0.06267088  1
  Se  Se146  1  0.90019935  0.24656346  0.54502199  1
  Se  Se147  1  0.91423807  0.58033775  0.06372756  1
  Se  Se148  1  0.92077285  0.58544959  0.56022338  1
  Se  Se149  1  0.91239640  0.91702633  0.05760034  1
  Se  Se150  1  0.92666316  0.92617489  0.55760672  1
  Se  Se151  1  0.08999473  0.23755450  0.44760811  1
  Se  Se152  1  0.07887508  0.26749825  0.95076215  1
  Se  Se153  1  0.08529623  0.57542869  0.44699879  1
  Se  Se154  1  0.07128804  0.59287831  0.94277216  1
  Se  Se155  1  0.07156574  0.92527390  0.43088127  1
  Se  Se156  1  0.08650881  0.91939184  0.95352435  1
  Se  Se157  1  0.41231908  0.25029797  0.45950054  1
  Se  Se158  1  0.42053890  0.24360941  0.94293756  1
  Se  Se159  1  0.42417270  0.58395827  0.43911639  1
  Se  Se160  1  0.40579437  0.59211204  0.94344761  1
  Se  Se161  1  0.41365306  0.91919304  0.43932976  1
  Se  Se162  1  0.41863681  0.91737115  0.94990330  1
  Se  Se163  1  0.74829864  0.25097997  0.44466621  1
  Se  Se164  1  0.74567107  0.25677175  0.93819025  1
  Se  Se165  1  0.74991528  0.59364850  0.43654614  1
  Se  Se166  1  0.74696576  0.58162382  0.95213346  1
  Se  Se167  1  0.75236121  0.92831502  0.43275477  1
  Se  Se168  1  0.75502909  0.91536206  0.95549845  1
  Se  Se169  1  0.24786797  0.08118688  0.44667059  1
  Se  Se170  1  0.25882217  0.07745893  0.93915414  1
  Se  Se171  1  0.25881736  0.41791854  0.45359347  1
  Se  Se172  1  0.25616844  0.41079445  0.94293084  1
  Se  Se173  1  0.25723706  0.74304289  0.43349166  1
  Se  Se174  1  0.24439584  0.75592550  0.95009073  1
  Se  Se175  1  0.57587024  0.08601830  0.44857326  1
  Se  Se176  1  0.59009148  0.08277036  0.94914808  1
  Se  Se177  1  0.58517219  0.42093048  0.44451542  1
  Se  Se178  1  0.58880251  0.41119430  0.93624562  1
  Se  Se179  1  0.59145051  0.75039348  0.43559358  1
  Se  Se180  1  0.57861389  0.74845707  0.95512929  1
  Se  Se181  1  0.90957618  0.08843701  0.43486379  1
  Se  Se182  1  0.92708252  0.07964245  0.94102456  1
  Se  Se183  1  0.92579921  0.40348933  0.43699112  1
  Se  Se184  1  0.90875756  0.42307771  0.95269303  1
  Se  Se185  1  0.91855415  0.74140126  0.43972569  1
  Se  Se186  1  0.91239897  0.75248213  0.95469247  1
  Se  Se187  1  0.25579934  0.25139463  0.31353040  1
  Se  Se188  1  0.25442864  0.25460731  0.79919443  1
  Se  Se189  1  0.25576345  0.58249268  0.30533601  1
  Se  Se190  1  0.23795866  0.57233148  0.80747726  1
  Se  Se191  1  0.24997608  0.91828640  0.29861747  1
  Se  Se192  1  0.25144240  0.92004059  0.80432858  1
  Se  Se193  1  0.56993665  0.25016840  0.31702719  1
  Se  Se194  1  0.58635157  0.24743561  0.80002240  1
  Se  Se195  1  0.58860540  0.58266700  0.29936941  1
  Se  Se196  1  0.57080420  0.57049917  0.80349368  1
  Se  Se197  1  0.58010520  0.91812539  0.29925710  1
  Se  Se198  1  0.58204631  0.91017536  0.81535713  1
  Se  Se199  1  0.91444289  0.24266289  0.29791098  1
  Se  Se200  1  0.91381389  0.24551815  0.80754855  1
  Se  Se201  1  0.93631775  0.58742368  0.29706329  1
  Se  Se202  1  0.90720949  0.58170947  0.80813528  1
  Se  Se203  1  0.91619202  0.91532299  0.29506121  1
  Se  Se204  1  0.91760980  0.91478349  0.81532415  1
  Se  Se205  1  0.08063816  0.08311276  0.30129813  1
  Se  Se206  1  0.09534499  0.09515740  0.80543297  1
  Se  Se207  1  0.09365879  0.40881797  0.31304401  1
  Se  Se208  1  0.08797565  0.42546777  0.80834209  1
  Se  Se209  1  0.08504809  0.74749362  0.30156753  1
  Se  Se210  1  0.08413453  0.75491932  0.80975225  1
  Se  Se211  1  0.40994675  0.08382087  0.30839896  1
  Se  Se212  1  0.42466827  0.08194733  0.80214045  1
  Se  Se213  1  0.41671334  0.41371659  0.30765260  1
  Se  Se214  1  0.40904887  0.40679510  0.79968653  1
  Se  Se215  1  0.41709787  0.74759138  0.29800526  1
  Se  Se216  1  0.41995824  0.75287994  0.81443430  1
  Se  Se217  1  0.72278913  0.07489326  0.30125714  1
  Se  Se218  1  0.76615600  0.09446432  0.80480505  1
  Se  Se219  1  0.76454728  0.42502921  0.30791435  1
  Se  Se220  1  0.74764238  0.41574522  0.80212664  1
  Se  Se221  1  0.75072864  0.74927568  0.29849301  1
  Se  Se222  1  0.75121108  0.75376218  0.81424980  1
  Se  Se223  1  0.24962765  0.08648864  0.20040370  1
  Se  Se224  1  0.25756669  0.07908610  0.69196436  1
  Se  Se225  1  0.26021010  0.40561824  0.20219770  1
  Se  Se226  1  0.24207006  0.41868864  0.67954801  1
  Se  Se227  1  0.25121315  0.75094374  0.19480288  1
  Se  Se228  1  0.24124555  0.75470272  0.68670444  1
  Se  Se229  1  0.57403523  0.08858481  0.19885251  1
  Se  Se230  1  0.58358689  0.08760681  0.68410863  1
  Se  Se231  1  0.57780586  0.42067789  0.18988153  1
  Se  Se232  1  0.58736781  0.40996317  0.69417420  1
  Se  Se233  1  0.58434119  0.74806542  0.19671179  1
  Se  Se234  1  0.57010258  0.75446625  0.69049427  1
  Se  Se235  1  0.90551445  0.09002922  0.20703696  1
  Se  Se236  1  0.92209936  0.09732385  0.68529090  1
  Se  Se237  1  0.93039621  0.39543928  0.20069597  1
  Se  Se238  1  0.91081654  0.42533787  0.68423549  1
  Se  Se239  1  0.91999271  0.74909755  0.19334275  1
  Se  Se240  1  0.91873633  0.74352310  0.70368417  1
  Se  Se241  1  0.08917834  0.25355192  0.20376575  1
  Se  Se242  1  0.09272086  0.24652049  0.68427564  1
  Se  Se243  1  0.09882093  0.56849699  0.19728699  1
  Se  Se244  1  0.07023826  0.59597449  0.69977905  1
  Se  Se245  1  0.08094852  0.91805613  0.19549734  1
  Se  Se246  1  0.09329819  0.91010796  0.68623552  1
  Se  Se247  1  0.41336597  0.25675969  0.19974893  1
  Se  Se248  1  0.41621467  0.24914153  0.69066492  1
  Se  Se249  1  0.41546373  0.58177888  0.20092556  1
  Se  Se250  1  0.41128889  0.57027528  0.68908331  1
  Se  Se251  1  0.41226980  0.92010548  0.19563342  1
  Se  Se252  1  0.41273573  0.91988396  0.70550097  1
  Se  Se253  1  0.74807313  0.24236964  0.19249713  1
  Se  Se254  1  0.74637638  0.24887951  0.69844603  1
  Se  Se255  1  0.75800466  0.58159950  0.20381653  1
  Se  Se256  1  0.74785104  0.57133278  0.68325923  1
  Se  Se257  1  0.74361990  0.91747915  0.19557318  1
  Se  Se258  1  0.76254479  0.90993387  0.69675140  1
