# generated using pymatgen
data_In86Cu29Se144
_symmetry_space_group_name_H-M   'P 1'
_cell_length_a   17.57671169
_cell_length_b   17.57866435
_cell_length_c   23.44275496
_cell_angle_alpha   89.96417405
_cell_angle_beta   89.99761495
_cell_angle_gamma   89.99134562
_symmetry_Int_Tables_number   1
_chemical_formula_structural   In86Cu29Se144
_chemical_formula_sum   'In86 Cu29 Se144'
_cell_volume   7243.22641198
_cell_formula_units_Z   1
loop_
 _symmetry_equiv_pos_site_id
 _symmetry_equiv_pos_as_xyz
  1  'x, y, z'
loop_
 _atom_site_type_symbol
 _atom_site_label
 _atom_site_symmetry_multiplicity
 _atom_site_fract_x
 _atom_site_fract_y
 _atom_site_fract_z
 _atom_site_occupancy
  In  In0  1  -0.00789058  0.17799335  0.12883034  1
  In  In1  1  0.00048213  0.17817147  0.64295641  1
  In  In2  1  -0.00799065  0.49018080  0.11534987  1
  In  In3  1  -0.00895187  0.50520565  0.63128907  1
  In  In4  1  0.01460778  0.83059158  0.12392375  1
  In  In5  1  -0.01114275  0.83005007  0.63425733  1
  In  In6  1  0.32010383  0.16308349  0.12245623  1
  In  In7  1  0.33997560  0.17941239  0.63353506  1
  In  In8  1  0.34408736  0.50532351  0.11355851  1
  In  In9  1  0.33924647  0.50281968  0.63497356  1
  In  In10  1  0.33298253  0.83096608  0.12368611  1
  In  In11  1  0.33661798  0.82056517  0.62984269  1
  In  In12  1  0.67643865  0.15966389  0.12666770  1
  In  In13  1  0.67215644  0.17150504  0.62916830  1
  In  In14  1  0.65937254  0.49026814  0.12037828  1
  In  In15  1  0.66219651  0.49659663  0.62161299  1
  In  In16  1  0.66639544  0.84677017  0.12543741  1
  In  In17  1  0.66642947  0.83040878  0.61650887  1
  In  In18  1  0.16813210  -0.00000043  0.36536248  1
  In  In19  1  0.15106822  0.00542326  0.87750352  1
  In  In20  1  0.15601188  0.34571804  0.37319776  1
  In  In21  1  0.17938102  0.34832231  0.86263605  1
  In  In22  1  0.17417654  0.65502853  0.37120041  1
  In  In23  1  0.16698451  0.66611136  0.87596870  1
  In  In24  1  0.49625365  -0.01081215  0.36352055  1
  In  In25  1  0.48967922  -0.00736260  0.87867691  1
  In  In26  1  0.51125230  0.33021858  0.37553449  1
  In  In27  1  0.51039958  0.34010967  0.86854108  1
  In  In28  1  0.49296059  0.67334503  0.37929765  1
  In  In29  1  0.48689021  0.67596188  0.87917170  1
  In  In30  1  0.82659846  -0.00258784  0.36881474  1
  In  In31  1  0.85219421  -0.00119218  0.87654611  1
  In  In32  1  0.84030748  0.34431426  0.37197037  1
  In  In33  1  0.83390451  0.33386570  0.87484113  1
  In  In34  1  0.83939566  0.66561847  0.39181394  1
  In  In35  1  0.82666900  0.65564002  0.87305023  1
  In  In36  1  0.00187657  0.17028380  0.37015060  1
  In  In37  1  -0.00159193  0.15851025  0.86810139  1
  In  In38  1  -0.00431473  0.49295132  0.37848483  1
  In  In39  1  0.00000429  0.50032298  0.87322195  1
  In  In40  1  -0.01250416  0.83426161  0.37908183  1
  In  In41  1  0.00804605  0.84690842  0.86843727  1
  In  In42  1  0.34807655  0.16575231  0.36987544  1
  In  In43  1  0.32760078  0.18065373  0.86600757  1
  In  In44  1  0.32827327  0.51249790  0.37354648  1
  In  In45  1  0.33090534  0.50171371  0.87981367  1
  In  In46  1  0.33977699  0.83551846  0.36771184  1
  In  In47  1  0.34124340  0.81962954  0.88038936  1
  In  In48  1  0.67205984  0.17196260  0.36427296  1
  In  In49  1  0.66571625  0.18763540  0.87226064  1
  In  In50  1  0.67460301  0.49154997  0.37903299  1
  In  In51  1  0.67762317  0.49296331  0.88153035  1
  In  In52  1  0.66432282  0.83485115  0.37873021  1
  In  In53  1  0.65999080  0.82220485  0.87408094  1
  In  In54  1  0.17515415  -0.00515885  0.13048670  1
  In  In55  1  0.15984258  -0.01163511  0.62695854  1
  In  In56  1  0.15438348  0.32750670  0.11880990  1
  In  In57  1  0.16222164  0.34498211  0.64277912  1
  In  In58  1  0.17468676  0.67526753  0.11642228  1
  In  In59  1  0.16486113  0.66919894  0.63647487  1
  In  In60  1  0.50611823  -0.00896961  0.12627065  1
  In  In61  1  0.50880847  -0.00336233  0.62129749  1
  In  In62  1  0.50061317  0.34930994  0.12116832  1
  In  In63  1  0.48519346  0.34852370  0.64406958  1
  In  In64  1  0.49040904  0.65637720  0.11908361  1
  In  In65  1  0.50161612  0.66479308  0.62368722  1
  In  In66  1  0.82691671  0.01042113  0.13081320  1
  In  In67  1  0.84211390  -0.00024854  0.62623376  1
  In  In68  1  0.83490926  0.33250189  0.12283047  1
  In  In69  1  0.83097714  0.33983464  0.63196603  1
  In  In70  1  0.84558416  0.66145925  0.12138841  1
  In  In71  1  0.84786140  0.67048824  0.61009708  1
  In  In72  1  0.66585091  0.66647616  0.25678342  1
  In  In73  1  0.32881240  0.00239974  0.75418522  1
  In  In74  1  0.50074366  0.16753057  -0.00874489  1
  In  In75  1  0.67107997  0.66573004  0.74545995  1
  In  In76  1  0.33107298  0.32988712  0.24323116  1
  In  In77  1  0.83458066  0.82717280  -0.00059724  1
  In  In78  1  0.66739313  0.00108405  0.74599446  1
  In  In79  1  0.00531002  0.66580390  0.25543775  1
  In  In80  1  0.50598757  0.16714863  0.50024974  1
  In  In81  1  0.15703275  0.50425985  0.50657928  1
  In  In82  1  0.16311799  0.16957112  0.49857636  1
  In  In83  1  0.16395035  0.82831491  0.50910318  1
  In  In84  1  0.16399862  0.17015654  -0.00489156  1
  In  In85  1  0.83279863  0.16766048  0.50862513  1
  Cu  Cu86  1  0.17012157  0.50378475  0.75580650  1
  Cu  Cu87  1  0.50579992  0.16051873  0.24535109  1
  Cu  Cu88  1  0.49729357  0.82789996  0.24841543  1
  Cu  Cu89  1  0.82755343  0.49212534  0.24810978  1
  Cu  Cu90  1  0.66306862  0.66166304  0.50066912  1
  Cu  Cu91  1  0.32998985  -0.00783603  0.00161636  1
  Cu  Cu92  1  0.32975340  0.66574773  -0.00070678  1
  Cu  Cu93  1  0.49701111  0.49887250  0.24488353  1
  Cu  Cu94  1  0.66339199  -0.01012868  0.49149417  1
  Cu  Cu95  1  0.17184206  0.83600337  0.24476610  1
  Cu  Cu96  1  0.33386422  0.34345146  0.51158860  1
  Cu  Cu97  1  0.65865695  0.66240805  -0.00207976  1
  Cu  Cu98  1  0.50053445  0.51028866  0.75550764  1
  Cu  Cu99  1  -0.00209172  0.33631663  -0.00462307  1
  Cu  Cu100  1  0.83585968  0.49549819  0.75261443  1
  Cu  Cu101  1  0.83624110  0.16852984  0.24797970  1
  Cu  Cu102  1  0.66497680  0.33741060  0.50270589  1
  Cu  Cu103  1  0.82957158  0.17065395  0.75219459  1
  Cu  Cu104  1  0.67096454  0.33413218  -0.00069087  1
  Cu  Cu105  1  0.34257979  -0.00481336  0.49189797  1
  Cu  Cu106  1  0.83576093  0.84230401  0.25311844  1
  Cu  Cu107  1  0.67049264  -0.00038949  0.00368817  1
  Cu  Cu108  1  0.16389956  0.50035709  0.24543677  1
  Cu  Cu109  1  0.34043490  0.66755246  0.50104046  1
  Cu  Cu110  1  0.16473421  0.83125935  0.75327524  1
  Cu  Cu111  1  0.00037073  0.00124697  0.00094370  1
  Cu  Cu112  1  0.00323538  0.66066732  -0.00411415  1
  Cu  Cu113  1  -0.00339786  -0.00180612  0.50310495  1
  Cu  Cu114  1  0.16273466  0.16610706  0.24639560  1
  Se  Se115  1  0.08123756  0.08126831  0.06254738  1
  Se  Se116  1  0.07371010  0.08171572  0.56247092  1
  Se  Se117  1  0.08469754  0.41688314  0.04785281  1
  Se  Se118  1  0.07584526  0.40687304  0.56405084  1
  Se  Se119  1  0.08267041  0.74921947  0.04804811  1
  Se  Se120  1  0.07255788  0.73759360  0.56306368  1
  Se  Se121  1  0.41139881  0.07843608  0.05652442  1
  Se  Se122  1  0.40841981  0.08128076  0.55846790  1
  Se  Se123  1  0.41696057  0.41341422  0.04699955  1
  Se  Se124  1  0.42044685  0.42398754  0.56175083  1
  Se  Se125  1  0.41482388  0.74870061  0.05354650  1
  Se  Se126  1  0.42071775  0.75284146  0.55460777  1
  Se  Se127  1  0.75611113  0.08489668  0.05087133  1
  Se  Se128  1  0.73595678  0.07033968  0.55790801  1
  Se  Se129  1  0.75320934  0.41794802  0.05409940  1
  Se  Se130  1  0.75208020  0.41506569  0.55655191  1
  Se  Se131  1  0.74028903  0.74037867  0.06147879  1
  Se  Se132  1  0.74910544  0.74684514  0.54985788  1
  Se  Se133  1  0.25875660  0.26060358  0.05181376  1
  Se  Se134  1  0.24971448  0.25985865  0.56344557  1
  Se  Se135  1  0.24649217  0.57998760  0.05086640  1
  Se  Se136  1  0.25548280  0.59197602  0.56150830  1
  Se  Se137  1  0.24468752  0.91209155  0.05516901  1
  Se  Se138  1  0.26237585  0.92312494  0.55811476  1
  Se  Se139  1  0.58880197  0.25139539  0.05852357  1
  Se  Se140  1  0.58400353  0.26051454  0.56466626  1
  Se  Se141  1  0.57900451  0.57673296  0.05328264  1
  Se  Se142  1  0.57881867  0.57968236  0.55365876  1
  Se  Se143  1  0.58277548  0.91464296  0.04951343  1
  Se  Se144  1  0.57943961  0.91195103  0.54865604  1
  Se  Se145  1  0.91769479  0.25109187  0.05104888  1
  Se  Se146  1  0.92558088  0.25679065  0.56401141  1
  Se  Se147  1  0.91500099  0.58004563  0.04682530  1
  Se  Se148  1  0.91092300  0.56442928  0.55002300  1
  Se  Se149  1  0.91997226  0.91981590  0.06179150  1
  Se  Se150  1  0.91753044  0.91292253  0.55677719  1
  Se  Se151  1  0.07139087  0.26369480  0.44482902  1
  Se  Se152  1  0.07751630  0.25817818  0.93305914  1
  Se  Se153  1  0.07427373  0.59544816  0.44136457  1
  Se  Se154  1  0.08723476  0.57721911  0.94364414  1
  Se  Se155  1  0.08481379  0.92523797  0.44414129  1
  Se  Se156  1  0.08293835  0.91570289  0.94988100  1
  Se  Se157  1  0.40769397  0.26125026  0.44653277  1
  Se  Se158  1  0.41058305  0.26069376  0.93707327  1
  Se  Se159  1  0.41649238  0.57979919  0.44578362  1
  Se  Se160  1  0.41722619  0.58403265  0.94803996  1
  Se  Se161  1  0.42373805  0.91057580  0.44082974  1
  Se  Se162  1  0.41673456  0.90969372  0.95080377  1
  Se  Se163  1  0.74396503  0.25394065  0.44343484  1
  Se  Se164  1  0.75369181  0.24970635  0.94721886  1
  Se  Se165  1  0.74842145  0.57890534  0.44920342  1
  Se  Se166  1  0.75134910  0.58350712  0.95103883  1
  Se  Se167  1  0.75749572  0.91295132  0.44381429  1
  Se  Se168  1  0.74627447  0.91926636  0.93875261  1
  Se  Se169  1  0.25954194  0.07975533  0.43930531  1
  Se  Se170  1  0.25977045  0.07813071  0.93856410  1
  Se  Se171  1  0.25274272  0.41471920  0.44509721  1
  Se  Se172  1  0.24791560  0.41368202  0.94469484  1
  Se  Se173  1  0.25471294  0.74492528  0.44221994  1
  Se  Se174  1  0.24609901  0.75075382  0.94755661  1
  Se  Se175  1  0.58958458  0.07859615  0.43386078  1
  Se  Se176  1  0.59494367  0.07584254  0.93575962  1
  Se  Se177  1  0.58050337  0.41752406  0.44715180  1
  Se  Se178  1  0.58456592  0.41537024  0.94677009  1
  Se  Se179  1  0.58383140  0.74845927  0.44560282  1
  Se  Se180  1  0.57872245  0.75147281  0.94861384  1
  Se  Se181  1  0.92005248  0.08107427  0.44210985  1
  Se  Se182  1  0.92044109  0.08738698  0.94847064  1
  Se  Se183  1  0.91002538  0.42127200  0.44924780  1
  Se  Se184  1  0.91344349  0.42070725  0.94321566  1
  Se  Se185  1  0.92279072  0.75191263  0.45411135  1
  Se  Se186  1  0.92386727  0.74351388  0.93579402  1
  Se  Se187  1  0.24122832  0.24546124  0.31161346  1
  Se  Se188  1  0.22415377  0.23343911  0.79979526  1
  Se  Se189  1  0.25156265  0.58290029  0.29473522  1
  Se  Se190  1  0.25448708  0.58741012  0.80729461  1
  Se  Se191  1  0.25532278  0.91851369  0.30074832  1
  Se  Se192  1  0.24351995  0.91036035  0.81593630  1
  Se  Se193  1  0.58097307  0.25035596  0.29909088  1
  Se  Se194  1  0.58062926  0.25035497  0.79787278  1
  Se  Se195  1  0.57452782  0.57343989  0.31187492  1
  Se  Se196  1  0.58583610  0.58460032  0.81606698  1
  Se  Se197  1  0.58707763  0.90744922  0.30052315  1
  Se  Se198  1  0.57609701  0.91192665  0.80674341  1
  Se  Se199  1  0.91546135  0.25257668  0.30497306  1
  Se  Se200  1  0.91621161  0.25047215  0.80551802  1
  Se  Se201  1  0.90420766  0.57857617  0.30818613  1
  Se  Se202  1  0.91582437  0.58387533  0.80362741  1
  Se  Se203  1  0.92367923  0.92208158  0.30474651  1
  Se  Se204  1  0.91353923  0.91528639  0.80064115  1
  Se  Se205  1  0.08068085  0.08373173  0.30235842  1
  Se  Se206  1  0.07671605  0.07278273  0.79919827  1
  Se  Se207  1  0.07749190  0.42372335  0.30080813  1
  Se  Se208  1  0.07924120  0.41892555  0.80054559  1
  Se  Se209  1  0.09474679  0.76136851  0.31302440  1
  Se  Se210  1  0.08131417  0.74742215  0.80661134  1
  Se  Se211  1  0.41810095  0.08076454  0.29779685  1
  Se  Se212  1  0.42570995  0.09218215  0.80922961  1
  Se  Se213  1  0.41718736  0.41790301  0.30859147  1
  Se  Se214  1  0.41806305  0.42454179  0.80818817  1
  Se  Se215  1  0.41448818  0.74270742  0.30070014  1
  Se  Se216  1  0.41969987  0.75496643  0.80113292  1
  Se  Se217  1  0.75044747  0.08321673  0.29883583  1
  Se  Se218  1  0.75379588  0.08631773  0.81299507  1
  Se  Se219  1  0.74405446  0.41023207  0.30225713  1
  Se  Se220  1  0.74793082  0.41414237  0.80413564  1
  Se  Se221  1  0.76425899  0.75266364  0.31250531  1
  Se  Se222  1  0.75997865  0.75928218  0.80581913  1
  Se  Se223  1  0.25232971  0.08364455  0.19967501  1
  Se  Se224  1  0.24334226  0.08546880  0.68637636  1
  Se  Se225  1  0.24327412  0.42085917  0.18371029  1
  Se  Se226  1  0.25783215  0.42044419  0.70441558  1
  Se  Se227  1  0.25112846  0.74688732  0.19442592  1
  Se  Se228  1  0.25231933  0.74926539  0.70279852  1
  Se  Se229  1  0.58888027  0.07699119  0.19215711  1
  Se  Se230  1  0.57188317  0.09418876  0.69207627  1
  Se  Se231  1  0.58426786  0.41453460  0.19824428  1
  Se  Se232  1  0.58472268  0.42690846  0.70121359  1
  Se  Se233  1  0.58026551  0.74995684  0.18814573  1
  Se  Se234  1  0.57863481  0.76069838  0.69265065  1
  Se  Se235  1  0.92092431  0.08385168  0.19656876  1
  Se  Se236  1  0.91193675  0.08610532  0.69862731  1
  Se  Se237  1  0.91710420  0.41681457  0.19348071  1
  Se  Se238  1  0.92216257  0.41142686  0.70158697  1
  Se  Se239  1  0.91258041  0.75727620  0.19412613  1
  Se  Se240  1  0.91402089  0.73338627  0.69560371  1
  Se  Se241  1  0.08134467  0.25509832  0.19781912  1
  Se  Se242  1  0.10142057  0.24118669  0.70663124  1
  Se  Se243  1  0.08404723  0.58147530  0.18428866  1
  Se  Se244  1  0.08323423  0.57984959  0.69894077  1
  Se  Se245  1  0.08237808  0.91770211  0.19690663  1
  Se  Se246  1  0.07992164  0.91147582  0.69837543  1
  Se  Se247  1  0.42525541  0.24057260  0.18398518  1
  Se  Se248  1  0.41464439  0.25347319  0.70844818  1
  Se  Se249  1  0.41154923  0.58136789  0.19475210  1
  Se  Se250  1  0.41968634  0.59309568  0.69965087  1
  Se  Se251  1  0.41659891  0.91383536  0.19329560  1
  Se  Se252  1  0.42115572  0.91632017  0.69207984  1
  Se  Se253  1  0.75209852  0.25070034  0.19342000  1
  Se  Se254  1  0.74716533  0.25485940  0.69973799  1
  Se  Se255  1  0.75376829  0.58055905  0.19014212  1
  Se  Se256  1  0.76019928  0.57526589  0.68744023  1
  Se  Se257  1  0.74969013  0.91925639  0.19796174  1
  Se  Se258  1  0.75563895  0.90721571  0.68950589  1
