# generated using pymatgen
data_In86Cu29Se144
_symmetry_space_group_name_H-M   'P 1'
_cell_length_a   17.58661855
_cell_length_b   17.58019496
_cell_length_c   23.44820330
_cell_angle_alpha   89.99004871
_cell_angle_beta   90.00584323
_cell_angle_gamma   90.01273975
_symmetry_Int_Tables_number   1
_chemical_formula_structural   In86Cu29Se144
_chemical_formula_sum   'In86 Cu29 Se144'
_cell_volume   7249.62566394
_cell_formula_units_Z   1
loop_
 _symmetry_equiv_pos_site_id
 _symmetry_equiv_pos_as_xyz
  1  'x, y, z'
loop_
 _atom_site_type_symbol
 _atom_site_label
 _atom_site_symmetry_multiplicity
 _atom_site_fract_x
 _atom_site_fract_y
 _atom_site_fract_z
 _atom_site_occupancy
  In  In0  1  0.00889167  0.17458038  0.11522093  1
  In  In1  1  0.00624264  0.17658880  0.61749003  1
  In  In2  1  0.00507274  0.48167059  0.13046385  1
  In  In3  1  0.00693490  0.50449001  0.62220723  1
  In  In4  1  -0.00126992  0.85185059  0.11453948  1
  In  In5  1  -0.01062957  0.83225662  0.62893700  1
  In  In6  1  0.32285619  0.18410659  0.13810829  1
  In  In7  1  0.34432897  0.18043341  0.62232058  1
  In  In8  1  0.32025808  0.48141821  0.10655134  1
  In  In9  1  0.33091973  0.49057401  0.62032176  1
  In  In10  1  0.34304535  0.83513503  0.13117940  1
  In  In11  1  0.33755526  0.81940449  0.62383573  1
  In  In12  1  0.67796631  0.17055167  0.12495796  1
  In  In13  1  0.66209074  0.16655222  0.62916196  1
  In  In14  1  0.66467146  0.50595887  0.12985736  1
  In  In15  1  0.66086048  0.49377768  0.62677054  1
  In  In16  1  0.66593831  0.82255347  0.12145258  1
  In  In17  1  0.66091741  0.84539695  0.63100173  1
  In  In18  1  0.18324754  0.00771631  0.37118385  1
  In  In19  1  0.17373583  0.00552341  0.87757967  1
  In  In20  1  0.16564143  0.33719749  0.37693861  1
  In  In21  1  0.18334859  0.32098287  0.87763278  1
  In  In22  1  0.16043037  0.65168504  0.37601471  1
  In  In23  1  0.15690595  0.66766738  0.87653397  1
  In  In24  1  0.48909830  0.01410888  0.38621340  1
  In  In25  1  0.50273073  -0.00807682  0.87026924  1
  In  In26  1  0.50206466  0.33522323  0.37667738  1
  In  In27  1  0.50745666  0.34638931  0.85420194  1
  In  In28  1  0.50984308  0.65227722  0.38666894  1
  In  In29  1  0.49835167  0.63011866  0.86901338  1
  In  In30  1  0.84220716  0.01048487  0.37558621  1
  In  In31  1  0.82635866  0.01123860  0.88350976  1
  In  In32  1  0.83036493  0.33706852  0.37748745  1
  In  In33  1  0.82593735  0.32858645  0.87587511  1
  In  In34  1  0.81408942  0.66662730  0.36872399  1
  In  In35  1  0.83519612  0.66698616  0.86808778  1
  In  In36  1  -0.01113788  0.18649657  0.38376585  1
  In  In37  1  0.00417309  0.15959428  0.88402686  1
  In  In38  1  0.01522750  0.48055478  0.38818787  1
  In  In39  1  0.00145262  0.51462053  0.87442612  1
  In  In40  1  -0.00333244  0.83574353  0.37338070  1
  In  In41  1  0.00068613  0.81473419  0.87521444  1
  In  In42  1  0.33307142  0.17269512  0.37728627  1
  In  In43  1  0.32150068  0.17325703  0.87256632  1
  In  In44  1  0.34001031  0.48911672  0.38076536  1
  In  In45  1  0.35048197  0.48730852  0.89237293  1
  In  In46  1  0.33581213  0.84635118  0.37624243  1
  In  In47  1  0.33253414  0.83546056  0.87396191  1
  In  In48  1  0.65587912  0.17886220  0.38494222  1
  In  In49  1  0.67064127  0.18243324  0.85992107  1
  In  In50  1  0.66571488  0.49954373  0.37836137  1
  In  In51  1  0.65529038  0.49065946  0.85866045  1
  In  In52  1  0.66585091  0.81974355  0.37400030  1
  In  In53  1  0.67231942  0.83520069  0.86529646  1
  In  In54  1  0.16522146  0.02501265  0.12537254  1
  In  In55  1  0.15750275  0.00797769  0.62561256  1
  In  In56  1  0.16954785  0.33299158  0.12632412  1
  In  In57  1  0.17639073  0.33479312  0.62328555  1
  In  In58  1  0.17127688  0.64063890  0.12318618  1
  In  In59  1  0.17180522  0.65279111  0.62892921  1
  In  In60  1  0.49383187  -0.00815878  0.13004115  1
  In  In61  1  0.51242781  0.01291627  0.61703394  1
  In  In62  1  0.49074913  0.34623029  0.13591855  1
  In  In63  1  0.50023069  0.33305996  0.63071356  1
  In  In64  1  0.51147322  0.66219354  0.12428010  1
  In  In65  1  0.50457633  0.67149748  0.61883702  1
  In  In66  1  0.85041781  0.01201422  0.10101954  1
  In  In67  1  0.82018916  0.00390911  0.62714372  1
  In  In68  1  0.83840892  0.32935892  0.13154109  1
  In  In69  1  0.81819366  0.32337130  0.61792475  1
  In  In70  1  0.81861786  0.66528084  0.12059763  1
  In  In71  1  0.83909576  0.65709953  0.63063806  1
  In  In72  1  0.00077663  0.33683631  0.74473019  1
  In  In73  1  0.33543195  0.00148191  0.75047025  1
  In  In74  1  0.34082095  0.65846209  0.25336496  1
  In  In75  1  0.00083975  -0.00496699  0.75805905  1
  In  In76  1  0.83383650  0.49747783  -0.00047357  1
  In  In77  1  0.66410460  -0.00033097  0.24657429  1
  In  In78  1  -0.00853545  0.65859514  0.24181000  1
  In  In79  1  0.16293346  0.83460575  -0.00400630  1
  In  In80  1  0.82959901  0.83516888  0.49930389  1
  In  In81  1  0.50151143  0.82638882  -0.00373342  1
  In  In82  1  0.49959393  0.16852185  -0.00059078  1
  In  In83  1  0.33268674  0.65938393  0.75126180  1
  In  In84  1  0.00303113  0.00866215  0.24310200  1
  In  In85  1  0.16965474  0.83325382  0.49802318  1
  Cu  Cu86  1  0.00127372  0.66414326  -0.00024930  1
  Cu  Cu87  1  0.66690903  0.66361413  0.50287772  1
  Cu  Cu88  1  0.50185255  0.83077801  0.74740975  1
  Cu  Cu89  1  0.82374522  0.83760564  0.23998377  1
  Cu  Cu90  1  0.33366889  0.32770885  0.00376731  1
  Cu  Cu91  1  -0.00189095  0.33748359  0.50205461  1
  Cu  Cu92  1  0.33596262  0.66037899  0.50179054  1
  Cu  Cu93  1  0.82748144  0.49833117  0.74849970  1
  Cu  Cu94  1  0.66055373  0.33425435  -0.00745297  1
  Cu  Cu95  1  0.67001462  0.00338258  -0.00555154  1
  Cu  Cu96  1  0.49969702  0.83537415  0.25247396  1
  Cu  Cu97  1  0.66508015  0.00410441  0.50472388  1
  Cu  Cu98  1  0.16669053  0.17457271  0.25354074  1
  Cu  Cu99  1  -0.00138075  0.66121188  0.50284636  1
  Cu  Cu100  1  0.66461481  0.66121487  -0.00419128  1
  Cu  Cu101  1  0.83057313  0.49899717  0.25396348  1
  Cu  Cu102  1  0.50596920  0.50217361  0.25541182  1
  Cu  Cu103  1  0.82893091  0.17575206  0.25182278  1
  Cu  Cu104  1  0.00190737  0.01342702  0.49791885  1
  Cu  Cu105  1  0.17255946  0.82766055  0.25221768  1
  Cu  Cu106  1  0.33653706  0.33052473  0.49984881  1
  Cu  Cu107  1  0.00691164  0.33074053  0.00210394  1
  Cu  Cu108  1  0.83140656  0.82555506  0.74934596  1
  Cu  Cu109  1  0.66374568  0.33561105  0.50298566  1
  Cu  Cu110  1  0.16446087  0.50271430  0.75088833  1
  Cu  Cu111  1  0.32592320  0.01030957  0.00579209  1
  Cu  Cu112  1  0.49704598  0.16981014  0.26012329  1
  Cu  Cu113  1  0.33580651  0.00561115  0.50001103  1
  Cu  Cu114  1  0.83445956  0.16125456  0.74934169  1
  Se  Se115  1  0.06161358  0.06247383  0.05515382  1
  Se  Se116  1  0.08961907  0.09105098  0.55037303  1
  Se  Se117  1  0.08825682  0.41640439  0.05421615  1
  Se  Se118  1  0.08574153  0.41462341  0.55732862  1
  Se  Se119  1  0.08093345  0.74135419  0.06351799  1
  Se  Se120  1  0.07788777  0.74664022  0.55979016  1
  Se  Se121  1  0.41009518  0.08418384  0.06613562  1
  Se  Se122  1  0.41871126  0.08889251  0.55389337  1
  Se  Se123  1  0.42623799  0.41115558  0.04890189  1
  Se  Se124  1  0.42041192  0.41224288  0.55478615  1
  Se  Se125  1  0.41099764  0.74263048  0.06016560  1
  Se  Se126  1  0.41815388  0.75037022  0.54827180  1
  Se  Se127  1  0.74766286  0.09105198  0.04804958  1
  Se  Se128  1  0.74908048  0.08855634  0.55545086  1
  Se  Se129  1  0.74241133  0.40876000  0.05830760  1
  Se  Se130  1  0.74869108  0.42095721  0.55324210  1
  Se  Se131  1  0.74648271  0.74828629  0.04653008  1
  Se  Se132  1  0.74640569  0.74611829  0.56357208  1
  Se  Se133  1  0.24754198  0.24504895  0.05521969  1
  Se  Se134  1  0.25028308  0.24808744  0.55182030  1
  Se  Se135  1  0.25818601  0.58737725  0.04632197  1
  Se  Se136  1  0.24866163  0.58000723  0.55344885  1
  Se  Se137  1  0.25223893  0.92100200  0.06372195  1
  Se  Se138  1  0.25654008  0.92349585  0.56112730  1
  Se  Se139  1  0.58598759  0.25918069  0.06163134  1
  Se  Se140  1  0.58336947  0.25117651  0.55900430  1
  Se  Se141  1  0.58603212  0.57773050  0.05193545  1
  Se  Se142  1  0.58297691  0.57930856  0.55469132  1
  Se  Se143  1  0.58823311  0.92542049  0.05558273  1
  Se  Se144  1  0.58312971  0.91358944  0.55194928  1
  Se  Se145  1  0.91437363  0.25562158  0.05392915  1
  Se  Se146  1  0.91407030  0.25069986  0.55216649  1
  Se  Se147  1  0.92452008  0.58373257  0.06410613  1
  Se  Se148  1  0.91391650  0.57934785  0.55466429  1
  Se  Se149  1  0.90197431  0.90017376  0.04236286  1
  Se  Se150  1  0.92319835  0.92872639  0.55630790  1
  Se  Se151  1  0.08507116  0.25456974  0.44961771  1
  Se  Se152  1  0.08874217  0.24922173  0.94538439  1
  Se  Se153  1  0.08661948  0.57856328  0.45337089  1
  Se  Se154  1  0.08668960  0.58066611  0.95035905  1
  Se  Se155  1  0.07801057  0.92780100  0.43850979  1
  Se  Se156  1  0.07290820  0.92298655  0.93643955  1
  Se  Se157  1  0.42177426  0.24918016  0.44580107  1
  Se  Se158  1  0.41531825  0.25796969  0.93673925  1
  Se  Se159  1  0.41882124  0.57476683  0.45063055  1
  Se  Se160  1  0.41315581  0.59426154  0.95216224  1
  Se  Se161  1  0.41783549  0.91586166  0.45146581  1
  Se  Se162  1  0.40673920  0.92854055  0.94704660  1
  Se  Se163  1  0.75002157  0.25348551  0.44898010  1
  Se  Se164  1  0.74392294  0.24640704  0.94456051  1
  Se  Se165  1  0.75096481  0.58495176  0.44680256  1
  Se  Se166  1  0.74369134  0.57929160  0.93480562  1
  Se  Se167  1  0.74162183  0.92735740  0.43734870  1
  Se  Se168  1  0.74562020  0.91279550  0.94218361  1
  Se  Se169  1  0.25028809  0.08766229  0.44783497  1
  Se  Se170  1  0.24729415  0.09148515  0.94847418  1
  Se  Se171  1  0.25005672  0.41514085  0.44937726  1
  Se  Se172  1  0.24907567  0.41236836  0.95024411  1
  Se  Se173  1  0.25745651  0.73950689  0.43734415  1
  Se  Se174  1  0.25873540  0.74424343  0.94266417  1
  Se  Se175  1  0.58097888  0.08845372  0.45200069  1
  Se  Se176  1  0.58770371  0.08137588  0.93569705  1
  Se  Se177  1  0.58148616  0.41890901  0.44763101  1
  Se  Se178  1  0.58047604  0.41592206  0.93654830  1
  Se  Se179  1  0.58529866  0.75021141  0.44995065  1
  Se  Se180  1  0.58675921  0.73989081  0.93205525  1
  Se  Se181  1  0.91131676  0.09301894  0.44936672  1
  Se  Se182  1  0.91505290  0.08591246  0.95037713  1
  Se  Se183  1  0.91044645  0.41934120  0.45045406  1
  Se  Se184  1  0.92697569  0.40913035  0.93899336  1
  Se  Se185  1  0.92092527  0.74174799  0.44033820  1
  Se  Se186  1  0.91385251  0.74038972  0.94580341  1
  Se  Se187  1  0.25117113  0.25515647  0.30781432  1
  Se  Se188  1  0.25935973  0.25874589  0.79594065  1
  Se  Se189  1  0.24627317  0.56949244  0.30890649  1
  Se  Se190  1  0.24656380  0.57367436  0.81650887  1
  Se  Se191  1  0.25252071  0.91649801  0.30132142  1
  Se  Se192  1  0.23947646  0.90836299  0.80540664  1
  Se  Se193  1  0.58633490  0.25342866  0.30547565  1
  Se  Se194  1  0.57342120  0.24476550  0.79372416  1
  Se  Se195  1  0.58843668  0.58817091  0.30661420  1
  Se  Se196  1  0.59342896  0.59195033  0.79301727  1
  Se  Se197  1  0.57709739  0.91709061  0.31452008  1
  Se  Se198  1  0.58478689  0.91694981  0.79868241  1
  Se  Se199  1  0.91425584  0.25666572  0.30494755  1
  Se  Se200  1  0.91678417  0.24169951  0.80860122  1
  Se  Se201  1  0.91261560  0.57795642  0.31481006  1
  Se  Se202  1  0.91532580  0.58008828  0.79968975  1
  Se  Se203  1  0.90710356  0.91268422  0.30065309  1
  Se  Se204  1  0.90604251  0.90720357  0.81454668  1
  Se  Se205  1  0.08318203  0.09426614  0.31290179  1
  Se  Se206  1  0.09423852  0.09340568  0.80590384  1
  Se  Se207  1  0.07852405  0.41196456  0.30587848  1
  Se  Se208  1  0.08754836  0.41966716  0.81266677  1
  Se  Se209  1  0.08533483  0.75123317  0.30666666  1
  Se  Se210  1  0.08729911  0.74959565  0.80247538  1
  Se  Se211  1  0.41239168  0.08323794  0.30756379  1
  Se  Se212  1  0.42289311  0.09125754  0.81117408  1
  Se  Se213  1  0.42049325  0.41741690  0.30518465  1
  Se  Se214  1  0.41360465  0.43574607  0.80243031  1
  Se  Se215  1  0.42536917  0.75180121  0.31555350  1
  Se  Se216  1  0.42530447  0.75257313  0.81083350  1
  Se  Se217  1  0.75079028  0.09084399  0.30931688  1
  Se  Se218  1  0.75034418  0.08056407  0.80417565  1
  Se  Se219  1  0.74603353  0.41701254  0.30742091  1
  Se  Se220  1  0.75238433  0.40811381  0.80153514  1
  Se  Se221  1  0.74487582  0.75327997  0.29486319  1
  Se  Se222  1  0.74554273  0.74123315  0.79901783  1
  Se  Se223  1  0.24941790  0.08630550  0.20283252  1
  Se  Se224  1  0.24930689  0.09054209  0.68834416  1
  Se  Se225  1  0.25995639  0.41346139  0.19057980  1
  Se  Se226  1  0.24746727  0.42107134  0.69656232  1
  Se  Se227  1  0.24551642  0.74521507  0.18995540  1
  Se  Se228  1  0.24167598  0.75545073  0.69505166  1
  Se  Se229  1  0.57237927  0.09507968  0.19066384  1
  Se  Se230  1  0.59119959  0.07185546  0.69697521  1
  Se  Se231  1  0.58839593  0.41862651  0.19940749  1
  Se  Se232  1  0.59563073  0.40250203  0.69852175  1
  Se  Se233  1  0.58000466  0.75405060  0.19553345  1
  Se  Se234  1  0.58429498  0.74870732  0.69278421  1
  Se  Se235  1  0.90622506  0.09528994  0.18811968  1
  Se  Se236  1  0.91991583  0.08704232  0.68967966  1
  Se  Se237  1  0.91491485  0.41550388  0.20183573  1
  Se  Se238  1  0.90651067  0.42027040  0.68505553  1
  Se  Se239  1  0.91136512  0.76045672  0.18363820  1
  Se  Se240  1  0.91888355  0.74472062  0.69908250  1
  Se  Se241  1  0.08233811  0.24853855  0.19308622  1
  Se  Se242  1  0.09396626  0.24275164  0.69386891  1
  Se  Se243  1  0.09415910  0.56530826  0.20076659  1
  Se  Se244  1  0.07957293  0.58493043  0.69915440  1
  Se  Se245  1  0.09512375  0.91045586  0.19052087  1
  Se  Se246  1  0.08949062  0.90811709  0.69246313  1
  Se  Se247  1  0.41715821  0.25501032  0.20377428  1
  Se  Se248  1  0.40724124  0.26035529  0.70019304  1
  Se  Se249  1  0.42447693  0.57203361  0.18789623  1
  Se  Se250  1  0.42147582  0.57858120  0.68572996  1
  Se  Se251  1  0.41276176  0.92000489  0.20510252  1
  Se  Se252  1  0.42220696  0.91122682  0.68708366  1
  Se  Se253  1  0.74363247  0.25727241  0.19930241  1
  Se  Se254  1  0.75145485  0.24675665  0.69774851  1
  Se  Se255  1  0.75188136  0.58551548  0.19856169  1
  Se  Se256  1  0.74519278  0.58148489  0.69425141  1
  Se  Se257  1  0.75514795  0.92361295  0.17749002  1
  Se  Se258  1  0.75291636  0.91692926  0.70005143  1
