# generated using pymatgen
data_In86Cu29Se144
_symmetry_space_group_name_H-M   'P 1'
_cell_length_a   17.57978753
_cell_length_b   17.58173450
_cell_length_c   23.44589075
_cell_angle_alpha   90.00029248
_cell_angle_beta   90.00242903
_cell_angle_gamma   89.99520695
_symmetry_Int_Tables_number   1
_chemical_formula_structural   In86Cu29Se144
_chemical_formula_sum   'In86 Cu29 Se144'
_cell_volume   7246.72989729
_cell_formula_units_Z   1
loop_
 _symmetry_equiv_pos_site_id
 _symmetry_equiv_pos_as_xyz
  1  'x, y, z'
loop_
 _atom_site_type_symbol
 _atom_site_label
 _atom_site_symmetry_multiplicity
 _atom_site_fract_x
 _atom_site_fract_y
 _atom_site_fract_z
 _atom_site_occupancy
  In  In0  1  -0.00191117  0.16889654  0.12825911  1
  In  In1  1  -0.00637205  0.17591453  0.62800495  1
  In  In2  1  -0.00121859  0.48509038  0.12250766  1
  In  In3  1  0.01027705  0.49830610  0.62601973  1
  In  In4  1  0.00555535  0.84549133  0.12161557  1
  In  In5  1  0.01091147  0.82085790  0.64524618  1
  In  In6  1  0.34146672  0.15529953  0.12918998  1
  In  In7  1  0.34088138  0.16634949  0.63446178  1
  In  In8  1  0.32590241  0.51041775  0.12930242  1
  In  In9  1  0.33005673  0.50577681  0.62560610  1
  In  In10  1  0.34338346  0.82972890  0.13492622  1
  In  In11  1  0.32668536  0.83870102  0.62929484  1
  In  In12  1  0.67228064  0.17536968  0.11793004  1
  In  In13  1  0.67053370  0.14783776  0.62352118  1
  In  In14  1  0.65900528  0.49584442  0.12996704  1
  In  In15  1  0.65908632  0.50630051  0.61932414  1
  In  In16  1  0.66769958  0.83257281  0.11522830  1
  In  In17  1  0.68015525  0.84648362  0.63014077  1
  In  In18  1  0.15949598  -0.00457692  0.37287402  1
  In  In19  1  0.16031633  -0.00628286  0.86332275  1
  In  In20  1  0.17482061  0.34218862  0.36865895  1
  In  In21  1  0.17129892  0.34129713  0.87072237  1
  In  In22  1  0.17231857  0.65027048  0.38826604  1
  In  In23  1  0.15603247  0.65171230  0.87302390  1
  In  In24  1  0.49893929  0.00765131  0.37329835  1
  In  In25  1  0.49991380  0.00086571  0.87590968  1
  In  In26  1  0.50245337  0.33469063  0.37020990  1
  In  In27  1  0.48217492  0.32979139  0.87613258  1
  In  In28  1  0.47712810  0.66811043  0.37329204  1
  In  In29  1  0.50272873  0.67825220  0.87008225  1
  In  In30  1  0.84802754  -0.00581555  0.37870479  1
  In  In31  1  0.83417054  -0.00251387  0.87534157  1
  In  In32  1  0.81977910  0.32450220  0.36581730  1
  In  In33  1  0.83234127  0.31865066  0.87656238  1
  In  In34  1  0.84188080  0.67365646  0.37744462  1
  In  In35  1  0.85349208  0.67193008  0.87249483  1
  In  In36  1  -0.00960153  0.15737415  0.37076985  1
  In  In37  1  -0.01259797  0.15594231  0.86758985  1
  In  In38  1  0.01212718  0.50369741  0.37509663  1
  In  In39  1  0.01487656  0.51113754  0.86804771  1
  In  In40  1  0.00092986  0.84190784  0.37814837  1
  In  In41  1  -0.01544627  0.82045389  0.86117413  1
  In  In42  1  0.33219280  0.16779821  0.36484097  1
  In  In43  1  0.33417061  0.17056837  0.87202462  1
  In  In44  1  0.33028265  0.49832047  0.37635491  1
  In  In45  1  0.32684017  0.48636045  0.86607313  1
  In  In46  1  0.32459305  0.81885062  0.36481614  1
  In  In47  1  0.34276421  0.84123638  0.86871705  1
  In  In48  1  0.66186872  0.17300438  0.37519666  1
  In  In49  1  0.67982336  0.15423699  0.88504928  1
  In  In50  1  0.66472582  0.47985349  0.37576701  1
  In  In51  1  0.65950805  0.50737640  0.87293129  1
  In  In52  1  0.67083854  0.84173108  0.37429456  1
  In  In53  1  0.65572669  0.84289134  0.87993311  1
  In  In54  1  0.16509565  -0.00052745  0.13313881  1
  In  In55  1  0.17863162  -0.00931692  0.63156791  1
  In  In56  1  0.15950155  0.34271973  0.13119831  1
  In  In57  1  0.15931216  0.34608579  0.62645200  1
  In  In58  1  0.18078501  0.67210820  0.12127053  1
  In  In59  1  0.16525528  0.66969123  0.62456275  1
  In  In60  1  0.49188731  -0.00663108  0.11550515  1
  In  In61  1  0.50500241  -0.00122204  0.63297559  1
  In  In62  1  0.50541543  0.32652580  0.13062056  1
  In  In63  1  0.48552412  0.33806403  0.62747955  1
  In  In64  1  0.49132079  0.66791267  0.12371627  1
  In  In65  1  0.49754001  0.64986686  0.62340965  1
  In  In66  1  0.83792002  0.00746691  0.11824127  1
  In  In67  1  0.82898539  0.00390153  0.63598131  1
  In  In68  1  0.84881041  0.32629905  0.13524312  1
  In  In69  1  0.85063631  0.33073191  0.62403045  1
  In  In70  1  0.82742772  0.66658461  0.11996966  1
  In  In71  1  0.84710077  0.67800239  0.63127117  1
  In  In72  1  0.66565504  0.33206816  0.75114896  1
  In  In73  1  0.66065507  0.00217610  0.25247227  1
  In  In74  1  0.83290860  0.49850869  0.50078247  1
  In  In75  1  0.65964835  0.66010473  0.24085951  1
  In  In76  1  0.16854785  0.16977450  -0.00227167  1
  In  In77  1  0.16342054  0.16982409  0.50138638  1
  In  In78  1  0.83770435  0.49727661  0.00208306  1
  In  In79  1  0.49749754  0.50065965  0.00117437  1
  In  In80  1  0.50222849  0.16913687  0.49421594  1
  In  In81  1  0.16557942  0.83026375  -0.00385484  1
  In  In82  1  0.00425314  0.66321083  0.25306358  1
  In  In83  1  0.49823204  0.83413452  0.50424889  1
  In  In84  1  0.84329374  0.83425403  0.50486457  1
  In  In85  1  0.66768703  0.67195968  0.74642513  1
  Cu  Cu86  1  0.17007071  0.17363496  0.74836342  1
  Cu  Cu87  1  0.49587389  0.83615407  0.74895880  1
  Cu  Cu88  1  0.17297974  0.82977462  0.75170491  1
  Cu  Cu89  1  0.00312807  -0.00320159  0.50327733  1
  Cu  Cu90  1  0.83541954  0.83642800  0.24911762  1
  Cu  Cu91  1  0.66103185  0.66630372  0.50030761  1
  Cu  Cu92  1  0.49453017  0.49703952  0.25168522  1
  Cu  Cu93  1  0.16823922  0.83406751  0.25071841  1
  Cu  Cu94  1  0.33429165  -0.00476526  -0.00101856  1
  Cu  Cu95  1  0.67165626  0.67754651  -0.00506000  1
  Cu  Cu96  1  0.33416861  0.66712674  -0.00076240  1
  Cu  Cu97  1  -0.00138818  0.32878557  0.00251102  1
  Cu  Cu98  1  0.32593921  0.34394140  0.50187991  1
  Cu  Cu99  1  0.49793495  0.16796431  0.24833329  1
  Cu  Cu100  1  -0.00849200  0.00052297  -0.00404888  1
  Cu  Cu101  1  -0.00290487  0.33140947  0.49881436  1
  Cu  Cu102  1  0.17153513  0.50211628  0.25270869  1
  Cu  Cu103  1  0.66424359  0.00192659  -0.00165871  1
  Cu  Cu104  1  0.66427548  0.32535240  0.49570634  1
  Cu  Cu105  1  0.32285919  0.66154128  0.49897340  1
  Cu  Cu106  1  0.32797243  0.33391750  -0.00206221  1
  Cu  Cu107  1  0.84175689  0.49661398  0.74841829  1
  Cu  Cu108  1  0.16207563  0.17165544  0.25010878  1
  Cu  Cu109  1  0.83609969  0.16370206  0.24458162  1
  Cu  Cu110  1  0.16862328  0.50123699  0.74633574  1
  Cu  Cu111  1  0.66501061  0.32713510  0.00436371  1
  Cu  Cu112  1  0.33062024  -0.00411617  0.50237572  1
  Cu  Cu113  1  0.50291658  0.16473161  0.75445381  1
  Cu  Cu114  1  0.83578770  0.16319344  0.75289111  1
  Se  Se115  1  0.07895350  0.07558806  0.05578102  1
  Se  Se116  1  0.08217877  0.07741059  0.56489741  1
  Se  Se117  1  0.08550448  0.41338576  0.05037815  1
  Se  Se118  1  0.08058925  0.41646692  0.54888442  1
  Se  Se119  1  0.07632491  0.74231867  0.05822238  1
  Se  Se120  1  0.07997581  0.75789040  0.56161364  1
  Se  Se121  1  0.41476558  0.08522893  0.04876083  1
  Se  Se122  1  0.41439220  0.07709789  0.55750450  1
  Se  Se123  1  0.40918321  0.41156074  0.06209192  1
  Se  Se124  1  0.41434257  0.42217142  0.55453085  1
  Se  Se125  1  0.41259163  0.75220665  0.05436971  1
  Se  Se126  1  0.40651712  0.74081965  0.55897760  1
  Se  Se127  1  0.74898946  0.08467602  0.05174132  1
  Se  Se128  1  0.76282304  0.08168858  0.55573807  1
  Se  Se129  1  0.74509513  0.40957041  0.06279352  1
  Se  Se130  1  0.74266192  0.40460104  0.56031596  1
  Se  Se131  1  0.75835851  0.75536583  0.04892763  1
  Se  Se132  1  0.74342957  0.74218186  0.55971253  1
  Se  Se133  1  0.25351533  0.25491150  0.06398577  1
  Se  Se134  1  0.25797087  0.25395060  0.56245076  1
  Se  Se135  1  0.25055700  0.58213071  0.04996622  1
  Se  Se136  1  0.24166215  0.57997799  0.55513282  1
  Se  Se137  1  0.25194762  0.91945206  0.06037882  1
  Se  Se138  1  0.24718914  0.91180083  0.55254415  1
  Se  Se139  1  0.57425151  0.24688969  0.05270139  1
  Se  Se140  1  0.58649917  0.25337725  0.56452289  1
  Se  Se141  1  0.59478883  0.59341350  0.05614359  1
  Se  Se142  1  0.57636950  0.57826216  0.54565095  1
  Se  Se143  1  0.58199479  0.91525342  0.04988588  1
  Se  Se144  1  0.59333836  0.92581262  0.55736724  1
  Se  Se145  1  0.91539420  0.24683647  0.05584462  1
  Se  Se146  1  0.91509210  0.24471278  0.54819415  1
  Se  Se147  1  0.92800900  0.58984951  0.05827595  1
  Se  Se148  1  0.92119084  0.58944743  0.55961509  1
  Se  Se149  1  0.91409787  0.91461384  0.05211929  1
  Se  Se150  1  0.92726966  0.92066897  0.56956225  1
  Se  Se151  1  0.07788963  0.25501576  0.43522760  1
  Se  Se152  1  0.07575023  0.25285308  0.93572600  1
  Se  Se153  1  0.07541319  0.58237257  0.45316844  1
  Se  Se154  1  0.08070012  0.58019327  0.95019175  1
  Se  Se155  1  0.08720294  0.91597435  0.44955181  1
  Se  Se156  1  0.07520272  0.92137493  0.93874210  1
  Se  Se157  1  0.40307147  0.25846145  0.44203314  1
  Se  Se158  1  0.41095713  0.24638387  0.94978240  1
  Se  Se159  1  0.41187029  0.58187429  0.44742552  1
  Se  Se160  1  0.41286641  0.58750899  0.93624707  1
  Se  Se161  1  0.41030275  0.91941170  0.43870358  1
  Se  Se162  1  0.41959433  0.91369220  0.94599441  1
  Se  Se163  1  0.75153028  0.24517762  0.44520836  1
  Se  Se164  1  0.75338242  0.24746036  0.95266900  1
  Se  Se165  1  0.74274045  0.58975265  0.43803268  1
  Se  Se166  1  0.74822255  0.58963067  0.93926979  1
  Se  Se167  1  0.74762673  0.92342584  0.44735507  1
  Se  Se168  1  0.74875414  0.91824657  0.94549792  1
  Se  Se169  1  0.25666640  0.08157585  0.44165600  1
  Se  Se170  1  0.25079123  0.07164575  0.93865546  1
  Se  Se171  1  0.24089493  0.42260443  0.44711625  1
  Se  Se172  1  0.24787329  0.41998097  0.94614399  1
  Se  Se173  1  0.24842018  0.75330373  0.44567604  1
  Se  Se174  1  0.25668228  0.74452902  0.93409816  1
  Se  Se175  1  0.59560123  0.07144590  0.44523386  1
  Se  Se176  1  0.57844837  0.08567862  0.94711643  1
  Se  Se177  1  0.57765535  0.41043057  0.44844305  1
  Se  Se178  1  0.58978604  0.40873822  0.94186322  1
  Se  Se179  1  0.58619866  0.74659435  0.43721390  1
  Se  Se180  1  0.57680261  0.75281491  0.94729288  1
  Se  Se181  1  0.92030011  0.08057500  0.45042939  1
  Se  Se182  1  0.90954231  0.08880863  0.94678529  1
  Se  Se183  1  0.91642116  0.40946309  0.43588231  1
  Se  Se184  1  0.92362835  0.41027314  0.93728089  1
  Se  Se185  1  0.93441469  0.74033022  0.44861282  1
  Se  Se186  1  0.91963833  0.75553663  0.94677031  1
  Se  Se187  1  0.25003432  0.25360570  0.29988796  1
  Se  Se188  1  0.25325712  0.25509497  0.80402332  1
  Se  Se189  1  0.25127200  0.58750820  0.30734551  1
  Se  Se190  1  0.24973397  0.58231579  0.80413338  1
  Se  Se191  1  0.24973492  0.91955841  0.30501321  1
  Se  Se192  1  0.25564267  0.91910700  0.80019406  1
  Se  Se193  1  0.58372798  0.24922387  0.30188284  1
  Se  Se194  1  0.58335568  0.24293352  0.81680055  1
  Se  Se195  1  0.57637959  0.57761899  0.31234999  1
  Se  Se196  1  0.57252878  0.57823014  0.80010878  1
  Se  Se197  1  0.57051560  0.90549899  0.30625624  1
  Se  Se198  1  0.58001149  0.91790282  0.80321291  1
  Se  Se199  1  0.91522955  0.24726413  0.30283505  1
  Se  Se200  1  0.91728410  0.25395167  0.80058683  1
  Se  Se201  1  0.90770705  0.57554165  0.30938348  1
  Se  Se202  1  0.92183383  0.58458939  0.79994025  1
  Se  Se203  1  0.92108384  0.91619253  0.30255918  1
  Se  Se204  1  0.93815924  0.93977901  0.80924990  1
  Se  Se205  1  0.08318181  0.08344425  0.30417406  1
  Se  Se206  1  0.08609830  0.09048387  0.80113339  1
  Se  Se207  1  0.08334185  0.41939699  0.30166513  1
  Se  Se208  1  0.08430049  0.41655799  0.79999682  1
  Se  Se209  1  0.09158204  0.75290608  0.31404879  1
  Se  Se210  1  0.08778473  0.74714478  0.80421692  1
  Se  Se211  1  0.41682340  0.08180026  0.30064790  1
  Se  Se212  1  0.41570278  0.08264745  0.80630260  1
  Se  Se213  1  0.41159064  0.41434675  0.30623179  1
  Se  Se214  1  0.42466514  0.41763707  0.80169432  1
  Se  Se215  1  0.41938317  0.75277400  0.29676951  1
  Se  Se216  1  0.41439244  0.74870345  0.79888253  1
  Se  Se217  1  0.75891586  0.08581682  0.31087018  1
  Se  Se218  1  0.74988762  0.08157398  0.80511572  1
  Se  Se219  1  0.74719789  0.41778614  0.29997653  1
  Se  Se220  1  0.75787706  0.42544461  0.81074341  1
  Se  Se221  1  0.75370713  0.75293840  0.30427060  1
  Se  Se222  1  0.74897750  0.75414864  0.81542822  1
  Se  Se223  1  0.24613935  0.08707175  0.19757805  1
  Se  Se224  1  0.25243567  0.08513596  0.69794875  1
  Se  Se225  1  0.25291161  0.41802428  0.19699019  1
  Se  Se226  1  0.25235252  0.41559382  0.69473074  1
  Se  Se227  1  0.25132908  0.74891312  0.19852699  1
  Se  Se228  1  0.25298640  0.74628930  0.69568759  1
  Se  Se229  1  0.57869788  0.08996020  0.18595297  1
  Se  Se230  1  0.58726778  0.08292901  0.70071049  1
  Se  Se231  1  0.58131946  0.41460049  0.20058511  1
  Se  Se232  1  0.57813344  0.42499352  0.69262310  1
  Se  Se233  1  0.57577280  0.76190718  0.18927114  1
  Se  Se234  1  0.57520973  0.75950584  0.68382349  1
  Se  Se235  1  0.91938066  0.07753865  0.19459549  1
  Se  Se236  1  0.92260062  0.08525459  0.69796517  1
  Se  Se237  1  0.91969787  0.42112571  0.19989886  1
  Se  Se238  1  0.92482861  0.41506371  0.69437010  1
  Se  Se239  1  0.91424551  0.75333892  0.19017997  1
  Se  Se240  1  0.90349298  0.76347501  0.70781085  1
  Se  Se241  1  0.07832973  0.25381059  0.19620627  1
  Se  Se242  1  0.08492360  0.25394018  0.69333795  1
  Se  Se243  1  0.09312858  0.57912922  0.18763824  1
  Se  Se244  1  0.08317171  0.58658812  0.69617156  1
  Se  Se245  1  0.08081575  0.91590287  0.20020947  1
  Se  Se246  1  0.08982417  0.91977224  0.70301452  1
  Se  Se247  1  0.41227469  0.25091982  0.19620874  1
  Se  Se248  1  0.42105824  0.25117343  0.70280188  1
  Se  Se249  1  0.41821714  0.58494317  0.19671481  1
  Se  Se250  1  0.41013201  0.58820592  0.69639947  1
  Se  Se251  1  0.40736680  0.93521576  0.19395615  1
  Se  Se252  1  0.41292954  0.92118330  0.69605445  1
  Se  Se253  1  0.74995577  0.24794465  0.19484638  1
  Se  Se254  1  0.75689489  0.24459415  0.69016440  1
  Se  Se255  1  0.76171804  0.57171673  0.19240510  1
  Se  Se256  1  0.75896734  0.57444633  0.68854721  1
  Se  Se257  1  0.75204049  0.91409301  0.19027740  1
  Se  Se258  1  0.75419121  0.91711930  0.70644424  1
