# generated using pymatgen
data_In86Cu29Se144
_symmetry_space_group_name_H-M   'P 1'
_cell_length_a   17.58591993
_cell_length_b   17.57849303
_cell_length_c   23.44373003
_cell_angle_alpha   89.99220209
_cell_angle_beta   89.99720773
_cell_angle_gamma   89.99622106
_symmetry_Int_Tables_number   1
_chemical_formula_structural   In86Cu29Se144
_chemical_formula_sum   'In86 Cu29 Se144'
_cell_volume   7247.25326598
_cell_formula_units_Z   1
loop_
 _symmetry_equiv_pos_site_id
 _symmetry_equiv_pos_as_xyz
  1  'x, y, z'
loop_
 _atom_site_type_symbol
 _atom_site_label
 _atom_site_symmetry_multiplicity
 _atom_site_fract_x
 _atom_site_fract_y
 _atom_site_fract_z
 _atom_site_occupancy
  In  In0  1  0.01873839  0.16307718  0.12400665  1
  In  In1  1  0.00233700  0.16099582  0.61807878  1
  In  In2  1  0.00160386  0.47882516  0.13056340  1
  In  In3  1  -0.00562202  0.50202777  0.62680605  1
  In  In4  1  0.00431092  0.84519325  0.12692381  1
  In  In5  1  0.01556624  0.85930374  0.59666074  1
  In  In6  1  0.33374188  0.16451077  0.12905936  1
  In  In7  1  0.33551745  0.17369729  0.61544437  1
  In  In8  1  0.32955033  0.50532383  0.13033200  1
  In  In9  1  0.32760961  0.48320561  0.62213385  1
  In  In10  1  0.33978304  0.82021950  0.13800566  1
  In  In11  1  0.33052372  0.83020041  0.61438763  1
  In  In12  1  0.64815323  0.17196541  0.12699409  1
  In  In13  1  0.65816326  0.15744274  0.61920896  1
  In  In14  1  0.67392446  0.50054296  0.13201598  1
  In  In15  1  0.66822248  0.50048238  0.61334194  1
  In  In16  1  0.65440283  0.84952217  0.14025126  1
  In  In17  1  0.67868637  0.84909585  0.61284390  1
  In  In18  1  0.17673366  -0.00709846  0.38726173  1
  In  In19  1  0.17451877  0.01089565  0.87286245  1
  In  In20  1  0.15795016  0.32511139  0.36645860  1
  In  In21  1  0.16518185  0.33076732  0.87332999  1
  In  In22  1  0.18119128  0.67696772  0.36937243  1
  In  In23  1  0.15753288  0.66132422  0.87750590  1
  In  In24  1  0.49758145  0.00032893  0.37571414  1
  In  In25  1  0.50338038  0.00187964  0.88025327  1
  In  In26  1  0.49462116  0.34203757  0.37804871  1
  In  In27  1  0.48318783  0.33587352  0.87521168  1
  In  In28  1  0.49797121  0.66728809  0.37255351  1
  In  In29  1  0.51092884  0.67668532  0.87933912  1
  In  In30  1  0.82401000  0.01680944  0.39061521  1
  In  In31  1  0.84384799  0.02430004  0.84866854  1
  In  In32  1  0.84663461  0.31554986  0.38544540  1
  In  In33  1  0.84922110  0.31596950  0.86913405  1
  In  In34  1  0.82002287  0.67775262  0.38379696  1
  In  In35  1  0.82700411  0.67009660  0.87365399  1
  In  In36  1  -0.00615928  0.17019585  0.38708503  1
  In  In37  1  0.01326800  0.18173370  0.85795429  1
  In  In38  1  0.00249899  0.48253620  0.37751987  1
  In  In39  1  0.01649672  0.49356685  0.87603103  1
  In  In40  1  -0.00070001  0.84349583  0.39121279  1
  In  In41  1  -0.01236886  0.83465586  0.86771034  1
  In  In42  1  0.33293149  0.16844285  0.37441498  1
  In  In43  1  0.32028297  0.17368463  0.88299284  1
  In  In44  1  0.33835678  0.50959491  0.36552181  1
  In  In45  1  0.33017466  0.48199797  0.87171065  1
  In  In46  1  0.33344647  0.83935847  0.37439607  1
  In  In47  1  0.33817877  0.84796079  0.87853856  1
  In  In48  1  0.67615339  0.15347091  0.37907545  1
  In  In49  1  0.67244708  0.15496332  0.87499239  1
  In  In50  1  0.65799087  0.50417181  0.37971322  1
  In  In51  1  0.66540684  0.50719648  0.87625355  1
  In  In52  1  0.66369880  0.83549528  0.37332807  1
  In  In53  1  0.65786052  0.84448273  0.87873855  1
  In  In54  1  0.16421518  0.01219785  0.12854430  1
  In  In55  1  0.15305586  -0.00212370  0.61373541  1
  In  In56  1  0.17079288  0.33054988  0.12603268  1
  In  In57  1  0.18181239  0.32800025  0.63328175  1
  In  In58  1  0.18897905  0.66416159  0.12854027  1
  In  In59  1  0.15663059  0.67114818  0.62343835  1
  In  In60  1  0.50009701  -0.00130074  0.12756495  1
  In  In61  1  0.50353895  0.00577079  0.61605901  1
  In  In62  1  0.50316241  0.30836562  0.12442099  1
  In  In63  1  0.49306975  0.32560138  0.61598458  1
  In  In64  1  0.49225379  0.67877636  0.13534397  1
  In  In65  1  0.50915916  0.67491401  0.61315340  1
  In  In66  1  0.83446043  -0.00689077  0.13227501  1
  In  In67  1  0.83859282  0.00390844  0.61960369  1
  In  In68  1  0.82909104  0.33797167  0.13082436  1
  In  In69  1  0.83797712  0.33404864  0.62078584  1
  In  In70  1  0.82968074  0.65673163  0.13769069  1
  In  In71  1  0.83315142  0.66626681  0.61552922  1
  In  In72  1  0.17419605  0.83670925  0.00398523  1
  In  In73  1  0.66969123  0.32678728  0.75023193  1
  In  In74  1  0.16974866  0.50390141  0.49775839  1
  In  In75  1  0.66876937  0.67294356  0.75180501  1
  In  In76  1  0.83252549  0.49466121  0.01061955  1
  In  In77  1  0.82103009  0.83296351  -0.00414651  1
  In  In78  1  0.83059010  0.16754022  -0.00339829  1
  In  In79  1  0.00348049  0.00607801  0.25944689  1
  In  In80  1  -0.00074526  0.66783803  0.74362976  1
  In  In81  1  0.33122981  0.66410563  0.74539697  1
  In  In82  1  0.66412073  0.32668238  0.25219501  1
  In  In83  1  0.49384701  0.49690148  0.00117780  1
  In  In84  1  0.32939277  0.00135294  0.75023980  1
  In  In85  1  -0.00098569  0.66623031  0.26179538  1
  Cu  Cu86  1  0.49161077  0.17155374  0.74362789  1
  Cu  Cu87  1  0.50019282  0.83465449  0.25695070  1
  Cu  Cu88  1  0.16566116  0.49814461  0.24992057  1
  Cu  Cu89  1  0.00987099  0.65977909  0.00164245  1
  Cu  Cu90  1  -0.00165753  0.66375255  0.49948322  1
  Cu  Cu91  1  0.66429745  0.00050456  0.00147349  1
  Cu  Cu92  1  0.34012379  0.66900127  0.49160320  1
  Cu  Cu93  1  0.83846345  0.49407669  0.74687814  1
  Cu  Cu94  1  0.17225594  0.17008700  0.25127211  1
  Cu  Cu95  1  0.00345980  0.00459034  -0.00650047  1
  Cu  Cu96  1  0.33848264  0.66529519  0.00666282  1
  Cu  Cu97  1  0.66021204  0.67605204  0.01075238  1
  Cu  Cu98  1  0.34360948  0.00284033  0.00537427  1
  Cu  Cu99  1  0.83640415  0.84753817  0.73693154  1
  Cu  Cu100  1  0.16374686  0.16576324  0.74655466  1
  Cu  Cu101  1  0.82683041  0.49476188  0.25775655  1
  Cu  Cu102  1  0.49624994  0.50112451  0.25305962  1
  Cu  Cu103  1  0.82958777  0.83539823  0.25792360  1
  Cu  Cu104  1  0.49372106  0.49372471  0.74180668  1
  Cu  Cu105  1  0.49508255  0.15752667  0.25234831  1
  Cu  Cu106  1  0.66947163  0.32927673  0.49829916  1
  Cu  Cu107  1  0.33671162  0.00555854  0.49697817  1
  Cu  Cu108  1  0.65951707  0.66170405  0.49195353  1
  Cu  Cu109  1  0.66143477  -0.00531196  0.49806922  1
  Cu  Cu110  1  0.33240812  0.33390504  0.49590940  1
  Cu  Cu111  1  0.50334744  0.84219560  0.75088336  1
  Cu  Cu112  1  0.00210494  0.33341197  0.50272082  1
  Cu  Cu113  1  0.32764476  0.32551789  0.00148213  1
  Cu  Cu114  1  0.00829752  0.32720938  0.00011980  1
  Se  Se115  1  0.08919388  0.08219913  0.04823383  1
  Se  Se116  1  0.07886500  0.08233698  0.54215397  1
  Se  Se117  1  0.08634519  0.41369253  0.05526632  1
  Se  Se118  1  0.08423781  0.41473576  0.56093619  1
  Se  Se119  1  0.08133144  0.74516907  0.06324560  1
  Se  Se120  1  0.08799453  0.74788293  0.54559085  1
  Se  Se121  1  0.42322866  0.08839040  0.05920759  1
  Se  Se122  1  0.42027593  0.09011918  0.54953228  1
  Se  Se123  1  0.40906613  0.40519903  0.06309242  1
  Se  Se124  1  0.41579936  0.41751179  0.54909988  1
  Se  Se125  1  0.41776930  0.75311896  0.05721159  1
  Se  Se126  1  0.42033352  0.75406085  0.54750668  1
  Se  Se127  1  0.74761513  0.07678191  0.06231288  1
  Se  Se128  1  0.74537927  0.07919545  0.55113644  1
  Se  Se129  1  0.73255300  0.40247960  0.05729282  1
  Se  Se130  1  0.75322964  0.41409701  0.55116965  1
  Se  Se131  1  0.74614090  0.74895047  0.07107495  1
  Se  Se132  1  0.73972291  0.74151243  0.55170323  1
  Se  Se133  1  0.24749138  0.24171969  0.05740544  1
  Se  Se134  1  0.24576143  0.25462906  0.54979744  1
  Se  Se135  1  0.25231822  0.57886830  0.05197562  1
  Se  Se136  1  0.26057971  0.59422380  0.55878168  1
  Se  Se137  1  0.26149067  0.92354389  0.06668693  1
  Se  Se138  1  0.25284768  0.92294414  0.55162599  1
  Se  Se139  1  0.58659486  0.24896651  0.04654313  1
  Se  Se140  1  0.58239934  0.24738916  0.55073604  1
  Se  Se141  1  0.58371419  0.58611966  0.06469498  1
  Se  Se142  1  0.57834404  0.57799134  0.54777612  1
  Se  Se143  1  0.58481390  0.91584524  0.05678019  1
  Se  Se144  1  0.57455302  0.91092801  0.54902213  1
  Se  Se145  1  0.92072282  0.25522342  0.06100089  1
  Se  Se146  1  0.91656680  0.24810903  0.55199917  1
  Se  Se147  1  0.92617395  0.58891748  0.06553073  1
  Se  Se148  1  0.91727910  0.57814575  0.55169575  1
  Se  Se149  1  0.92192512  0.92401496  0.05158256  1
  Se  Se150  1  0.88651025  0.89316775  0.55428106  1
  Se  Se151  1  0.08749791  0.25457455  0.44760804  1
  Se  Se152  1  0.08514805  0.24289803  0.94300185  1
  Se  Se153  1  0.08068469  0.59167498  0.43420343  1
  Se  Se154  1  0.09040548  0.57409452  0.95104389  1
  Se  Se155  1  0.07846726  0.93068852  0.45652811  1
  Se  Se156  1  0.07941271  0.91570880  0.93745848  1
  Se  Se157  1  0.41767677  0.25068411  0.44414079  1
  Se  Se158  1  0.41586294  0.24759772  0.94809432  1
  Se  Se159  1  0.41896926  0.57876184  0.44241651  1
  Se  Se160  1  0.41077111  0.58937874  0.93581956  1
  Se  Se161  1  0.41756886  0.91685713  0.44627876  1
  Se  Se162  1  0.42321894  0.91718910  0.95092216  1
  Se  Se163  1  0.75213151  0.24102959  0.44968993  1
  Se  Se164  1  0.74322525  0.26182057  0.93789467  1
  Se  Se165  1  0.75114314  0.57756744  0.44741465  1
  Se  Se166  1  0.74225131  0.59559827  0.95167148  1
  Se  Se167  1  0.74787647  0.91280231  0.44569644  1
  Se  Se168  1  0.75283787  0.93730462  0.93493391  1
  Se  Se169  1  0.25144119  0.09178900  0.44844344  1
  Se  Se170  1  0.25242431  0.07760786  0.95151870  1
  Se  Se171  1  0.25348828  0.41446476  0.43359269  1
  Se  Se172  1  0.24852229  0.41116283  0.94598821  1
  Se  Se173  1  0.25155054  0.75442624  0.44632683  1
  Se  Se174  1  0.25972086  0.74325974  0.94064203  1
  Se  Se175  1  0.58126348  0.08269400  0.44581015  1
  Se  Se176  1  0.58440840  0.08793453  0.94850743  1
  Se  Se177  1  0.58349728  0.41449451  0.44861705  1
  Se  Se178  1  0.58700181  0.41276974  0.93914978  1
  Se  Se179  1  0.57985881  0.75091266  0.44161123  1
  Se  Se180  1  0.58451465  0.75935801  0.95208898  1
  Se  Se181  1  0.93463154  0.06725301  0.45305880  1
  Se  Se182  1  0.92399568  0.08399196  0.93409980  1
  Se  Se183  1  0.91577829  0.41559213  0.45109010  1
  Se  Se184  1  0.92087428  0.40822388  0.94451544  1
  Se  Se185  1  0.91455663  0.74988360  0.44956956  1
  Se  Se186  1  0.92436127  0.73935243  0.94548880  1
  Se  Se187  1  0.25667231  0.25554772  0.30236451  1
  Se  Se188  1  0.24800980  0.24567505  0.80373964  1
  Se  Se189  1  0.24816515  0.58636101  0.29820831  1
  Se  Se190  1  0.24379146  0.57680084  0.80889546  1
  Se  Se191  1  0.24800610  0.92187230  0.30785015  1
  Se  Se192  1  0.24000661  0.90501456  0.80616429  1
  Se  Se193  1  0.57541798  0.23869805  0.31391860  1
  Se  Se194  1  0.57218039  0.24485725  0.81007667  1
  Se  Se195  1  0.58284906  0.58229773  0.30426995  1
  Se  Se196  1  0.57007257  0.57640829  0.80335270  1
  Se  Se197  1  0.58423835  0.92212383  0.30502266  1
  Se  Se198  1  0.58389240  0.92540706  0.80510209  1
  Se  Se199  1  0.92463993  0.24768487  0.30848547  1
  Se  Se200  1  0.90561177  0.23140225  0.79269665  1
  Se  Se201  1  0.90703646  0.57534483  0.31809061  1
  Se  Se202  1  0.91101148  0.57843226  0.81080419  1
  Se  Se203  1  0.91042993  0.91541012  0.31598826  1
  Se  Se204  1  0.92335018  0.92243324  0.79427109  1
  Se  Se205  1  0.09563442  0.09379863  0.31737604  1
  Se  Se206  1  0.08630390  0.07734763  0.80037391  1
  Se  Se207  1  0.07930914  0.41453845  0.29863656  1
  Se  Se208  1  0.06907268  0.39860669  0.80491767  1
  Se  Se209  1  0.08344641  0.76659817  0.31363395  1
  Se  Se210  1  0.08970292  0.75602751  0.80727972  1
  Se  Se211  1  0.40945113  0.07759352  0.30600526  1
  Se  Se212  1  0.41755871  0.09172546  0.81083111  1
  Se  Se213  1  0.41389094  0.41315138  0.30155278  1
  Se  Se214  1  0.41252993  0.41172999  0.79633474  1
  Se  Se215  1  0.41308043  0.75033046  0.30563007  1
  Se  Se216  1  0.42347231  0.75768594  0.80732811  1
  Se  Se217  1  0.76336203  0.08670115  0.30593806  1
  Se  Se218  1  0.73647456  0.08625556  0.79213372  1
  Se  Se219  1  0.75143772  0.41061832  0.31837176  1
  Se  Se220  1  0.75758191  0.42254168  0.81239121  1
  Se  Se221  1  0.74519353  0.74735516  0.30432620  1
  Se  Se222  1  0.76067291  0.77092365  0.80567737  1
  Se  Se223  1  0.25218317  0.08169393  0.19998188  1
  Se  Se224  1  0.24475288  0.08782070  0.68454214  1
  Se  Se225  1  0.25011666  0.41596386  0.19582974  1
  Se  Se226  1  0.25093113  0.42126921  0.70146769  1
  Se  Se227  1  0.24163681  0.75371316  0.20360395  1
  Se  Se228  1  0.24171224  0.75958588  0.69112214  1
  Se  Se229  1  0.58391702  0.08050918  0.19867474  1
  Se  Se230  1  0.57392482  0.08450658  0.69394135  1
  Se  Se231  1  0.57301766  0.41845578  0.19039484  1
  Se  Se232  1  0.58337618  0.41847814  0.68699352  1
  Se  Se233  1  0.58521830  0.74958155  0.20352579  1
  Se  Se234  1  0.58268539  0.76235519  0.68943360  1
  Se  Se235  1  0.91817745  0.09063928  0.19044706  1
  Se  Se236  1  0.92759509  0.07507076  0.68928638  1
  Se  Se237  1  0.91080499  0.41399042  0.20315588  1
  Se  Se238  1  0.91998079  0.41145137  0.69474896  1
  Se  Se239  1  0.91316049  0.76065880  0.19501492  1
  Se  Se240  1  0.91162991  0.75651374  0.68356000  1
  Se  Se241  1  0.08549886  0.25030598  0.19709108  1
  Se  Se242  1  0.08338091  0.24688036  0.68892612  1
  Se  Se243  1  0.08299528  0.58128093  0.19100959  1
  Se  Se244  1  0.09555858  0.57190926  0.69496624  1
  Se  Se245  1  0.09349254  0.91337344  0.19868765  1
  Se  Se246  1  0.08423248  0.90961451  0.68549239  1
  Se  Se247  1  0.41650707  0.24702051  0.20024643  1
  Se  Se248  1  0.40975203  0.25487318  0.69141349  1
  Se  Se249  1  0.41390655  0.58600970  0.19860425  1
  Se  Se250  1  0.42492757  0.58261670  0.68200862  1
  Se  Se251  1  0.41935617  0.91559754  0.19808567  1
  Se  Se252  1  0.41813213  0.91231725  0.68808317  1
  Se  Se253  1  0.75545457  0.23681850  0.19282777  1
  Se  Se254  1  0.75256416  0.24083041  0.68505978  1
  Se  Se255  1  0.74437719  0.58168558  0.20795177  1
  Se  Se256  1  0.75455221  0.57647518  0.69233008  1
  Se  Se257  1  0.74990525  0.92286939  0.20497847  1
  Se  Se258  1  0.74503523  0.92810942  0.69089808  1
