# generated using pymatgen
data_In86Cu29Se144
_symmetry_space_group_name_H-M   'P 1'
_cell_length_a   17.58131441
_cell_length_b   17.58147167
_cell_length_c   23.43882436
_cell_angle_alpha   89.97569016
_cell_angle_beta   89.98858126
_cell_angle_gamma   90.00032504
_symmetry_Int_Tables_number   1
_chemical_formula_structural   In86Cu29Se144
_chemical_formula_sum   'In86 Cu29 Se144'
_cell_volume   7245.06594216
_cell_formula_units_Z   1
loop_
 _symmetry_equiv_pos_site_id
 _symmetry_equiv_pos_as_xyz
  1  'x, y, z'
loop_
 _atom_site_type_symbol
 _atom_site_label
 _atom_site_symmetry_multiplicity
 _atom_site_fract_x
 _atom_site_fract_y
 _atom_site_fract_z
 _atom_site_occupancy
  In  In0  1  0.00570133  0.16917783  0.12628018  1
  In  In1  1  0.00943321  0.16186495  0.62784823  1
  In  In2  1  -0.01811673  0.49424264  0.12103651  1
  In  In3  1  0.01040473  0.49136731  0.64221415  1
  In  In4  1  0.01496889  0.83184546  0.12352485  1
  In  In5  1  -0.00727784  0.82963505  0.62702648  1
  In  In6  1  0.31949387  0.17460668  0.12723224  1
  In  In7  1  0.33485113  0.16187058  0.62710836  1
  In  In8  1  0.34629576  0.48565937  0.12258381  1
  In  In9  1  0.32433293  0.48940229  0.64193704  1
  In  In10  1  0.32598240  0.84049194  0.13306540  1
  In  In11  1  0.34045287  0.82968150  0.62769099  1
  In  In12  1  0.68679945  0.16924841  0.12234659  1
  In  In13  1  0.65826055  0.17648899  0.61820987  1
  In  In14  1  0.66582580  0.49968629  0.12896011  1
  In  In15  1  0.68086298  0.50341178  0.62548612  1
  In  In16  1  0.65595362  0.82439846  0.12980366  1
  In  In17  1  0.65850601  0.82915514  0.61764506  1
  In  In18  1  0.17924769  0.01216601  0.37004263  1
  In  In19  1  0.17035303  -0.00396386  0.87891582  1
  In  In20  1  0.16280552  0.32721657  0.36743139  1
  In  In21  1  0.15875975  0.32595547  0.86564081  1
  In  In22  1  0.16604660  0.65163835  0.37396010  1
  In  In23  1  0.17625692  0.67283333  0.86969027  1
  In  In24  1  0.49687964  0.01271928  0.38695092  1
  In  In25  1  0.48933020  0.01261961  0.87448210  1
  In  In26  1  0.48789107  0.32233576  0.36642177  1
  In  In27  1  0.49774527  0.34923113  0.87731153  1
  In  In28  1  0.50734990  0.67462451  0.37297227  1
  In  In29  1  0.48720398  0.65512576  0.86768959  1
  In  In30  1  0.82801538  -0.01610077  0.37408217  1
  In  In31  1  0.84624289  0.00712088  0.87320086  1
  In  In32  1  0.83855014  0.34062446  0.35779587  1
  In  In33  1  0.84816399  0.32818947  0.88274234  1
  In  In34  1  0.83013013  0.67864043  0.37736721  1
  In  In35  1  0.82138220  0.65907542  0.86787797  1
  In  In36  1  0.01245662  0.17381852  0.37045956  1
  In  In37  1  -0.00292634  0.17624992  0.87660669  1
  In  In38  1  0.00616234  0.49863749  0.36802332  1
  In  In39  1  0.00033174  0.48420179  0.87056835  1
  In  In40  1  -0.01862692  0.83053352  0.37865510  1
  In  In41  1  0.00930820  0.84546680  0.87379607  1
  In  In42  1  0.33302219  0.16698244  0.37637916  1
  In  In43  1  0.31694652  0.16211816  0.86248301  1
  In  In44  1  0.33141922  0.49768631  0.36397410  1
  In  In45  1  0.33126667  0.50320870  0.86882760  1
  In  In46  1  0.34138320  0.84248306  0.37187408  1
  In  In47  1  0.32468554  0.82390996  0.86821565  1
  In  In48  1  0.65440623  0.16336055  0.37063700  1
  In  In49  1  0.67414193  0.18290782  0.87602488  1
  In  In50  1  0.67379613  0.50205076  0.35735197  1
  In  In51  1  0.65765835  0.50647227  0.88292996  1
  In  In52  1  0.67388654  0.83395980  0.38570095  1
  In  In53  1  0.66851686  0.81137539  0.87057633  1
  In  In54  1  0.16564879  0.00076435  0.12652195  1
  In  In55  1  0.16721307  0.02529173  0.62518851  1
  In  In56  1  0.18206669  0.31713259  0.12518444  1
  In  In57  1  0.19282799  0.29830804  0.66712840  1
  In  In58  1  0.16840819  0.68055562  0.12050636  1
  In  In59  1  0.17148388  0.65882439  0.64334437  1
  In  In60  1  0.49582840  -0.01045073  0.13086572  1
  In  In61  1  0.49503610  -0.01139366  0.61167069  1
  In  In62  1  0.48602819  0.34347727  0.12635699  1
  In  In63  1  0.49826499  0.32186391  0.61829288  1
  In  In64  1  0.50868050  0.65653249  0.13192856  1
  In  In65  1  0.48711760  0.67648397  0.63023841  1
  In  In66  1  0.83669454  0.01722899  0.12444700  1
  In  In67  1  0.84062826  -0.00911889  0.62082067  1
  In  In68  1  0.83895923  0.33805652  0.13096454  1
  In  In69  1  0.83467109  0.33576481  0.62799734  1
  In  In70  1  0.82828230  0.64916987  0.12592547  1
  In  In71  1  0.82673985  0.67664450  0.64376340  1
  In  In72  1  0.66404408  -0.00142075  0.25407752  1
  In  In73  1  -0.00074015  0.66521038  0.24750744  1
  In  In74  1  0.50163160  0.49955712  0.49619435  1
  In  In75  1  0.49611198  0.83297063  0.00714237  1
  In  In76  1  0.82735107  0.15803273  0.49510726  1
  In  In77  1  0.83769177  0.83484689  -0.00601039  1
  In  In78  1  0.16883039  0.49453023  -0.00642837  1
  In  In79  1  0.49582225  0.17427972  0.00307178  1
  In  In80  1  0.66302534  -0.00208996  0.74620919  1
  In  In81  1  0.83941462  0.50094950  0.50041782  1
  In  In82  1  0.00059981  -0.00051989  0.74841989  1
  In  In83  1  0.16605232  0.49412411  0.51231582  1
  In  In84  1  0.16667743  0.83613635  0.50125262  1
  In  In85  1  0.66456339  0.33679782  0.74729716  1
  Cu  Cu86  1  0.32472059  -0.00059115  0.00188228  1
  Cu  Cu87  1  0.00789637  0.32627967  0.50026301  1
  Cu  Cu88  1  0.00135512  0.33085966  0.00246689  1
  Cu  Cu89  1  0.83204107  0.49695787  0.75490577  1
  Cu  Cu90  1  0.32576521  0.32765655  0.50287418  1
  Cu  Cu91  1  0.82910044  0.83087698  0.25261089  1
  Cu  Cu92  1  0.84519099  0.17038995  0.24613678  1
  Cu  Cu93  1  0.33204415  0.00708598  0.49874154  1
  Cu  Cu94  1  0.00563364  0.00995942  -0.00008373  1
  Cu  Cu95  1  0.49339529  0.82913916  0.25456486  1
  Cu  Cu96  1  0.48771800  0.16808509  0.74582404  1
  Cu  Cu97  1  0.67709137  0.00591531  -0.00335271  1
  Cu  Cu98  1  -0.00753155  0.66489380  0.51160735  1
  Cu  Cu99  1  0.00239927  -0.00070988  0.50158976  1
  Cu  Cu100  1  0.16661078  0.83490792  0.25021569  1
  Cu  Cu101  1  0.66382520  0.65794620  0.00287960  1
  Cu  Cu102  1  0.50250994  0.83846360  0.74522804  1
  Cu  Cu103  1  0.66607401  0.67099588  0.50341062  1
  Cu  Cu104  1  0.67643432  0.33993501  0.00353868  1
  Cu  Cu105  1  0.49623444  0.16530844  0.25119929  1
  Cu  Cu106  1  0.16973268  0.16293087  0.24870471  1
  Cu  Cu107  1  0.33713849  0.67254404  0.50327256  1
  Cu  Cu108  1  0.49532902  0.49566088  0.24755167  1
  Cu  Cu109  1  0.33534797  0.66382931  -0.00547286  1
  Cu  Cu110  1  0.00112597  0.66587885  0.00073187  1
  Cu  Cu111  1  0.65950667  0.32789025  0.48859668  1
  Cu  Cu112  1  0.16891338  0.49813813  0.24321113  1
  Cu  Cu113  1  0.50194872  0.50596101  0.75280974  1
  Cu  Cu114  1  0.17329301  0.83992127  0.75179925  1
  Se  Se115  1  0.08993878  0.08847901  0.05612135  1
  Se  Se116  1  0.08312064  0.08998929  0.54809196  1
  Se  Se117  1  0.08294462  0.41110261  0.06213538  1
  Se  Se118  1  0.07944981  0.40136720  0.56807833  1
  Se  Se119  1  0.08578598  0.75343089  0.04641211  1
  Se  Se120  1  0.08722529  0.73856324  0.56319198  1
  Se  Se121  1  0.41257806  0.07323675  0.06064168  1
  Se  Se122  1  0.41751975  0.08843704  0.55296626  1
  Se  Se123  1  0.41448336  0.40898672  0.04441912  1
  Se  Se124  1  0.40412350  0.41691031  0.55830657  1
  Se  Se125  1  0.40795325  0.74078970  0.06458486  1
  Se  Se126  1  0.42152132  0.75780528  0.55117164  1
  Se  Se127  1  0.76064382  0.08972354  0.04690822  1
  Se  Se128  1  0.74128291  0.07453764  0.56113789  1
  Se  Se129  1  0.75596807  0.42153413  0.06114652  1
  Se  Se130  1  0.74108102  0.40393126  0.55111206  1
  Se  Se131  1  0.74327232  0.74814353  0.05589466  1
  Se  Se132  1  0.75540801  0.74309385  0.56025010  1
  Se  Se133  1  0.25365072  0.24593031  0.04580783  1
  Se  Se134  1  0.24613378  0.25547813  0.56814391  1
  Se  Se135  1  0.25436889  0.58569151  0.05772640  1
  Se  Se136  1  0.26050203  0.59031698  0.56375891  1
  Se  Se137  1  0.24653346  0.91283441  0.05706432  1
  Se  Se138  1  0.25409095  0.92735996  0.56191762  1
  Se  Se139  1  0.59323738  0.25765284  0.06191930  1
  Se  Se140  1  0.57618624  0.24737035  0.54268913  1
  Se  Se141  1  0.57918564  0.57646119  0.05579357  1
  Se  Se142  1  0.58739725  0.58731324  0.56177026  1
  Se  Se143  1  0.59664269  0.92769760  0.05719837  1
  Se  Se144  1  0.59030055  0.91871252  0.54765722  1
  Se  Se145  1  0.91776684  0.25197440  0.06025163  1
  Se  Se146  1  0.91629741  0.25093063  0.55543335  1
  Se  Se147  1  0.91347052  0.58418413  0.04947846  1
  Se  Se148  1  0.91963834  0.58074075  0.57229799  1
  Se  Se149  1  0.92414355  0.92475055  0.05834944  1
  Se  Se150  1  0.92162121  0.91067527  0.55035368  1
  Se  Se151  1  0.09315084  0.24778584  0.44586313  1
  Se  Se152  1  0.08526003  0.25269030  0.94542954  1
  Se  Se153  1  0.07157035  0.58527970  0.44930396  1
  Se  Se154  1  0.07996783  0.58897460  0.93645546  1
  Se  Se155  1  0.07917166  0.92100259  0.43608718  1
  Se  Se156  1  0.08514299  0.91915249  0.95047653  1
  Se  Se157  1  0.41375592  0.25248782  0.44691592  1
  Se  Se158  1  0.41141146  0.24805483  0.93071093  1
  Se  Se159  1  0.40654420  0.58733826  0.43933424  1
  Se  Se160  1  0.41619552  0.57657809  0.94463673  1
  Se  Se161  1  0.41420801  0.91916405  0.44863724  1
  Se  Se162  1  0.40906029  0.92105325  0.94284887  1
  Se  Se163  1  0.75126194  0.25796067  0.43127726  1
  Se  Se164  1  0.75566443  0.25252347  0.95060892  1
  Se  Se165  1  0.74036433  0.58528672  0.44260235  1
  Se  Se166  1  0.75256364  0.58272670  0.94767110  1
  Se  Se167  1  0.75670890  0.91532084  0.45329408  1
  Se  Se168  1  0.74291444  0.92024461  0.93271680  1
  Se  Se169  1  0.24663763  0.09040976  0.44870609  1
  Se  Se170  1  0.25034865  0.08639536  0.94487353  1
  Se  Se171  1  0.25307226  0.41381818  0.44149763  1
  Se  Se172  1  0.25625264  0.40446211  0.93447311  1
  Se  Se173  1  0.25167014  0.74255780  0.43984000  1
  Se  Se174  1  0.25080914  0.75134352  0.94735415  1
  Se  Se175  1  0.59948063  0.07831825  0.44843489  1
  Se  Se176  1  0.59045320  0.08385201  0.94100168  1
  Se  Se177  1  0.58753650  0.41506414  0.42973227  1
  Se  Se178  1  0.58465529  0.41539265  0.95150395  1
  Se  Se179  1  0.58173948  0.75121377  0.44899024  1
  Se  Se180  1  0.58071564  0.73935347  0.94473287  1
  Se  Se181  1  0.92489534  0.07628880  0.43526401  1
  Se  Se182  1  0.91821245  0.08841133  0.94673013  1
  Se  Se183  1  0.92798671  0.40710959  0.44053463  1
  Se  Se184  1  0.92084830  0.41965767  0.95121667  1
  Se  Se185  1  0.91301426  0.74578322  0.45394322  1
  Se  Se186  1  0.92441130  0.74344023  0.93455767  1
  Se  Se187  1  0.25322934  0.24727576  0.30323256  1
  Se  Se188  1  0.24724791  0.25425098  0.79262836  1
  Se  Se189  1  0.24778572  0.58392094  0.29807398  1
  Se  Se190  1  0.26665605  0.60064067  0.80235158  1
  Se  Se191  1  0.25097638  0.91727405  0.30432114  1
  Se  Se192  1  0.25515081  0.92409665  0.80482322  1
  Se  Se193  1  0.58307621  0.25037765  0.29950095  1
  Se  Se194  1  0.57155082  0.24518200  0.80633745  1
  Se  Se195  1  0.57435752  0.58150964  0.30252743  1
  Se  Se196  1  0.58878936  0.58622528  0.80445582  1
  Se  Se197  1  0.57511575  0.91080344  0.31510962  1
  Se  Se198  1  0.57569714  0.91187603  0.81489606  1
  Se  Se199  1  0.92870281  0.25300701  0.30014363  1
  Se  Se200  1  0.91301664  0.25001989  0.80420479  1
  Se  Se201  1  0.90659250  0.58123260  0.30981462  1
  Se  Se202  1  0.91691525  0.57681832  0.80907350  1
  Se  Se203  1  0.91617452  0.91411691  0.30117386  1
  Se  Se204  1  0.90592206  0.90640691  0.80338660  1
  Se  Se205  1  0.08432227  0.08082886  0.30213603  1
  Se  Se206  1  0.08644023  0.08685890  0.81103941  1
  Se  Se207  1  0.08622547  0.41730980  0.29934994  1
  Se  Se208  1  0.10309928  0.43280996  0.80031623  1
  Se  Se209  1  0.08636020  0.75499186  0.31269844  1
  Se  Se210  1  0.08874773  0.75984976  0.80618958  1
  Se  Se211  1  0.41838676  0.08186380  0.30868480  1
  Se  Se212  1  0.40901324  0.08002340  0.79830077  1
  Se  Se213  1  0.41007254  0.40997444  0.29821292  1
  Se  Se214  1  0.41754954  0.41847712  0.80069018  1
  Se  Se215  1  0.40982032  0.74388074  0.30660667  1
  Se  Se216  1  0.42144800  0.75478568  0.80246491  1
  Se  Se217  1  0.76193081  0.09094044  0.30732388  1
  Se  Se218  1  0.75179629  0.08943373  0.80780530  1
  Se  Se219  1  0.75179784  0.41689243  0.29148310  1
  Se  Se220  1  0.75008635  0.41790137  0.81596836  1
  Se  Se221  1  0.74344712  0.75269490  0.30691434  1
  Se  Se222  1  0.75610090  0.75217990  0.79712328  1
  Se  Se223  1  0.25365756  0.07861837  0.19606742  1
  Se  Se224  1  0.24603244  0.09320563  0.70062261  1
  Se  Se225  1  0.25309581  0.41393591  0.19106262  1
  Se  Se226  1  0.21454438  0.43721872  0.70312304  1
  Se  Se227  1  0.24802469  0.74792250  0.19884706  1
  Se  Se228  1  0.25619293  0.75423624  0.69928671  1
  Se  Se229  1  0.58048536  0.09060959  0.18823315  1
  Se  Se230  1  0.57315043  0.09059558  0.68766721  1
  Se  Se231  1  0.57982297  0.41289767  0.19453720  1
  Se  Se232  1  0.57412292  0.42574922  0.68466361  1
  Se  Se233  1  0.57989173  0.74751150  0.20311868  1
  Se  Se234  1  0.58336894  0.75082464  0.69396047  1
  Se  Se235  1  0.92571400  0.08137356  0.19692320  1
  Se  Se236  1  0.90485014  0.08808907  0.69110020  1
  Se  Se237  1  0.91783042  0.42158751  0.20188367  1
  Se  Se238  1  0.91227814  0.41148294  0.70152639  1
  Se  Se239  1  0.90866945  0.75607054  0.18606869  1
  Se  Se240  1  0.93487590  0.73979716  0.70129689  1
  Se  Se241  1  0.08909212  0.25065591  0.19624527  1
  Se  Se242  1  0.05964191  0.25675364  0.70124553  1
  Se  Se243  1  0.08767780  0.57856902  0.18291941  1
  Se  Se244  1  0.06686744  0.59891480  0.70426025  1
  Se  Se245  1  0.08209637  0.91705837  0.19746886  1
  Se  Se246  1  0.09492227  0.91439938  0.68556528  1
  Se  Se247  1  0.41610576  0.24603715  0.19256276  1
  Se  Se248  1  0.41220549  0.25896640  0.69340032  1
  Se  Se249  1  0.41215684  0.57977020  0.19353785  1
  Se  Se250  1  0.41427144  0.58227575  0.69622734  1
  Se  Se251  1  0.41329362  0.91720235  0.20346777  1
  Se  Se252  1  0.41898003  0.92241214  0.69288047  1
  Se  Se253  1  0.75380572  0.25041105  0.19839510  1
  Se  Se254  1  0.75287541  0.23966375  0.69203254  1
  Se  Se255  1  0.73488701  0.59473095  0.19769015  1
  Se  Se256  1  0.74609937  0.58078186  0.70437197  1
  Se  Se257  1  0.75487995  0.91267615  0.18760387  1
  Se  Se258  1  0.75405353  0.90760240  0.68924727  1
