# generated using pymatgen
data_In86Cu29Se144
_symmetry_space_group_name_H-M   'P 1'
_cell_length_a   17.58082529
_cell_length_b   17.59018578
_cell_length_c   23.44955528
_cell_angle_alpha   90.02715798
_cell_angle_beta   89.95663915
_cell_angle_gamma   90.00982238
_symmetry_Int_Tables_number   1
_chemical_formula_structural   In86Cu29Se144
_chemical_formula_sum   'In86 Cu29 Se144'
_cell_volume   7251.77157465
_cell_formula_units_Z   1
loop_
 _symmetry_equiv_pos_site_id
 _symmetry_equiv_pos_as_xyz
  1  'x, y, z'
loop_
 _atom_site_type_symbol
 _atom_site_label
 _atom_site_symmetry_multiplicity
 _atom_site_fract_x
 _atom_site_fract_y
 _atom_site_fract_z
 _atom_site_occupancy
  In  In0  1  -0.00611236  0.15887961  0.12002163  1
  In  In1  1  0.00075649  0.17795858  0.62413503  1
  In  In2  1  0.00231215  0.50567257  0.12606707  1
  In  In3  1  0.00380821  0.50262885  0.61978185  1
  In  In4  1  0.01343220  0.84057849  0.11424609  1
  In  In5  1  -0.01576494  0.83006779  0.62987203  1
  In  In6  1  0.35013503  0.18112070  0.10938489  1
  In  In7  1  0.34151667  0.15320233  0.63076403  1
  In  In8  1  0.35006180  0.48507001  0.15531177  1
  In  In9  1  0.33574585  0.49763901  0.61303772  1
  In  In10  1  0.32925865  0.82353945  0.12046041  1
  In  In11  1  0.34959311  0.83072632  0.62831251  1
  In  In12  1  0.65696781  0.16108104  0.12066824  1
  In  In13  1  0.66629344  0.17117109  0.61439681  1
  In  In14  1  0.65986378  0.51668071  0.13572149  1
  In  In15  1  0.66569614  0.50466327  0.61942632  1
  In  In16  1  0.66877436  0.83074120  0.12174952  1
  In  In17  1  0.65430022  0.82801485  0.62528339  1
  In  In18  1  0.16004973  0.01827006  0.36502485  1
  In  In19  1  0.17590503  -0.01134854  0.88255460  1
  In  In20  1  0.17953304  0.34282417  0.36469093  1
  In  In21  1  0.16857049  0.32838246  0.88349709  1
  In  In22  1  0.17259449  0.64666386  0.36586211  1
  In  In23  1  0.16276492  0.67733561  0.88101020  1
  In  In24  1  0.50905398  -0.01238833  0.37841697  1
  In  In25  1  0.49299391  0.00484203  0.88058155  1
  In  In26  1  0.49209671  0.34777118  0.38840022  1
  In  In27  1  0.51533922  0.31510098  0.88948130  1
  In  In28  1  0.50511129  0.66487279  0.37175988  1
  In  In29  1  0.51213233  0.65577065  0.88101179  1
  In  In30  1  0.83081302  0.00613239  0.36783707  1
  In  In31  1  0.82788218  -0.00132945  0.88204189  1
  In  In32  1  0.81018149  0.35040583  0.39724916  1
  In  In33  1  0.81712148  0.33801421  0.87604761  1
  In  In34  1  0.80649245  0.66431008  0.37884640  1
  In  In35  1  0.83432256  0.66539622  0.86777556  1
  In  In36  1  -0.00979330  0.16274277  0.36602488  1
  In  In37  1  -0.00251268  0.16602308  0.88341486  1
  In  In38  1  0.00070021  0.50169749  0.38271869  1
  In  In39  1  -0.01332643  0.49930361  0.87141964  1
  In  In40  1  -0.01444493  0.84073871  0.36930862  1
  In  In41  1  0.00333928  0.81807809  0.88658796  1
  In  In42  1  0.33560065  0.18029484  0.36836225  1
  In  In43  1  0.35829092  0.14774733  0.89224978  1
  In  In44  1  0.33987006  0.49772515  0.36806926  1
  In  In45  1  0.34157266  0.50433980  0.87904972  1
  In  In46  1  0.35467654  0.83327028  0.37027944  1
  In  In47  1  0.32593680  0.83860785  0.88476955  1
  In  In48  1  0.66815878  0.16690514  0.37995312  1
  In  In49  1  0.65727406  0.17408771  0.87999814  1
  In  In50  1  0.62881933  0.52352574  0.42305887  1
  In  In51  1  0.65678042  0.48799531  0.86528677  1
  In  In52  1  0.65187565  0.82205646  0.36436322  1
  In  In53  1  0.67553296  0.82398255  0.88406184  1
  In  In54  1  0.16136098  -0.00560700  0.11885389  1
  In  In55  1  0.17242947  0.01503492  0.63048066  1
  In  In56  1  0.20688632  0.34079655  0.11999374  1
  In  In57  1  0.16173715  0.33855803  0.62183205  1
  In  In58  1  0.17099981  0.67910949  0.12436513  1
  In  In59  1  0.16825612  0.65428385  0.62469075  1
  In  In60  1  0.51316458  0.00455687  0.12082095  1
  In  In61  1  0.49955837  -0.00331347  0.62115318  1
  In  In62  1  0.49465828  0.33363992  0.12366221  1
  In  In63  1  0.51150202  0.34307702  0.61094962  1
  In  In64  1  0.49651101  0.66274797  0.12664103  1
  In  In65  1  0.50777882  0.66764683  0.61233647  1
  In  In66  1  0.83170973  0.00210435  0.12529034  1
  In  In67  1  0.82029997  -0.00151412  0.62362965  1
  In  In68  1  0.83949425  0.32819611  0.12638123  1
  In  In69  1  0.81328250  0.32477180  0.60423907  1
  In  In70  1  0.82458575  0.66344783  0.12403665  1
  In  In71  1  0.83384252  0.66270243  0.62842305  1
  In  In72  1  -0.00564732  0.33681486  0.74381726  1
  In  In73  1  0.82536837  0.83112268  0.50281729  1
  In  In74  1  0.17391484  0.83296882  0.49717144  1
  In  In75  1  0.66162756  0.00178919  0.74775306  1
  In  In76  1  0.34094640  0.33287841  0.75126931  1
  In  In77  1  0.00111735  -0.00640270  0.75430520  1
  In  In78  1  0.33659440  0.66758126  0.75381182  1
  In  In79  1  0.00209763  0.67488944  0.24425430  1
  In  In80  1  0.65907768  0.34113582  0.26252915  1
  In  In81  1  0.82769244  0.50085860  0.00610686  1
  In  In82  1  0.17224428  0.50472895  0.00399325  1
  In  In83  1  0.17132493  0.17792036  0.49151727  1
  In  In84  1  -0.00021852  0.32528498  0.25120741  1
  In  In85  1  0.33188449  -0.00200293  0.24124575  1
  Cu  Cu86  1  0.00233611  0.32541451  0.00608217  1
  Cu  Cu87  1  0.18118922  0.16245531  0.75807393  1
  Cu  Cu88  1  0.00421718  0.66625012  0.49909229  1
  Cu  Cu89  1  0.34044638  0.66499229  0.00325315  1
  Cu  Cu90  1  0.33420252  -0.00457478  0.00589939  1
  Cu  Cu91  1  -0.00504039  -0.00096815  -0.00064428  1
  Cu  Cu92  1  0.83127167  0.50828398  0.25659131  1
  Cu  Cu93  1  0.16025728  0.50422776  0.74786038  1
  Cu  Cu94  1  0.66480975  0.33236880  0.00148916  1
  Cu  Cu95  1  0.83052161  0.81751287  0.75711961  1
  Cu  Cu96  1  0.66860666  -0.00342990  0.00231190  1
  Cu  Cu97  1  0.66476721  0.00002392  0.49751968  1
  Cu  Cu98  1  0.33680805  0.66299275  0.49489657  1
  Cu  Cu99  1  0.00093805  0.33511842  0.50015357  1
  Cu  Cu100  1  0.83036386  0.84444807  0.24648500  1
  Cu  Cu101  1  0.33340683  0.33640059  0.49304286  1
  Cu  Cu102  1  0.16274477  0.84084074  0.24464968  1
  Cu  Cu103  1  -0.00089263  0.00810386  0.49101082  1
  Cu  Cu104  1  0.51064219  0.82811956  0.24609091  1
  Cu  Cu105  1  0.34167377  0.00038919  0.50066024  1
  Cu  Cu106  1  0.82940967  0.17088749  0.74418031  1
  Cu  Cu107  1  0.16126217  0.16595332  0.23794180  1
  Cu  Cu108  1  0.82507026  0.49980641  0.74431513  1
  Cu  Cu109  1  0.49654359  0.16584465  0.24431609  1
  Cu  Cu110  1  0.50642262  0.49820410  0.74336208  1
  Cu  Cu111  1  0.16737687  0.83359565  0.75933983  1
  Cu  Cu112  1  0.50000951  0.83343737  0.75090316  1
  Cu  Cu113  1  0.66312458  0.66381967  0.00247134  1
  Cu  Cu114  1  0.82516026  0.16870007  0.25068138  1
  Se  Se115  1  0.08102723  0.08112816  0.05135507  1
  Se  Se116  1  0.08212312  0.08306124  0.55365922  1
  Se  Se117  1  0.08176215  0.40879184  0.06321242  1
  Se  Se118  1  0.08716551  0.41938925  0.54997224  1
  Se  Se119  1  0.08096818  0.74033338  0.05159933  1
  Se  Se120  1  0.07725617  0.75144529  0.55964540  1
  Se  Se121  1  0.42397788  0.07981157  0.05153920  1
  Se  Se122  1  0.42176984  0.08693706  0.55280733  1
  Se  Se123  1  0.40385144  0.42125853  0.06591274  1
  Se  Se124  1  0.41985106  0.41974704  0.54451846  1
  Se  Se125  1  0.42326871  0.75114654  0.05433994  1
  Se  Se126  1  0.41395702  0.74940701  0.55095086  1
  Se  Se127  1  0.74890069  0.08492187  0.05494117  1
  Se  Se128  1  0.75091115  0.08080232  0.55065973  1
  Se  Se129  1  0.73819285  0.41169870  0.06805894  1
  Se  Se130  1  0.76343562  0.44057424  0.54959927  1
  Se  Se131  1  0.75115411  0.74640170  0.05127017  1
  Se  Se132  1  0.73694350  0.73733620  0.55776166  1
  Se  Se133  1  0.23893357  0.23619207  0.04966309  1
  Se  Se134  1  0.26083163  0.25622720  0.56115249  1
  Se  Se135  1  0.26339480  0.58628482  0.06705555  1
  Se  Se136  1  0.24997003  0.58472067  0.54977193  1
  Se  Se137  1  0.24762182  0.91038798  0.05387255  1
  Se  Se138  1  0.25673741  0.92586309  0.56134078  1
  Se  Se139  1  0.57849899  0.25121158  0.05529939  1
  Se  Se140  1  0.59290788  0.25861750  0.54291140  1
  Se  Se141  1  0.58070516  0.57983911  0.05603776  1
  Se  Se142  1  0.57280840  0.56996448  0.54589607  1
  Se  Se143  1  0.58350984  0.91169163  0.05231866  1
  Se  Se144  1  0.58509871  0.91548566  0.55345820  1
  Se  Se145  1  0.91000334  0.24538517  0.05294957  1
  Se  Se146  1  0.91941055  0.24731837  0.55027417  1
  Se  Se147  1  0.92632472  0.59289331  0.05543492  1
  Se  Se148  1  0.91947670  0.58964982  0.55573463  1
  Se  Se149  1  0.91377564  0.91736745  0.05564512  1
  Se  Se150  1  0.92416928  0.92732122  0.55495294  1
  Se  Se151  1  0.07622783  0.26059945  0.43103832  1
  Se  Se152  1  0.08500531  0.24564094  0.94983551  1
  Se  Se153  1  0.08998339  0.58610150  0.44580734  1
  Se  Se154  1  0.07403402  0.58164663  0.94027478  1
  Se  Se155  1  0.08146283  0.92523774  0.43684900  1
  Se  Se156  1  0.08054930  0.91510521  0.94689303  1
  Se  Se157  1  0.41519841  0.24524407  0.44669095  1
  Se  Se158  1  0.41015506  0.25841256  0.95210135  1
  Se  Se159  1  0.41848269  0.58115199  0.43990295  1
  Se  Se160  1  0.42258398  0.58073453  0.95035925  1
  Se  Se161  1  0.42070770  0.91227318  0.44873010  1
  Se  Se162  1  0.41873557  0.91471485  0.94957087  1
  Se  Se163  1  0.76341265  0.23187985  0.44916828  1
  Se  Se164  1  0.74926831  0.25021270  0.94830621  1
  Se  Se165  1  0.76200728  0.57130725  0.45571452  1
  Se  Se166  1  0.74023544  0.58121910  0.93868362  1
  Se  Se167  1  0.74283943  0.91799490  0.43617611  1
  Se  Se168  1  0.75326772  0.91190618  0.95158139  1
  Se  Se169  1  0.26009655  0.07665021  0.43859647  1
  Se  Se170  1  0.25165648  0.07857921  0.94980867  1
  Se  Se171  1  0.25058930  0.42090315  0.44097299  1
  Se  Se172  1  0.26144227  0.41110192  0.94572649  1
  Se  Se173  1  0.25835866  0.74431002  0.43330074  1
  Se  Se174  1  0.25167954  0.74583080  0.95180737  1
  Se  Se175  1  0.57963031  0.08245429  0.44495399  1
  Se  Se176  1  0.58644344  0.08011095  0.94691150  1
  Se  Se177  1  0.60879349  0.38150129  0.45141606  1
  Se  Se178  1  0.58553400  0.42038705  0.94835125  1
  Se  Se179  1  0.58165399  0.75135125  0.44292066  1
  Se  Se180  1  0.58104382  0.74969103  0.94956459  1
  Se  Se181  1  0.91170220  0.08668512  0.44071842  1
  Se  Se182  1  0.91109066  0.08383591  0.94793933  1
  Se  Se183  1  0.91769196  0.42229045  0.45156212  1
  Se  Se184  1  0.92087272  0.40661474  0.94667618  1
  Se  Se185  1  0.91975420  0.74397290  0.44000905  1
  Se  Se186  1  0.89988720  0.74850022  0.94358371  1
  Se  Se187  1  0.24265455  0.24400640  0.29720017  1
  Se  Se188  1  0.25652110  0.24528599  0.81679006  1
  Se  Se189  1  0.26785465  0.58849357  0.29661390  1
  Se  Se190  1  0.24107105  0.57776130  0.81176435  1
  Se  Se191  1  0.24483427  0.91379673  0.31061917  1
  Se  Se192  1  0.25526230  0.91643415  0.80581008  1
  Se  Se193  1  0.56907284  0.24262281  0.31294443  1
  Se  Se194  1  0.58573211  0.25418227  0.80562136  1
  Se  Se195  1  0.59723227  0.56922112  0.32191470  1
  Se  Se196  1  0.58383769  0.58434195  0.80003998  1
  Se  Se197  1  0.58523371  0.92105525  0.29777093  1
  Se  Se198  1  0.58156619  0.91018651  0.81322267  1
  Se  Se199  1  0.89507245  0.25716213  0.31225564  1
  Se  Se200  1  0.91042642  0.24547448  0.80806895  1
  Se  Se201  1  0.91534847  0.58981898  0.31303883  1
  Se  Se202  1  0.91261859  0.57826296  0.79791581  1
  Se  Se203  1  0.91677924  0.92655604  0.29745972  1
  Se  Se204  1  0.90838902  0.90636317  0.81236069  1
  Se  Se205  1  0.07480538  0.08842978  0.29251061  1
  Se  Se206  1  0.08942217  0.08733866  0.81220365  1
  Se  Se207  1  0.08302237  0.42847386  0.30447775  1
  Se  Se208  1  0.08902684  0.41802102  0.80954831  1
  Se  Se209  1  0.09066727  0.76028046  0.31226323  1
  Se  Se210  1  0.08060218  0.74893161  0.80598825  1
  Se  Se211  1  0.41999668  0.08196150  0.30735405  1
  Se  Se212  1  0.42623190  0.08995511  0.80604753  1
  Se  Se213  1  0.41300720  0.39909580  0.30533742  1
  Se  Se214  1  0.42866835  0.42496617  0.80958151  1
  Se  Se215  1  0.42451991  0.74737274  0.29868710  1
  Se  Se216  1  0.42355791  0.75535927  0.81615649  1
  Se  Se217  1  0.74035897  0.08584398  0.30307264  1
  Se  Se218  1  0.75568377  0.08890003  0.80732037  1
  Se  Se219  1  0.74953996  0.43327921  0.31695795  1
  Se  Se220  1  0.74685159  0.41134916  0.79717865  1
  Se  Se221  1  0.75435080  0.75506661  0.30110622  1
  Se  Se222  1  0.73689478  0.74058166  0.80447179  1
  Se  Se223  1  0.24883131  0.09080129  0.18028733  1
  Se  Se224  1  0.26062823  0.07727816  0.70488663  1
  Se  Se225  1  0.23794454  0.41938512  0.20744892  1
  Se  Se226  1  0.24552015  0.42525959  0.69199760  1
  Se  Se227  1  0.24985352  0.75541856  0.19929267  1
  Se  Se228  1  0.24380673  0.75574071  0.69202167  1
  Se  Se229  1  0.58509255  0.08280096  0.19827059  1
  Se  Se230  1  0.57744857  0.09346202  0.68792340  1
  Se  Se231  1  0.57216736  0.42490892  0.19625295  1
  Se  Se232  1  0.58787319  0.41561343  0.68889358  1
  Se  Se233  1  0.59036383  0.74320183  0.19109978  1
  Se  Se234  1  0.57405141  0.74520202  0.69457443  1
  Se  Se235  1  0.91060385  0.08957255  0.19577709  1
  Se  Se236  1  0.91313091  0.08660139  0.69008529  1
  Se  Se237  1  0.90828499  0.42838539  0.19611218  1
  Se  Se238  1  0.90400286  0.41887365  0.68141538  1
  Se  Se239  1  0.91007929  0.76231850  0.18569061  1
  Se  Se240  1  0.91762606  0.74184543  0.70115969  1
  Se  Se241  1  0.08727533  0.25321978  0.17911070  1
  Se  Se242  1  0.09923603  0.24111240  0.69761162  1
  Se  Se243  1  0.09488255  0.57926310  0.19374958  1
  Se  Se244  1  0.07747371  0.58596664  0.69529441  1
  Se  Se245  1  0.07789610  0.92195455  0.19408286  1
  Se  Se246  1  0.09251144  0.90813182  0.68913729  1
  Se  Se247  1  0.41305041  0.25030034  0.19472135  1
  Se  Se248  1  0.42804470  0.25294006  0.68385213  1
  Se  Se249  1  0.40684849  0.60205593  0.20385301  1
  Se  Se250  1  0.41937722  0.57792736  0.68810764  1
  Se  Se251  1  0.42688892  0.90799191  0.18642651  1
  Se  Se252  1  0.42035921  0.91996159  0.69786587  1
  Se  Se253  1  0.74472054  0.25190005  0.19321448  1
  Se  Se254  1  0.74905912  0.25003947  0.68698918  1
  Se  Se255  1  0.74974718  0.59211831  0.20300770  1
  Se  Se256  1  0.74175101  0.58697518  0.69439479  1
  Se  Se257  1  0.74319733  0.92134317  0.19189991  1
  Se  Se258  1  0.75587096  0.90185379  0.69530549  1
