# generated using pymatgen
data_In86Cu29Se144
_symmetry_space_group_name_H-M   'P 1'
_cell_length_a   17.59497933
_cell_length_b   17.59064354
_cell_length_c   23.45266275
_cell_angle_alpha   89.98339570
_cell_angle_beta   89.98963503
_cell_angle_gamma   90.01905995
_symmetry_Int_Tables_number   1
_chemical_formula_structural   In86Cu29Se144
_chemical_formula_sum   'In86 Cu29 Se144'
_cell_volume   7258.76268710
_cell_formula_units_Z   1
loop_
 _symmetry_equiv_pos_site_id
 _symmetry_equiv_pos_as_xyz
  1  'x, y, z'
loop_
 _atom_site_type_symbol
 _atom_site_label
 _atom_site_symmetry_multiplicity
 _atom_site_fract_x
 _atom_site_fract_y
 _atom_site_fract_z
 _atom_site_occupancy
  In  In0  1  0.02048303  0.19624160  0.09508298  1
  In  In1  1  -0.00800163  0.17465828  0.63611560  1
  In  In2  1  0.00322537  0.49724659  0.12361906  1
  In  In3  1  -0.00258912  0.49886376  0.63482490  1
  In  In4  1  -0.02461437  0.83086111  0.12686452  1
  In  In5  1  0.00602113  0.82925321  0.63711953  1
  In  In6  1  0.33807941  0.17331315  0.12112640  1
  In  In7  1  0.34247315  0.18166995  0.62758694  1
  In  In8  1  0.31978335  0.48870612  0.11395362  1
  In  In9  1  0.33811340  0.49401960  0.63379760  1
  In  In10  1  0.33706625  0.81679128  0.12296100  1
  In  In11  1  0.33492918  0.82022354  0.62534295  1
  In  In12  1  0.66723633  0.16683260  0.12104221  1
  In  In13  1  0.67805027  0.16496945  0.62690206  1
  In  In14  1  0.67486990  0.51272158  0.11902138  1
  In  In15  1  0.65355196  0.49817288  0.62536529  1
  In  In16  1  0.67382999  0.83545564  0.12967512  1
  In  In17  1  0.66242090  0.84195068  0.62060522  1
  In  In18  1  0.15176036  0.00387351  0.37296798  1
  In  In19  1  0.16262379  0.02011654  0.88127254  1
  In  In20  1  0.16865076  0.33207013  0.36259920  1
  In  In21  1  0.16353385  0.33364630  0.87782132  1
  In  In22  1  0.16338512  0.66872763  0.37534130  1
  In  In23  1  0.15544599  0.65101815  0.87155199  1
  In  In24  1  0.49986009  -0.01614829  0.37092972  1
  In  In25  1  0.50429033  -0.00450277  0.88106457  1
  In  In26  1  0.50246044  0.35052635  0.37577256  1
  In  In27  1  0.49910207  0.33685904  0.87595163  1
  In  In28  1  0.50436377  0.65285519  0.37967128  1
  In  In29  1  0.49679170  0.66959026  0.87684965  1
  In  In30  1  0.83529867  0.01675946  0.37088886  1
  In  In31  1  0.83868045  -0.00710113  0.88378551  1
  In  In32  1  0.82589178  0.31606116  0.37546025  1
  In  In33  1  0.83468062  0.33369631  0.88018175  1
  In  In34  1  0.83805360  0.66991594  0.36192033  1
  In  In35  1  0.84584317  0.65235074  0.88813628  1
  In  In36  1  -0.01194950  0.16392876  0.37230507  1
  In  In37  1  0.00185405  0.17187963  0.87858873  1
  In  In38  1  0.00486716  0.49690717  0.36946956  1
  In  In39  1  -0.00353258  0.49420807  0.88093424  1
  In  In40  1  -0.00399353  0.82777459  0.37039832  1
  In  In41  1  -0.00999717  0.82102430  0.87460181  1
  In  In42  1  0.33459937  0.18398620  0.37174413  1
  In  In43  1  0.32110127  0.18348599  0.88377104  1
  In  In44  1  0.34695535  0.49437099  0.37787529  1
  In  In45  1  0.33251313  0.49932222  0.87488247  1
  In  In46  1  0.33471770  0.83003409  0.37824682  1
  In  In47  1  0.34622618  0.82970871  0.87355401  1
  In  In48  1  0.68551005  0.17543168  0.36889005  1
  In  In49  1  0.65422467  0.17423084  0.88236353  1
  In  In50  1  0.65224560  0.49976877  0.37062692  1
  In  In51  1  0.67862360  0.48834045  0.88464677  1
  In  In52  1  0.66090687  0.81778619  0.35625930  1
  In  In53  1  0.66927437  0.83187096  0.88201600  1
  In  In54  1  0.15727636  0.00969409  0.12300705  1
  In  In55  1  0.16127567  -0.00953728  0.63155272  1
  In  In56  1  0.16477623  0.33546488  0.12399194  1
  In  In57  1  0.16710598  0.33429735  0.63424461  1
  In  In58  1  0.16504549  0.64765060  0.12348879  1
  In  In59  1  0.16639866  0.66622518  0.63539509  1
  In  In60  1  0.51605683  0.00863222  0.12106480  1
  In  In61  1  0.51174814  -0.00290627  0.61914172  1
  In  In62  1  0.49138330  0.32924914  0.11809189  1
  In  In63  1  0.48928475  0.34855305  0.63690999  1
  In  In64  1  0.50623999  0.67542544  0.11710377  1
  In  In65  1  0.48259645  0.64463326  0.60636636  1
  In  In66  1  0.82702296  0.00075629  0.12058267  1
  In  In67  1  0.82905920  0.01206598  0.62755299  1
  In  In68  1  0.85268190  0.35263020  0.10286507  1
  In  In69  1  0.83786142  0.32666927  0.63471247  1
  In  In70  1  0.83277771  0.66582030  0.13082476  1
  In  In71  1  0.84060447  0.66956576  0.62856908  1
  In  In72  1  0.33274962  0.65644320  0.25325913  1
  In  In73  1  0.66980582  0.33652220  0.24512322  1
  In  In74  1  -0.00774559  0.00917958  0.24102551  1
  In  In75  1  0.66884047  0.00186889  0.74867265  1
  In  In76  1  0.51076846  0.17273095  0.49867286  1
  In  In77  1  0.33605343  0.00320161  0.24328390  1
  In  In78  1  0.17157297  0.82580106  0.50153269  1
  In  In79  1  0.16709061  0.16843877  0.50446819  1
  In  In80  1  0.66802344  0.66595369  0.74704491  1
  In  In81  1  0.16915222  0.83442764  0.00237522  1
  In  In82  1  0.82883754  0.49777714  0.50383060  1
  In  In83  1  0.32744694  0.00581351  0.75392235  1
  In  In84  1  0.82981790  0.83413377  0.49257739  1
  In  In85  1  0.17097885  0.49922856  0.50110535  1
  Cu  Cu86  1  0.66677804  -0.00416386  0.00247696  1
  Cu  Cu87  1  -0.00740591  0.32604802  0.50384446  1
  Cu  Cu88  1  0.16233305  0.83416087  0.75563270  1
  Cu  Cu89  1  0.83882676  0.17156031  0.24032510  1
  Cu  Cu90  1  0.16019903  0.49043583  0.24345369  1
  Cu  Cu91  1  0.84252524  0.82772233  0.75797140  1
  Cu  Cu92  1  0.16207698  0.17347845  0.75722268  1
  Cu  Cu93  1  0.83654348  0.16595684  0.75633010  1
  Cu  Cu94  1  0.34521750  0.00023156  0.00152983  1
  Cu  Cu95  1  -0.00483983  0.66462253  0.00363011  1
  Cu  Cu96  1  0.83854674  0.49843460  0.24165721  1
  Cu  Cu97  1  -0.00959052  0.00007212  0.50332003  1
  Cu  Cu98  1  0.66176818  0.33140303  0.00019428  1
  Cu  Cu99  1  0.66775646  -0.00035119  0.49447912  1
  Cu  Cu100  1  0.16057536  0.83216673  0.25402224  1
  Cu  Cu101  1  0.49523458  0.17584951  0.75758353  1
  Cu  Cu102  1  0.33618516  0.66239976  -0.00302170  1
  Cu  Cu103  1  0.49612101  0.82454903  0.74550461  1
  Cu  Cu104  1  0.50083204  0.50106529  0.75252046  1
  Cu  Cu105  1  0.66289014  0.67119787  0.00245643  1
  Cu  Cu106  1  0.83712993  0.49515775  0.76029801  1
  Cu  Cu107  1  0.33781047  0.00207629  0.49389762  1
  Cu  Cu108  1  0.16525194  0.50066334  0.75715910  1
  Cu  Cu109  1  0.49609012  0.50309304  0.24702549  1
  Cu  Cu110  1  0.50957599  0.83042263  0.24531860  1
  Cu  Cu111  1  0.66260718  0.66606048  0.49235177  1
  Cu  Cu112  1  -0.00301644  0.00419299  0.00119322  1
  Cu  Cu113  1  0.50130476  0.16934669  0.24185645  1
  Cu  Cu114  1  0.33422704  0.33465088  -0.00299592  1
  Se  Se115  1  0.09172876  0.08509396  0.04322372  1
  Se  Se116  1  0.07591359  0.07617895  0.56235422  1
  Se  Se117  1  0.09392546  0.42658985  0.05471937  1
  Se  Se118  1  0.07453792  0.40857101  0.55988878  1
  Se  Se119  1  0.07764568  0.74677276  0.06306313  1
  Se  Se120  1  0.07654305  0.74226033  0.56064482  1
  Se  Se121  1  0.42290406  0.08584553  0.05722455  1
  Se  Se122  1  0.41217428  0.08150374  0.55787563  1
  Se  Se123  1  0.41823101  0.41968149  0.04908182  1
  Se  Se124  1  0.41882764  0.42185998  0.55886129  1
  Se  Se125  1  0.41760886  0.75050140  0.04630911  1
  Se  Se126  1  0.42922689  0.76252036  0.55512827  1
  Se  Se127  1  0.74873907  0.08548508  0.05034393  1
  Se  Se128  1  0.74758141  0.08073803  0.55156538  1
  Se  Se129  1  0.74373152  0.42077846  0.04906723  1
  Se  Se130  1  0.74509852  0.40718320  0.56504395  1
  Se  Se131  1  0.74972390  0.74688599  0.05948289  1
  Se  Se132  1  0.74277928  0.74036648  0.55686183  1
  Se  Se133  1  0.25201554  0.25366835  0.05426069  1
  Se  Se134  1  0.25771501  0.26429302  0.55716135  1
  Se  Se135  1  0.24666972  0.58215430  0.04646413  1
  Se  Se136  1  0.25486791  0.58867187  0.56457564  1
  Se  Se137  1  0.26101334  0.92450964  0.06358651  1
  Se  Se138  1  0.25769979  0.92634590  0.55832419  1
  Se  Se139  1  0.57980358  0.24692736  0.05390131  1
  Se  Se140  1  0.58396101  0.25621195  0.57172237  1
  Se  Se141  1  0.57969965  0.58199020  0.05099580  1
  Se  Se142  1  0.58649712  0.57686553  0.54625114  1
  Se  Se143  1  0.58561399  0.91075029  0.05704162  1
  Se  Se144  1  0.58359226  0.91525337  0.54480002  1
  Se  Se145  1  0.90525774  0.24519415  0.03914407  1
  Se  Se146  1  0.91166530  0.24395970  0.55885313  1
  Se  Se147  1  0.91381861  0.58298185  0.06039608  1
  Se  Se148  1  0.92544688  0.58746197  0.55824934  1
  Se  Se149  1  0.91376244  0.91890819  0.05189295  1
  Se  Se150  1  0.91734810  0.91501046  0.56408442  1
  Se  Se151  1  0.07688147  0.25345144  0.44052652  1
  Se  Se152  1  0.09791210  0.23788677  0.94631869  1
  Se  Se153  1  0.07515310  0.58754991  0.44492383  1
  Se  Se154  1  0.07876878  0.58181110  0.94995897  1
  Se  Se155  1  0.07252098  0.91929372  0.44601196  1
  Se  Se156  1  0.07703983  0.92004860  0.94096544  1
  Se  Se157  1  0.41401268  0.26220478  0.44563027  1
  Se  Se158  1  0.42170507  0.24986988  0.94739225  1
  Se  Se159  1  0.41207464  0.58485582  0.44754548  1
  Se  Se160  1  0.41959515  0.57978674  0.94373936  1
  Se  Se161  1  0.41782537  0.91266709  0.44581510  1
  Se  Se162  1  0.41972417  0.91150864  0.94717821  1
  Se  Se163  1  0.74423728  0.25042258  0.45141676  1
  Se  Se164  1  0.74683998  0.24982610  0.94703833  1
  Se  Se165  1  0.74875541  0.58893886  0.43515533  1
  Se  Se166  1  0.74670210  0.58489124  0.95157589  1
  Se  Se167  1  0.74336847  0.92133563  0.42970138  1
  Se  Se168  1  0.75178216  0.91218818  0.95035207  1
  Se  Se169  1  0.25415703  0.07902487  0.43684624  1
  Se  Se170  1  0.25852871  0.08207343  0.95043648  1
  Se  Se171  1  0.25328408  0.40532217  0.43966383  1
  Se  Se172  1  0.24973870  0.41796795  0.94452173  1
  Se  Se173  1  0.26300642  0.73205641  0.44614571  1
  Se  Se174  1  0.25213473  0.74383976  0.93785383  1
  Se  Se175  1  0.58912990  0.07947050  0.43213877  1
  Se  Se176  1  0.58253575  0.07988586  0.94935725  1
  Se  Se177  1  0.59620195  0.41066713  0.44591166  1
  Se  Se178  1  0.57953344  0.41805367  0.94786897  1
  Se  Se179  1  0.58481043  0.75236239  0.43753692  1
  Se  Se180  1  0.57987694  0.75176258  0.94577050  1
  Se  Se181  1  0.91347436  0.08700316  0.44906806  1
  Se  Se182  1  0.91557537  0.08742662  0.94621837  1
  Se  Se183  1  0.91969259  0.40950313  0.44096447  1
  Se  Se184  1  0.90452585  0.42470099  0.94996115  1
  Se  Se185  1  0.92346180  0.73818444  0.44371500  1
  Se  Se186  1  0.91269713  0.75270966  0.95383755  1
  Se  Se187  1  0.24723442  0.24292835  0.29803564  1
  Se  Se188  1  0.25034940  0.25646871  0.80447831  1
  Se  Se189  1  0.23894198  0.56663858  0.31087920  1
  Se  Se190  1  0.25322458  0.58562741  0.80440985  1
  Se  Se191  1  0.24310510  0.91358763  0.30952871  1
  Se  Se192  1  0.24130359  0.91445270  0.81701375  1
  Se  Se193  1  0.57797138  0.24846893  0.30750781  1
  Se  Se194  1  0.58564032  0.25583506  0.80588219  1
  Se  Se195  1  0.58067207  0.58638798  0.29849458  1
  Se  Se196  1  0.58560994  0.57680224  0.81272568  1
  Se  Se197  1  0.58740399  0.92071686  0.29665639  1
  Se  Se198  1  0.57821792  0.90507696  0.80448765  1
  Se  Se199  1  0.91538957  0.25195349  0.30160047  1
  Se  Se200  1  0.91716436  0.25213458  0.80885677  1
  Se  Se201  1  0.92099055  0.57800296  0.30133232  1
  Se  Se202  1  0.91998159  0.58293280  0.80846422  1
  Se  Se203  1  0.91096817  0.91717924  0.30636994  1
  Se  Se204  1  0.91926646  0.91881180  0.80853025  1
  Se  Se205  1  0.08770639  0.09644397  0.30113222  1
  Se  Se206  1  0.07967728  0.08537579  0.80507476  1
  Se  Se207  1  0.07634260  0.40873233  0.29869936  1
  Se  Se208  1  0.08084977  0.41707555  0.80886923  1
  Se  Se209  1  0.08018564  0.74469304  0.30408372  1
  Se  Se210  1  0.08112396  0.74709013  0.80750960  1
  Se  Se211  1  0.42490051  0.09036278  0.30831761  1
  Se  Se212  1  0.41951120  0.08961564  0.81594065  1
  Se  Se213  1  0.41668141  0.41607263  0.29969881  1
  Se  Se214  1  0.41626404  0.41744562  0.80510619  1
  Se  Se215  1  0.42334622  0.75433287  0.30578664  1
  Se  Se216  1  0.41477397  0.74295169  0.80021765  1
  Se  Se217  1  0.75498830  0.08992246  0.29490543  1
  Se  Se218  1  0.75254012  0.08641540  0.81546646  1
  Se  Se219  1  0.75923104  0.42436013  0.30921501  1
  Se  Se220  1  0.74918801  0.41153552  0.80680973  1
  Se  Se221  1  0.76216009  0.75498788  0.29389414  1
  Se  Se222  1  0.75770397  0.74775612  0.81368913  1
  Se  Se223  1  0.24123565  0.09342901  0.19123182  1
  Se  Se224  1  0.24060499  0.09712206  0.68998120  1
  Se  Se225  1  0.25353184  0.41418138  0.19496182  1
  Se  Se226  1  0.24843490  0.41858975  0.70120904  1
  Se  Se227  1  0.24077084  0.75087539  0.19463740  1
  Se  Se228  1  0.24807967  0.75580642  0.70005251  1
  Se  Se229  1  0.59041457  0.08683002  0.19668475  1
  Se  Se230  1  0.57084852  0.09345118  0.69496812  1
  Se  Se231  1  0.57741152  0.42398248  0.18538336  1
  Se  Se232  1  0.58771893  0.41742786  0.70337461  1
  Se  Se233  1  0.58840798  0.74329788  0.19309351  1
  Se  Se234  1  0.57783992  0.75003293  0.68325340  1
  Se  Se235  1  0.91876630  0.10108913  0.17352844  1
  Se  Se236  1  0.91527069  0.07993029  0.70072109  1
  Se  Se237  1  0.91872953  0.41121685  0.19131853  1
  Se  Se238  1  0.91849914  0.41268867  0.70204039  1
  Se  Se239  1  0.91315733  0.74782418  0.20253123  1
  Se  Se240  1  0.92153730  0.74295162  0.70204853  1
  Se  Se241  1  0.07318494  0.25280647  0.18673498  1
  Se  Se242  1  0.07949224  0.25552288  0.70091235  1
  Se  Se243  1  0.07972621  0.58276428  0.19811176  1
  Se  Se244  1  0.08221523  0.58242541  0.70073758  1
  Se  Se245  1  0.08609894  0.90924093  0.18889512  1
  Se  Se246  1  0.07902296  0.92060955  0.70571989  1
  Se  Se247  1  0.41532585  0.25381246  0.19531816  1
  Se  Se248  1  0.41062152  0.25845422  0.70523688  1
  Se  Se249  1  0.41663436  0.57841492  0.18169994  1
  Se  Se250  1  0.42134706  0.58625299  0.69650386  1
  Se  Se251  1  0.42392886  0.90738968  0.18711933  1
  Se  Se252  1  0.42204916  0.91924185  0.69205815  1
  Se  Se253  1  0.76181286  0.25734571  0.18065763  1
  Se  Se254  1  0.74992806  0.24521330  0.70210700  1
  Se  Se255  1  0.74674663  0.58233337  0.19976716  1
  Se  Se256  1  0.76068378  0.57076125  0.69166973  1
  Se  Se257  1  0.75177921  0.92478023  0.19604334  1
  Se  Se258  1  0.76096538  0.90362887  0.69456595  1
