# generated using pymatgen
data_In86Cu29Se144
_symmetry_space_group_name_H-M   'P 1'
_cell_length_a   17.58743963
_cell_length_b   17.59100161
_cell_length_c   23.45420925
_cell_angle_alpha   90.01706143
_cell_angle_beta   89.98724195
_cell_angle_gamma   90.02168823
_symmetry_Int_Tables_number   1
_chemical_formula_structural   In86Cu29Se144
_chemical_formula_sum   'In86 Cu29 Se144'
_cell_volume   7256.27816228
_cell_formula_units_Z   1
loop_
 _symmetry_equiv_pos_site_id
 _symmetry_equiv_pos_as_xyz
  1  'x, y, z'
loop_
 _atom_site_type_symbol
 _atom_site_label
 _atom_site_symmetry_multiplicity
 _atom_site_fract_x
 _atom_site_fract_y
 _atom_site_fract_z
 _atom_site_occupancy
  In  In0  1  -0.00761347  0.15838232  0.13087691  1
  In  In1  1  0.00471469  0.16936631  0.62122012  1
  In  In2  1  0.00026264  0.50750902  0.11684460  1
  In  In3  1  0.00289855  0.48742485  0.62371763  1
  In  In4  1  0.01467533  0.82839815  0.12987062  1
  In  In5  1  0.00616739  0.84016471  0.61542490  1
  In  In6  1  0.33601478  0.16103884  0.13091992  1
  In  In7  1  0.31712627  0.18028851  0.63219209  1
  In  In8  1  0.32166548  0.50532098  0.13688251  1
  In  In9  1  0.32523990  0.47878189  0.60779264  1
  In  In10  1  0.33188312  0.83216013  0.12684123  1
  In  In11  1  0.33525027  0.83269472  0.62139807  1
  In  In12  1  0.65765161  0.17775050  0.12139984  1
  In  In13  1  0.67922188  0.16795173  0.62864516  1
  In  In14  1  0.67547021  0.49408854  0.12056508  1
  In  In15  1  0.65786398  0.50381444  0.63211628  1
  In  In16  1  0.64903905  0.83705904  0.12691922  1
  In  In17  1  0.65748360  0.82173731  0.61635392  1
  In  In18  1  0.16777031  -0.00049915  0.37617863  1
  In  In19  1  0.17905980  -0.01834187  0.87718732  1
  In  In20  1  0.17923938  0.33200898  0.38285337  1
  In  In21  1  0.17761094  0.34334563  0.86650415  1
  In  In22  1  0.18461456  0.65548893  0.38301308  1
  In  In23  1  0.16806981  0.66767925  0.88237404  1
  In  In24  1  0.48178425  -0.00060506  0.37462420  1
  In  In25  1  0.48840536  0.01322261  0.88187013  1
  In  In26  1  0.49249564  0.35256469  0.38536542  1
  In  In27  1  0.48691870  0.32341951  0.86959461  1
  In  In28  1  0.50150195  0.66826134  0.37152233  1
  In  In29  1  0.51089640  0.66508605  0.87487113  1
  In  In30  1  0.84815602  -0.00980865  0.38176785  1
  In  In31  1  0.83466757  0.00794530  0.87276323  1
  In  In32  1  0.82401352  0.33207731  0.38366413  1
  In  In33  1  0.84454110  0.33980710  0.86252161  1
  In  In34  1  0.83611448  0.68594958  0.36722451  1
  In  In35  1  0.81494212  0.66644419  0.87056228  1
  In  In36  1  0.01474765  0.15702089  0.38388641  1
  In  In37  1  -0.00894275  0.17518733  0.86871255  1
  In  In38  1  0.01902579  0.50671090  0.37496832  1
  In  In39  1  0.01409381  0.49074431  0.87898821  1
  In  In40  1  -0.00527321  0.84476319  0.37877640  1
  In  In41  1  0.00920471  0.84089492  0.87643820  1
  In  In42  1  0.32958899  0.15926780  0.37151985  1
  In  In43  1  0.34493729  0.17922516  0.86763561  1
  In  In44  1  0.33021391  0.50612777  0.37071969  1
  In  In45  1  0.32795497  0.48339351  0.87940604  1
  In  In46  1  0.33343721  0.83261640  0.37841579  1
  In  In47  1  0.32547997  0.84472005  0.88051388  1
  In  In48  1  0.66899396  0.18011993  0.38308843  1
  In  In49  1  0.65600604  0.16628036  0.87089033  1
  In  In50  1  0.65476417  0.50202456  0.37456767  1
  In  In51  1  0.66814715  0.50535484  0.86937742  1
  In  In52  1  0.67805357  0.82431924  0.37900096  1
  In  In53  1  0.66279778  0.82172256  0.87345914  1
  In  In54  1  0.18046258  -0.01334440  0.13700490  1
  In  In55  1  0.17053832  0.00226043  0.62240865  1
  In  In56  1  0.17319248  0.34838242  0.12191285  1
  In  In57  1  0.16777529  0.32824935  0.62253569  1
  In  In58  1  0.16753299  0.67174115  0.12347850  1
  In  In59  1  0.17517628  0.66959886  0.61455822  1
  In  In60  1  0.48947983  -0.01044596  0.12015621  1
  In  In61  1  0.49440842  -0.01704099  0.62006707  1
  In  In62  1  0.49330999  0.32107794  0.11480402  1
  In  In63  1  0.48906184  0.34448315  0.63194871  1
  In  In64  1  0.48500745  0.67347967  0.13347315  1
  In  In65  1  0.50519523  0.66545722  0.62068809  1
  In  In66  1  0.83604114  0.00326226  0.13339478  1
  In  In67  1  0.83876530  0.00285812  0.61603114  1
  In  In68  1  0.81976433  0.34271833  0.12064830  1
  In  In69  1  0.84436455  0.31897666  0.64223936  1
  In  In70  1  0.83688334  0.65660964  0.12622437  1
  In  In71  1  0.82042596  0.66594164  0.62280645  1
  In  In72  1  0.00727208  0.32868607  0.25553795  1
  In  In73  1  0.83397768  0.49873967  0.50415181  1
  In  In74  1  0.00148951  0.66612128  0.75193599  1
  In  In75  1  0.00600502  0.66980562  0.25202580  1
  In  In76  1  0.49504263  0.16593197  0.49946647  1
  In  In77  1  0.83324476  0.82978412  -0.00431390  1
  In  In78  1  0.66787199  -0.00384070  0.25189190  1
  In  In79  1  0.16801555  0.16824074  -0.00111616  1
  In  In80  1  0.65836730  0.33375510  0.24333278  1
  In  In81  1  0.00574512  0.00682694  0.74366152  1
  In  In82  1  0.82896303  0.17106603  -0.00394901  1
  In  In83  1  0.49724048  0.50079620  -0.00164167  1
  In  In84  1  0.33950921  0.66217252  0.74310689  1
  In  In85  1  0.66319402  0.00059252  0.75074001  1
  Cu  Cu86  1  0.16518039  0.16548302  0.74693794  1
  Cu  Cu87  1  0.00186651  0.00150263  0.49987180  1
  Cu  Cu88  1  0.34445512  0.66553057  0.49684520  1
  Cu  Cu89  1  0.66739598  -0.00290631  0.50268014  1
  Cu  Cu90  1  0.83001555  0.83445925  0.74454548  1
  Cu  Cu91  1  0.67128414  0.33176202  0.50824191  1
  Cu  Cu92  1  0.01051910  -0.00617821  0.00471163  1
  Cu  Cu93  1  0.17083131  0.83404461  0.25592018  1
  Cu  Cu94  1  0.49953051  0.49684131  0.75335498  1
  Cu  Cu95  1  0.49846467  0.16825042  0.24987878  1
  Cu  Cu96  1  0.32677452  -0.00092146  0.49950019  1
  Cu  Cu97  1  0.83964227  0.15915977  0.25663616  1
  Cu  Cu98  1  0.16678189  0.16383798  0.25629397  1
  Cu  Cu99  1  0.49382643  0.83241624  0.25068887  1
  Cu  Cu100  1  0.65785077  0.00304157  -0.00077254  1
  Cu  Cu101  1  0.83268944  0.50100299  0.24507594  1
  Cu  Cu102  1  0.33647810  0.00120514  0.00636700  1
  Cu  Cu103  1  0.66234867  0.66682698  -0.00119906  1
  Cu  Cu104  1  0.00395483  0.67193065  0.49405138  1
  Cu  Cu105  1  -0.00226906  0.65966199  0.00169151  1
  Cu  Cu106  1  0.33292802  0.67026320  0.00653165  1
  Cu  Cu107  1  0.00502079  0.33138796  0.50319927  1
  Cu  Cu108  1  0.49819425  0.83072081  0.74466689  1
  Cu  Cu109  1  -0.00377914  0.34001252  -0.00322424  1
  Cu  Cu110  1  0.66894959  0.66790804  0.49752215  1
  Cu  Cu111  1  0.17084968  0.49556304  0.74637801  1
  Cu  Cu112  1  0.83082599  0.50250257  0.74650090  1
  Cu  Cu113  1  0.49502542  0.16421518  0.74889629  1
  Cu  Cu114  1  0.49428635  0.50388794  0.25327401  1
  Se  Se115  1  0.08474247  0.07704912  0.06500933  1
  Se  Se116  1  0.08513440  0.08332015  0.55469589  1
  Se  Se117  1  0.08139111  0.41804026  0.05285950  1
  Se  Se118  1  0.08906988  0.41744990  0.55251798  1
  Se  Se119  1  0.07968474  0.74744409  0.05235352  1
  Se  Se120  1  0.08787033  0.75298109  0.55019730  1
  Se  Se121  1  0.41940095  0.08835825  0.05603356  1
  Se  Se122  1  0.40613911  0.07877980  0.56198610  1
  Se  Se123  1  0.40510747  0.41960624  0.06127431  1
  Se  Se124  1  0.43130827  0.41690036  0.54747173  1
  Se  Se125  1  0.41838090  0.75426187  0.05560812  1
  Se  Se126  1  0.42132089  0.75010966  0.55501679  1
  Se  Se127  1  0.74382191  0.07593813  0.05981769  1
  Se  Se128  1  0.74821990  0.08454328  0.55298134  1
  Se  Se129  1  0.74211111  0.41188066  0.04517561  1
  Se  Se130  1  0.75110088  0.41127485  0.56941840  1
  Se  Se131  1  0.74338846  0.74658680  0.06039779  1
  Se  Se132  1  0.75393518  0.75219471  0.54862400  1
  Se  Se133  1  0.25759173  0.25362229  0.05993791  1
  Se  Se134  1  0.24838093  0.24758218  0.55131809  1
  Se  Se135  1  0.25106427  0.58465921  0.05832155  1
  Se  Se136  1  0.25697731  0.58406487  0.54922013  1
  Se  Se137  1  0.25034286  0.91609441  0.05564509  1
  Se  Se138  1  0.24731362  0.91298728  0.55431051  1
  Se  Se139  1  0.59823964  0.26753849  0.04922981  1
  Se  Se140  1  0.58502276  0.25126065  0.56319966  1
  Se  Se141  1  0.58253983  0.59081259  0.06271700  1
  Se  Se142  1  0.59006879  0.58230717  0.55266424  1
  Se  Se143  1  0.57866410  0.91489504  0.05033768  1
  Se  Se144  1  0.58073484  0.91143126  0.54883209  1
  Se  Se145  1  0.92291557  0.25655529  0.05978337  1
  Se  Se146  1  0.91644038  0.25520985  0.55749502  1
  Se  Se147  1  0.90704377  0.57865582  0.04861047  1
  Se  Se148  1  0.92727175  0.59280293  0.56015574  1
  Se  Se149  1  0.92014453  0.91911514  0.06029173  1
  Se  Se150  1  0.91536070  0.91489936  0.54866583  1
  Se  Se151  1  0.08875965  0.25100121  0.44780626  1
  Se  Se152  1  0.07597699  0.25707067  0.93879266  1
  Se  Se153  1  0.09015958  0.58301469  0.45160187  1
  Se  Se154  1  0.08633883  0.58129497  0.94791281  1
  Se  Se155  1  0.08559414  0.91766864  0.44709506  1
  Se  Se156  1  0.09169186  0.91120515  0.95079333  1
  Se  Se157  1  0.40551487  0.25634922  0.44215993  1
  Se  Se158  1  0.40998534  0.25378971  0.94772872  1
  Se  Se159  1  0.42270647  0.58153511  0.44025433  1
  Se  Se160  1  0.40532281  0.59239868  0.93811901  1
  Se  Se161  1  0.41517111  0.91641360  0.45023871  1
  Se  Se162  1  0.41772581  0.91792740  0.94848577  1
  Se  Se163  1  0.75530564  0.24717160  0.45784361  1
  Se  Se164  1  0.74793903  0.25744879  0.93080574  1
  Se  Se165  1  0.75158926  0.58743837  0.43737755  1
  Se  Se166  1  0.74542539  0.58444618  0.94570273  1
  Se  Se167  1  0.75110520  0.91716025  0.44574722  1
  Se  Se168  1  0.74140633  0.92635827  0.93863036  1
  Se  Se169  1  0.24783095  0.08558679  0.44581437  1
  Se  Se170  1  0.25957858  0.07854787  0.94030261  1
  Se  Se171  1  0.24567309  0.43331716  0.44433206  1
  Se  Se172  1  0.23866097  0.41638516  0.94943828  1
  Se  Se173  1  0.25411342  0.75043592  0.45031751  1
  Se  Se174  1  0.25176373  0.75208249  0.94806606  1
  Se  Se175  1  0.58765426  0.07519424  0.43924509  1
  Se  Se176  1  0.57984192  0.09143454  0.94722543  1
  Se  Se177  1  0.59309204  0.41583866  0.45160140  1
  Se  Se178  1  0.58014321  0.41494561  0.93237558  1
  Se  Se179  1  0.58374720  0.74927646  0.44371086  1
  Se  Se180  1  0.57923300  0.75265437  0.94884192  1
  Se  Se181  1  0.91656884  0.08685167  0.44860795  1
  Se  Se182  1  0.93036905  0.07599963  0.94569186  1
  Se  Se183  1  0.92853014  0.41398527  0.44038772  1
  Se  Se184  1  0.91297818  0.41985603  0.94132438  1
  Se  Se185  1  0.91568282  0.75264978  0.44508634  1
  Se  Se186  1  0.92373384  0.73910587  0.93502605  1
  Se  Se187  1  0.24938238  0.24986091  0.30632805  1
  Se  Se188  1  0.24944246  0.24928337  0.80081325  1
  Se  Se189  1  0.25261505  0.59105386  0.30004994  1
  Se  Se190  1  0.24597331  0.57847767  0.80810305  1
  Se  Se191  1  0.25414839  0.91866109  0.30827548  1
  Se  Se192  1  0.25710140  0.91627276  0.79939461  1
  Se  Se193  1  0.57287942  0.24934750  0.31274526  1
  Se  Se194  1  0.57768607  0.24884275  0.80055469  1
  Se  Se195  1  0.58509664  0.58465328  0.30067067  1
  Se  Se196  1  0.58334921  0.58626286  0.79944015  1
  Se  Se197  1  0.57478096  0.91122358  0.31241902  1
  Se  Se198  1  0.57243496  0.91224890  0.81083644  1
  Se  Se199  1  0.91167547  0.24543136  0.31668703  1
  Se  Se200  1  0.91774986  0.24978801  0.79406026  1
  Se  Se201  1  0.91298258  0.57396591  0.30969636  1
  Se  Se202  1  0.91172722  0.57762352  0.81181997  1
  Se  Se203  1  0.90955597  0.90933503  0.30310532  1
  Se  Se204  1  0.91092401  0.91131580  0.80519323  1
  Se  Se205  1  0.08156970  0.07901895  0.30491542  1
  Se  Se206  1  0.09327145  0.08667061  0.81471530  1
  Se  Se207  1  0.09932747  0.42298687  0.30556881  1
  Se  Se208  1  0.08299546  0.41523761  0.79896307  1
  Se  Se209  1  0.09244500  0.75381025  0.31803068  1
  Se  Se210  1  0.09455689  0.75759872  0.80722163  1
  Se  Se211  1  0.41406502  0.08232319  0.29939389  1
  Se  Se212  1  0.41231222  0.07965815  0.80140757  1
  Se  Se213  1  0.41543884  0.41565826  0.30499071  1
  Se  Se214  1  0.41036022  0.41627785  0.80301095  1
  Se  Se215  1  0.41234728  0.74975657  0.30632174  1
  Se  Se216  1  0.42068082  0.75251076  0.80968531  1
  Se  Se217  1  0.75092193  0.08884871  0.31590050  1
  Se  Se218  1  0.75816578  0.09447525  0.80311818  1
  Se  Se219  1  0.75413097  0.41883259  0.30588741  1
  Se  Se220  1  0.74886232  0.41974238  0.80137292  1
  Se  Se221  1  0.74000855  0.74485133  0.29872480  1
  Se  Se222  1  0.74517489  0.75257570  0.79737884  1
  Se  Se223  1  0.25213886  0.08256881  0.20107020  1
  Se  Se224  1  0.24916875  0.08000298  0.69665634  1
  Se  Se225  1  0.25265545  0.40696977  0.20161373  1
  Se  Se226  1  0.25280443  0.41332088  0.69101695  1
  Se  Se227  1  0.24701004  0.75084648  0.19612243  1
  Se  Se228  1  0.24324647  0.75379639  0.69284932  1
  Se  Se229  1  0.57912965  0.08780241  0.19023972  1
  Se  Se230  1  0.57241243  0.08446260  0.68602878  1
  Se  Se231  1  0.56879897  0.42527047  0.18620956  1
  Se  Se232  1  0.58414975  0.41309994  0.70036533  1
  Se  Se233  1  0.57931167  0.75013614  0.19866139  1
  Se  Se234  1  0.58338061  0.74721255  0.69455969  1
  Se  Se235  1  0.92230072  0.07494795  0.20548132  1
  Se  Se236  1  0.90692801  0.09224444  0.69132854  1
  Se  Se237  1  0.91510678  0.41687333  0.19072939  1
  Se  Se238  1  0.92104859  0.42059601  0.69952380  1
  Se  Se239  1  0.91111309  0.75448872  0.19182810  1
  Se  Se240  1  0.91484717  0.75583755  0.68730655  1
  Se  Se241  1  0.09183353  0.24108220  0.18872225  1
  Se  Se242  1  0.08297876  0.24942216  0.69408162  1
  Se  Se243  1  0.08882536  0.57461988  0.19229549  1
  Se  Se244  1  0.09257455  0.58014562  0.68850012  1
  Se  Se245  1  0.08373553  0.91495857  0.20255230  1
  Se  Se246  1  0.09194285  0.90688306  0.69333997  1
  Se  Se247  1  0.41826556  0.25266060  0.19509337  1
  Se  Se248  1  0.41339010  0.25157211  0.69726732  1
  Se  Se249  1  0.40850218  0.58807726  0.20257032  1
  Se  Se250  1  0.42154036  0.56738022  0.68362610  1
  Se  Se251  1  0.41259531  0.91792339  0.19717651  1
  Se  Se252  1  0.41256961  0.91414868  0.69601112  1
  Se  Se253  1  0.76096164  0.23958138  0.19433405  1
  Se  Se254  1  0.73902856  0.25646528  0.70280044  1
  Se  Se255  1  0.74621462  0.58081471  0.19352270  1
  Se  Se256  1  0.74671802  0.58769933  0.69734724  1
  Se  Se257  1  0.75528584  0.90409086  0.19187432  1
  Se  Se258  1  0.75055996  0.91430157  0.68474232  1
