# generated using pymatgen
data_In86Cu29Se144
_symmetry_space_group_name_H-M   'P 1'
_cell_length_a   17.67801680
_cell_length_b   17.68299708
_cell_length_c   23.54849957
_cell_angle_alpha   89.95952520
_cell_angle_beta   89.94132196
_cell_angle_gamma   90.02835553
_symmetry_Int_Tables_number   1
_chemical_formula_structural   In86Cu29Se144
_chemical_formula_sum   'In86 Cu29 Se144'
_cell_volume   7361.26188908
_cell_formula_units_Z   1
loop_
 _symmetry_equiv_pos_site_id
 _symmetry_equiv_pos_as_xyz
  1  'x, y, z'
loop_
 _atom_site_type_symbol
 _atom_site_label
 _atom_site_symmetry_multiplicity
 _atom_site_fract_x
 _atom_site_fract_y
 _atom_site_fract_z
 _atom_site_occupancy
  In  In0  1  0.00250070  0.14982842  0.12698405  1
  In  In1  1  0.00700002  0.15934544  0.63341126  1
  In  In2  1  -0.00557502  0.51149213  0.12220686  1
  In  In3  1  0.00198623  0.50311840  0.62487626  1
  In  In4  1  -0.00081560  0.83238786  0.13445677  1
  In  In5  1  0.00462775  0.83176466  0.62115283  1
  In  In6  1  0.32361641  0.17411854  0.11768259  1
  In  In7  1  0.34428542  0.15615932  0.63380486  1
  In  In8  1  0.33747050  0.49474590  0.13247554  1
  In  In9  1  0.31979229  0.49835556  0.62111387  1
  In  In10  1  0.32648294  0.84440072  0.14034183  1
  In  In11  1  0.34275248  0.83013645  0.61045394  1
  In  In12  1  0.64950875  0.16558038  0.12867265  1
  In  In13  1  0.66500302  0.17581731  0.62976541  1
  In  In14  1  0.66161032  0.49743220  0.11132804  1
  In  In15  1  0.67919687  0.49175037  0.62919996  1
  In  In16  1  0.66924320  0.84112334  0.12955667  1
  In  In17  1  0.65932567  0.82634377  0.62088006  1
  In  In18  1  0.15866953  -0.00553905  0.36410272  1
  In  In19  1  0.18775682  0.01829507  0.85902114  1
  In  In20  1  0.17999114  0.32566159  0.37529850  1
  In  In21  1  0.15683680  0.32788764  0.86951249  1
  In  In22  1  0.16850847  0.66842448  0.37680067  1
  In  In23  1  0.16246549  0.68275806  0.86692388  1
  In  In24  1  0.49940766  -0.00171145  0.37776448  1
  In  In25  1  0.48574439  0.01538431  0.87546077  1
  In  In26  1  0.48960665  0.32983424  0.37308181  1
  In  In27  1  0.50786485  0.33774113  0.85671379  1
  In  In28  1  0.49458876  0.67919558  0.38238124  1
  In  In29  1  0.49688216  0.65311054  0.87037628  1
  In  In30  1  0.83382632  -0.01429497  0.37520416  1
  In  In31  1  0.83503054  -0.01127962  0.87508864  1
  In  In32  1  0.83818958  0.33866659  0.38291046  1
  In  In33  1  0.83903327  0.34462206  0.87054936  1
  In  In34  1  0.84348659  0.66115209  0.38339520  1
  In  In35  1  0.82744235  0.66185052  0.86464896  1
  In  In36  1  0.01456529  0.15445486  0.37354018  1
  In  In37  1  0.00884661  0.17578067  0.86931586  1
  In  In38  1  -0.00671721  0.50930572  0.38124710  1
  In  In39  1  -0.00764955  0.49840695  0.86734252  1
  In  In40  1  0.00743735  0.82823342  0.37835495  1
  In  In41  1  0.01232095  0.83742059  0.85789841  1
  In  In42  1  0.33339842  0.17591100  0.36793429  1
  In  In43  1  0.33134013  0.16343255  0.86731732  1
  In  In44  1  0.32330983  0.48628742  0.37054285  1
  In  In45  1  0.35103446  0.50094406  0.87259612  1
  In  In46  1  0.32828566  0.83361557  0.37711858  1
  In  In47  1  0.32724171  0.84956374  0.87257016  1
  In  In48  1  0.66327761  0.14720422  0.37207207  1
  In  In49  1  0.65808921  0.18556024  0.87436519  1
  In  In50  1  0.66850322  0.50917150  0.38240744  1
  In  In51  1  0.66399299  0.50033154  0.86995971  1
  In  In52  1  0.65739954  0.84233247  0.38733855  1
  In  In53  1  0.67564409  0.83243595  0.86976611  1
  In  In54  1  0.16876600  0.00233860  0.12830467  1
  In  In55  1  0.17923834  -0.01612000  0.63274993  1
  In  In56  1  0.18022607  0.33343957  0.12326918  1
  In  In57  1  0.16201292  0.33748800  0.63040562  1
  In  In58  1  0.16186370  0.67288400  0.13522267  1
  In  In59  1  0.16902166  0.65659950  0.61336684  1
  In  In60  1  0.45441405  0.06753519  0.19210505  1
  In  In61  1  0.49178826  -0.00719444  0.61797019  1
  In  In62  1  0.49166923  0.33333009  0.12055203  1
  In  In63  1  0.50661092  0.32079517  0.63393045  1
  In  In64  1  0.49829766  0.65741894  0.12686147  1
  In  In65  1  0.49772449  0.68309923  0.62222597  1
  In  In66  1  0.83142408  -0.00182708  0.13704528  1
  In  In67  1  0.84958898  -0.00471972  0.62459894  1
  In  In68  1  0.82585899  0.33800346  0.11828205  1
  In  In69  1  0.83111500  0.33995211  0.63113537  1
  In  In70  1  0.83922460  0.66495443  0.12373175  1
  In  In71  1  0.83817590  0.66645269  0.62493609  1
  In  In72  1  0.66647953  0.66787673  0.25731354  1
  In  In73  1  0.16726841  0.49913871  -0.00011149  1
  In  In74  1  0.33218104  0.66558507  0.74328550  1
  In  In75  1  0.49445102  0.17134781  0.00679774  1
  In  In76  1  0.49765271  0.50207796  0.50381458  1
  In  In77  1  0.83592317  0.17080155  -0.00761738  1
  In  In78  1  0.66596654  0.32980790  0.24446017  1
  In  In79  1  0.50507909  0.83610693  0.00935555  1
  In  In80  1  0.00543491  0.33001398  0.25047243  1
  In  In81  1  0.82995276  0.16745625  0.50581716  1
  In  In82  1  0.16660610  0.83556398  0.00451150  1
  In  In83  1  0.66579670  0.00275071  0.75451897  1
  In  In84  1  0.17062931  0.16480736  0.49738287  1
  In  In85  1  0.83427286  0.82635848  -0.00021558  1
  Cu  Cu86  1  0.66138994  -0.00158468  0.50055147  1
  Cu  Cu87  1  0.00307908  0.66667508  0.50114828  1
  Cu  Cu88  1  0.16765799  0.83039557  0.25642626  1
  Cu  Cu89  1  0.83905446  0.15839136  0.25343664  1
  Cu  Cu90  1  0.16477482  0.17036217  0.74859001  1
  Cu  Cu91  1  0.00253741  0.33038763  -0.00736004  1
  Cu  Cu92  1  0.16382538  0.50258043  0.74640388  1
  Cu  Cu93  1  0.83687413  0.83168336  0.74644308  1
  Cu  Cu94  1  0.49452159  0.83761875  0.74428453  1
  Cu  Cu95  1  0.66034102  0.00631985  0.01036237  1
  Cu  Cu96  1  -0.00843954  0.66228225  -0.00466111  1
  Cu  Cu97  1  0.00000319  0.34275005  0.50503825  1
  Cu  Cu98  1  0.84054024  0.82775556  0.25705082  1
  Cu  Cu99  1  0.00712569  -0.00308400  0.00190018  1
  Cu  Cu100  1  0.83284398  0.17222033  0.75028334  1
  Cu  Cu101  1  0.83651447  0.50417018  0.74743282  1
  Cu  Cu102  1  0.00311043  -0.00780845  0.49938058  1
  Cu  Cu103  1  0.83241208  0.50369186  0.25245938  1
  Cu  Cu104  1  0.33292717  -0.00168581  0.49809086  1
  Cu  Cu105  1  0.66373671  0.33040052  0.50781117  1
  Cu  Cu106  1  0.67906685  0.66433754  0.50410443  1
  Cu  Cu107  1  0.50601679  0.49855880  0.74635129  1
  Cu  Cu108  1  0.33377442  0.32673653  0.49852349  1
  Cu  Cu109  1  0.48734713  0.49975220  0.25158578  1
  Cu  Cu110  1  0.49872098  0.83758821  0.26044794  1
  Cu  Cu111  1  0.66132629  0.66081332  -0.00756903  1
  Cu  Cu112  1  0.33739680  0.33601427  -0.00161865  1
  Cu  Cu113  1  0.33474963  0.66417072  0.00211974  1
  Cu  Cu114  1  0.16297887  0.50347753  0.25110639  1
  Se  Se115  1  0.08836050  0.08076533  0.05418182  1
  Se  Se116  1  0.08117381  0.07622803  0.55748928  1
  Se  Se117  1  0.07526797  0.41015825  0.06003398  1
  Se  Se118  1  0.08814774  0.41984933  0.55710923  1
  Se  Se119  1  0.07014627  0.74107763  0.05759130  1
  Se  Se120  1  0.08709525  0.74989846  0.55218105  1
  Se  Se121  1  0.42784809  0.07678497  0.07459693  1
  Se  Se122  1  0.41250351  0.08338703  0.55234228  1
  Se  Se123  1  0.41331079  0.42156909  0.05452026  1
  Se  Se124  1  0.41334495  0.40493554  0.56110816  1
  Se  Se125  1  0.40654454  0.74801729  0.06469772  1
  Se  Se126  1  0.41867410  0.74201879  0.54333054  1
  Se  Se127  1  0.75233458  0.08321018  0.06163473  1
  Se  Se128  1  0.74208984  0.07367608  0.56454009  1
  Se  Se129  1  0.75764347  0.42622324  0.05016345  1
  Se  Se130  1  0.75296184  0.41204727  0.55373688  1
  Se  Se131  1  0.73666758  0.73998747  0.05757264  1
  Se  Se132  1  0.75483821  0.75252558  0.55750797  1
  Se  Se133  1  0.24729187  0.25453921  0.04485811  1
  Se  Se134  1  0.25391174  0.25131406  0.56274201  1
  Se  Se135  1  0.25018855  0.59094749  0.06324748  1
  Se  Se136  1  0.26182464  0.58531269  0.54666299  1
  Se  Se137  1  0.26158462  0.92388472  0.05785316  1
  Se  Se138  1  0.24936478  0.91583840  0.55091109  1
  Se  Se139  1  0.59577211  0.26412048  0.05545428  1
  Se  Se140  1  0.58047534  0.24519723  0.55565067  1
  Se  Se141  1  0.57644293  0.58578332  0.05039101  1
  Se  Se142  1  0.59301209  0.58671577  0.56304200  1
  Se  Se143  1  0.58188927  0.93096761  0.07119698  1
  Se  Se144  1  0.57990089  0.91206922  0.55313828  1
  Se  Se145  1  0.92686960  0.25262111  0.05966348  1
  Se  Se146  1  0.92635748  0.25327156  0.56267849  1
  Se  Se147  1  0.90876421  0.58124645  0.04876975  1
  Se  Se148  1  0.91926972  0.58369002  0.55474462  1
  Se  Se149  1  0.92059229  0.92124880  0.06032388  1
  Se  Se150  1  0.91673145  0.91141997  0.55040307  1
  Se  Se151  1  0.07382895  0.25822709  0.44346088  1
  Se  Se152  1  0.08804168  0.24591052  0.94640885  1
  Se  Se153  1  0.08510375  0.58373732  0.44597546  1
  Se  Se154  1  0.08244375  0.59152496  0.93760412  1
  Se  Se155  1  0.08995403  0.91785935  0.44300539  1
  Se  Se156  1  0.08002658  0.91795227  0.93838147  1
  Se  Se157  1  0.41576835  0.24558341  0.44473292  1
  Se  Se158  1  0.41499501  0.25579509  0.93677590  1
  Se  Se159  1  0.40921856  0.57920975  0.43671712  1
  Se  Se160  1  0.41820920  0.58449995  0.94823806  1
  Se  Se161  1  0.41602245  0.91495203  0.44448817  1
  Se  Se162  1  0.41286758  0.92308286  0.94667106  1
  Se  Se163  1  0.73989989  0.25226794  0.44076257  1
  Se  Se164  1  0.74449802  0.26581517  0.94211742  1
  Se  Se165  1  0.75766201  0.57852210  0.45091542  1
  Se  Se166  1  0.74834168  0.58557041  0.93776924  1
  Se  Se167  1  0.75138662  0.91833422  0.45143387  1
  Se  Se168  1  0.73777614  0.92441427  0.94913979  1
  Se  Se169  1  0.25598077  0.07614155  0.43485422  1
  Se  Se170  1  0.25833027  0.08095451  0.94075627  1
  Se  Se171  1  0.24926910  0.41029645  0.44852397  1
  Se  Se172  1  0.25675027  0.41445532  0.93637503  1
  Se  Se173  1  0.23635121  0.76234091  0.44439011  1
  Se  Se174  1  0.25809999  0.74485223  0.94234916  1
  Se  Se175  1  0.58051360  0.08303959  0.44851242  1
  Se  Se176  1  0.58903002  0.08231015  0.94310333  1
  Se  Se177  1  0.58685898  0.40839543  0.44225671  1
  Se  Se178  1  0.57330859  0.41882518  0.93243638  1
  Se  Se179  1  0.59077744  0.74156791  0.45054148  1
  Se  Se180  1  0.58555640  0.74892977  0.93724455  1
  Se  Se181  1  0.92302720  0.08040995  0.44471758  1
  Se  Se182  1  0.92646275  0.07373826  0.93976085  1
  Se  Se183  1  0.91507605  0.42204371  0.45098899  1
  Se  Se184  1  0.92213690  0.41837810  0.94416085  1
  Se  Se185  1  0.92027442  0.75131838  0.44831663  1
  Se  Se186  1  0.92372168  0.74899729  0.93264729  1
  Se  Se187  1  0.24180469  0.24452439  0.29908238  1
  Se  Se188  1  0.24736580  0.25187914  0.80375201  1
  Se  Se189  1  0.24726356  0.58060689  0.30738815  1
  Se  Se190  1  0.24562215  0.57808012  0.81022140  1
  Se  Se191  1  0.25386529  0.91656398  0.30279456  1
  Se  Se192  1  0.22657601  0.89764120  0.80397926  1
  Se  Se193  1  0.58078852  0.24321877  0.30798430  1
  Se  Se194  1  0.56962578  0.23163637  0.79670481  1
  Se  Se195  1  0.57084939  0.57540991  0.31225154  1
  Se  Se196  1  0.58480060  0.58631139  0.79880517  1
  Se  Se197  1  0.58764761  0.91827372  0.30931620  1
  Se  Se198  1  0.57126678  0.91209741  0.81243198  1
  Se  Se199  1  0.91136625  0.24390938  0.31363936  1
  Se  Se200  1  0.91673730  0.25315247  0.80568694  1
  Se  Se201  1  0.91584050  0.58452597  0.30520832  1
  Se  Se202  1  0.92066431  0.58881737  0.79889038  1
  Se  Se203  1  0.92449919  0.91214843  0.30819862  1
  Se  Se204  1  0.91472531  0.91854571  0.80058346  1
  Se  Se205  1  0.08990148  0.08860619  0.29667139  1
  Se  Se206  1  0.08136234  0.08491944  0.80147248  1
  Se  Se207  1  0.08613861  0.42221736  0.31372526  1
  Se  Se208  1  0.08295400  0.41972768  0.80326062  1
  Se  Se209  1  0.08244252  0.74506130  0.30505340  1
  Se  Se210  1  0.08008104  0.74394977  0.79119193  1
  Se  Se211  1  0.42192833  0.08563587  0.30870358  1
  Se  Se212  1  0.40521594  0.07428859  0.79816492  1
  Se  Se213  1  0.41087590  0.40822869  0.30139801  1
  Se  Se214  1  0.41489400  0.41945854  0.79526676  1
  Se  Se215  1  0.41535997  0.75136127  0.30809317  1
  Se  Se216  1  0.41766732  0.75696691  0.80914814  1
  Se  Se217  1  0.75748181  0.07606397  0.30789442  1
  Se  Se218  1  0.75709651  0.09356856  0.81545280  1
  Se  Se219  1  0.75222128  0.42170729  0.30975687  1
  Se  Se220  1  0.75276328  0.42137144  0.80188560  1
  Se  Se221  1  0.75478603  0.75497508  0.31883307  1
  Se  Se222  1  0.74885310  0.75127857  0.79787087  1
  Se  Se223  1  0.26281476  0.08007961  0.18963626  1
  Se  Se224  1  0.24552121  0.08450486  0.69591410  1
  Se  Se225  1  0.24587330  0.41854107  0.19792214  1
  Se  Se226  1  0.24920040  0.41897657  0.69728633  1
  Se  Se227  1  0.25127017  0.74782143  0.20184554  1
  Se  Se228  1  0.24859488  0.75290030  0.68080960  1
  Se  Se229  1  0.60277240  0.06673941  0.19746337  1
  Se  Se230  1  0.57678303  0.08129313  0.68857917  1
  Se  Se231  1  0.57489619  0.42733424  0.19112828  1
  Se  Se232  1  0.58907205  0.41337410  0.69447588  1
  Se  Se233  1  0.57643404  0.75541473  0.19585971  1
  Se  Se234  1  0.58044821  0.75274566  0.69735770  1
  Se  Se235  1  0.92267009  0.07597796  0.20114067  1
  Se  Se236  1  0.91190025  0.08564011  0.69788297  1
  Se  Se237  1  0.90958428  0.42020258  0.19281367  1
  Se  Se238  1  0.92034120  0.41978439  0.69515106  1
  Se  Se239  1  0.91398712  0.74482189  0.19677285  1
  Se  Se240  1  0.92035096  0.75139006  0.69195627  1
  Se  Se241  1  0.09083860  0.24415525  0.18714881  1
  Se  Se242  1  0.07937833  0.25375645  0.69795737  1
  Se  Se243  1  0.07810009  0.58123130  0.19562258  1
  Se  Se244  1  0.08797208  0.58744147  0.69074699  1
  Se  Se245  1  0.09055590  0.91216830  0.19496439  1
  Se  Se246  1  0.06167811  0.93668128  0.68600118  1
  Se  Se247  1  0.42844718  0.23524385  0.18536368  1
  Se  Se248  1  0.40449135  0.25916413  0.69649536  1
  Se  Se249  1  0.41082072  0.58836316  0.19885019  1
  Se  Se250  1  0.42521065  0.57612338  0.68428237  1
  Se  Se251  1  0.43138596  0.91621806  0.19383156  1
  Se  Se252  1  0.40985077  0.91325933  0.68870938  1
  Se  Se253  1  0.76321844  0.23872231  0.19059799  1
  Se  Se254  1  0.74945857  0.25384677  0.69780865  1
  Se  Se255  1  0.74811645  0.57715327  0.19112203  1
  Se  Se256  1  0.75219425  0.58575833  0.69399980  1
  Se  Se257  1  0.75528101  0.90792421  0.20300015  1
  Se  Se258  1  0.75246798  0.91390375  0.69024794  1
