# generated using pymatgen
data_In86Cu29Se144
_symmetry_space_group_name_H-M   'P 1'
_cell_length_a   17.59796273
_cell_length_b   17.59373495
_cell_length_c   23.45728165
_cell_angle_alpha   90.02841360
_cell_angle_beta   90.00052284
_cell_angle_gamma   90.03235709
_symmetry_Int_Tables_number   1
_chemical_formula_structural   In86Cu29Se144
_chemical_formula_sum   'In86 Cu29 Se144'
_cell_volume   7262.69821392
_cell_formula_units_Z   1
loop_
 _symmetry_equiv_pos_site_id
 _symmetry_equiv_pos_as_xyz
  1  'x, y, z'
loop_
 _atom_site_type_symbol
 _atom_site_label
 _atom_site_symmetry_multiplicity
 _atom_site_fract_x
 _atom_site_fract_y
 _atom_site_fract_z
 _atom_site_occupancy
  In  In0  1  0.00954781  0.17977810  0.12186380  1
  In  In1  1  0.00012472  0.17035967  0.61971256  1
  In  In2  1  0.00171084  0.49481673  0.13142727  1
  In  In3  1  -0.00128985  0.48257674  0.62594389  1
  In  In4  1  -0.00889398  0.83207572  0.13007775  1
  In  In5  1  -0.00181625  0.83564474  0.61284673  1
  In  In6  1  0.33367636  0.17442694  0.13368190  1
  In  In7  1  0.33554293  0.16917528  0.61593040  1
  In  In8  1  0.31546932  0.47656123  0.10894565  1
  In  In9  1  0.33981915  0.50443397  0.61925837  1
  In  In10  1  0.34283633  0.83537885  0.13223157  1
  In  In11  1  0.31962163  0.83012679  0.61807407  1
  In  In12  1  0.66082750  0.15177664  0.11821787  1
  In  In13  1  0.66137837  0.16379661  0.62080777  1
  In  In14  1  0.66816402  0.50127244  0.12454871  1
  In  In15  1  0.66239604  0.50737586  0.61836324  1
  In  In16  1  0.65946864  0.84027729  0.13945073  1
  In  In17  1  0.68311795  0.83566257  0.61562253  1
  In  In18  1  0.17732270  -0.00773133  0.37523182  1
  In  In19  1  0.17921702  0.00623659  0.87558632  1
  In  In20  1  0.16725265  0.33314640  0.37463656  1
  In  In21  1  0.16567695  0.34247756  0.88486734  1
  In  In22  1  0.15543470  0.67535560  0.37780342  1
  In  In23  1  0.16494690  0.64382780  0.87548791  1
  In  In24  1  0.51214322  0.01816302  0.35750379  1
  In  In25  1  0.50855190  0.01133309  0.87338374  1
  In  In26  1  0.49608862  0.33860073  0.37719828  1
  In  In27  1  0.50118570  0.33190872  0.89415427  1
  In  In28  1  0.50050004  0.65102868  0.37292653  1
  In  In29  1  0.49407608  0.67205424  0.87243390  1
  In  In30  1  0.82414796  0.00985357  0.37958793  1
  In  In31  1  0.81865842  0.02299481  0.87802365  1
  In  In32  1  0.82942847  0.31772349  0.37432634  1
  In  In33  1  0.84524868  0.31978602  0.88128018  1
  In  In34  1  0.84074564  0.67022730  0.37098847  1
  In  In35  1  0.82222480  0.66719403  0.87662190  1
  In  In36  1  -0.00754863  0.17610872  0.37779317  1
  In  In37  1  -0.00900575  0.18315679  0.87892597  1
  In  In38  1  0.00739777  0.50896028  0.36779908  1
  In  In39  1  0.00877823  0.48314186  0.88184028  1
  In  In40  1  0.01272533  0.82215317  0.37938100  1
  In  In41  1  -0.00705825  0.83120730  0.87329540  1
  In  In42  1  0.33445355  0.16545062  0.37132612  1
  In  In43  1  0.32832625  0.18032708  0.89567484  1
  In  In44  1  0.33899664  0.48714309  0.37783663  1
  In  In45  1  0.33035940  0.50018727  0.88151544  1
  In  In46  1  0.31164147  0.84062066  0.37231986  1
  In  In47  1  0.35027860  0.82923215  0.87187127  1
  In  In48  1  0.67096520  0.17113972  0.38166800  1
  In  In49  1  0.67077288  0.15545991  0.88934672  1
  In  In50  1  0.64983463  0.49630016  0.37508932  1
  In  In51  1  0.66887757  0.50228492  0.88814113  1
  In  In52  1  0.67520939  0.83625883  0.37287886  1
  In  In53  1  0.65372775  0.84694297  0.87303135  1
  In  In54  1  0.16090482  0.02001758  0.12898908  1
  In  In55  1  0.16278093  0.00017208  0.61216229  1
  In  In56  1  0.16606943  0.33019446  0.13152354  1
  In  In57  1  0.16000335  0.32578056  0.61686603  1
  In  In58  1  0.17566255  0.64710366  0.12815274  1
  In  In59  1  0.17186408  0.67056404  0.61644556  1
  In  In60  1  0.49849001  0.01363521  0.14003628  1
  In  In61  1  0.50173117  0.01930283  0.62068921  1
  In  In62  1  0.47809051  0.31415771  0.11318683  1
  In  In63  1  0.50446581  0.33385873  0.61062596  1
  In  In64  1  0.50450080  0.66483990  0.13045937  1
  In  In65  1  0.49915620  0.65062224  0.61933033  1
  In  In66  1  0.82089767  0.00589125  0.12647770  1
  In  In67  1  0.82889992  -0.00011193  0.61847795  1
  In  In68  1  0.84140799  0.33989812  0.12344480  1
  In  In69  1  0.84404615  0.33614947  0.62720463  1
  In  In70  1  0.84002592  0.65817890  0.13655859  1
  In  In71  1  0.82346656  0.67301152  0.61632417  1
  In  In72  1  0.49685275  0.83455572  0.48532177  1
  In  In73  1  0.00178004  0.66249086  0.74477204  1
  In  In74  1  0.00272625  -0.00417151  0.25455251  1
  In  In75  1  0.33276660  0.33414054  0.75744473  1
  In  In76  1  0.66751783  0.66807604  0.73921249  1
  In  In77  1  0.33985441  0.00298265  0.74551142  1
  In  In78  1  0.83224150  0.83375548  -0.00169034  1
  In  In79  1  0.33385407  0.66519336  0.25184455  1
  In  In80  1  0.00045964  0.00051341  0.74115674  1
  In  In81  1  0.82998858  0.49529501  0.49934284  1
  In  In82  1  0.16624250  0.83121207  0.00279221  1
  In  In83  1  0.66329918  0.32836093  0.24966882  1
  In  In84  1  0.50158018  0.83945623  0.00695966  1
  In  In85  1  0.66897405  0.33011961  0.75389866  1
  Cu  Cu86  1  0.33144752  0.66091171  0.49213343  1
  Cu  Cu87  1  -0.00066880  0.33552721  0.00498059  1
  Cu  Cu88  1  0.67020645  0.33739870  0.00815599  1
  Cu  Cu89  1  0.32851114  0.33156050  0.49643900  1
  Cu  Cu90  1  0.83399160  0.83008801  0.25348485  1
  Cu  Cu91  1  0.50149913  0.17028308  0.75033589  1
  Cu  Cu92  1  0.17000264  0.17197315  0.25145720  1
  Cu  Cu93  1  0.66421669  0.00111211  0.49499763  1
  Cu  Cu94  1  0.17431051  0.49403819  0.75470175  1
  Cu  Cu95  1  0.50433161  0.83413416  0.25444419  1
  Cu  Cu96  1  0.83073486  0.84476156  0.74513963  1
  Cu  Cu97  1  0.16711086  0.49668487  0.25081278  1
  Cu  Cu98  1  0.00238888  0.66410008  0.49550288  1
  Cu  Cu99  1  -0.00369023  0.00415871  0.49330370  1
  Cu  Cu100  1  0.00236682  0.64999209  0.00786983  1
  Cu  Cu101  1  0.00321454  0.33420117  0.49800699  1
  Cu  Cu102  1  0.33230719  0.65737650  -0.00447332  1
  Cu  Cu103  1  0.15902535  0.16882718  0.74613412  1
  Cu  Cu104  1  0.17518787  0.82123951  0.74532080  1
  Cu  Cu105  1  0.33261751  0.00904424  0.00844725  1
  Cu  Cu106  1  0.50114823  0.83428209  0.74646010  1
  Cu  Cu107  1  0.83243541  0.50045162  0.24792886  1
  Cu  Cu108  1  0.00168883  0.01023070  -0.00184198  1
  Cu  Cu109  1  0.67442438  0.66878244  0.00746815  1
  Cu  Cu110  1  0.49897504  0.50231029  0.74790960  1
  Cu  Cu111  1  0.49575286  0.49480424  0.24702059  1
  Cu  Cu112  1  0.33096111  0.00470955  0.49442106  1
  Cu  Cu113  1  0.83469746  0.16587605  0.25195820  1
  Cu  Cu114  1  0.84308359  0.49214090  0.75426779  1
  Se  Se115  1  0.08543617  0.09114411  0.05168133  1
  Se  Se116  1  0.07941796  0.08642034  0.54949467  1
  Se  Se117  1  0.08397010  0.41466156  0.06079907  1
  Se  Se118  1  0.08517286  0.41972406  0.55040874  1
  Se  Se119  1  0.07740655  0.74043223  0.06313276  1
  Se  Se120  1  0.08407605  0.75021905  0.55002577  1
  Se  Se121  1  0.41645674  0.08515579  0.06541952  1
  Se  Se122  1  0.41623550  0.08633877  0.54671436  1
  Se  Se123  1  0.44131047  0.43927250  0.06199842  1
  Se  Se124  1  0.41329655  0.41566942  0.54982181  1
  Se  Se125  1  0.40710276  0.74019005  0.05724051  1
  Se  Se126  1  0.41165579  0.74471318  0.55247311  1
  Se  Se127  1  0.75917329  0.08844449  0.05024326  1
  Se  Se128  1  0.74665284  0.08389413  0.55102100  1
  Se  Se129  1  0.75546318  0.42223263  0.05684801  1
  Se  Se130  1  0.74165364  0.40557925  0.56081864  1
  Se  Se131  1  0.74783319  0.75213940  0.06844658  1
  Se  Se132  1  0.75062317  0.75072241  0.54295390  1
  Se  Se133  1  0.24689820  0.24731733  0.06292472  1
  Se  Se134  1  0.24638277  0.24593168  0.54979908  1
  Se  Se135  1  0.24417737  0.57738942  0.04633799  1
  Se  Se136  1  0.25019141  0.58050661  0.55091721  1
  Se  Se137  1  0.25462468  0.92154921  0.06377070  1
  Se  Se138  1  0.24942347  0.91759153  0.54679235  1
  Se  Se139  1  0.58704662  0.24948855  0.05607835  1
  Se  Se140  1  0.57050205  0.23272663  0.55122883  1
  Se  Se141  1  0.58535996  0.58904669  0.05734253  1
  Se  Se142  1  0.58707973  0.58698672  0.54710443  1
  Se  Se143  1  0.58964683  0.92866657  0.06497546  1
  Se  Se144  1  0.58160284  0.92115071  0.55464012  1
  Se  Se145  1  0.91468709  0.24884502  0.05414229  1
  Se  Se146  1  0.91673351  0.25489170  0.55210576  1
  Se  Se147  1  0.91364707  0.57619202  0.06262567  1
  Se  Se148  1  0.92447798  0.58653635  0.56060394  1
  Se  Se149  1  0.92458732  0.92596464  0.05676429  1
  Se  Se150  1  0.91432514  0.92039237  0.54930926  1
  Se  Se151  1  0.08530283  0.24935137  0.44498800  1
  Se  Se152  1  0.08212394  0.25335830  0.94796313  1
  Se  Se153  1  0.08637912  0.57925971  0.44580991  1
  Se  Se154  1  0.08598682  0.57243657  0.95050650  1
  Se  Se155  1  0.08316578  0.92048663  0.44362466  1
  Se  Se156  1  0.07663046  0.92305992  0.93906076  1
  Se  Se157  1  0.41305726  0.25020862  0.44258125  1
  Se  Se158  1  0.41654233  0.25416070  0.96146191  1
  Se  Se159  1  0.41842335  0.57643658  0.44530385  1
  Se  Se160  1  0.42415662  0.58398711  0.94270272  1
  Se  Se161  1  0.40965164  0.92899736  0.42990218  1
  Se  Se162  1  0.40855209  0.92767495  0.94475222  1
  Se  Se163  1  0.75293192  0.25078087  0.45161102  1
  Se  Se164  1  0.74673984  0.25486606  0.94803774  1
  Se  Se165  1  0.74689074  0.58423282  0.43557956  1
  Se  Se166  1  0.75664009  0.58564670  0.95310816  1
  Se  Se167  1  0.75081879  0.91659714  0.44712389  1
  Se  Se168  1  0.73815418  0.92538973  0.94490776  1
  Se  Se169  1  0.24624091  0.08791622  0.44244903  1
  Se  Se170  1  0.24447537  0.08526175  0.95353710  1
  Se  Se171  1  0.24532208  0.41820272  0.44660422  1
  Se  Se172  1  0.26714453  0.40403466  0.94854705  1
  Se  Se173  1  0.24805103  0.75018100  0.44575683  1
  Se  Se174  1  0.25594749  0.74491287  0.93702016  1
  Se  Se175  1  0.57982434  0.08345982  0.44256062  1
  Se  Se176  1  0.56883922  0.09021314  0.95229059  1
  Se  Se177  1  0.58812168  0.40691171  0.44718083  1
  Se  Se178  1  0.58561977  0.42177998  0.95541892  1
  Se  Se179  1  0.59042372  0.73996169  0.43643767  1
  Se  Se180  1  0.59213369  0.74587481  0.94492588  1
  Se  Se181  1  0.91181222  0.09059466  0.44565991  1
  Se  Se182  1  0.91578241  0.08867567  0.94426001  1
  Se  Se183  1  0.92290240  0.41305393  0.43604089  1
  Se  Se184  1  0.91359104  0.41573464  0.94933709  1
  Se  Se185  1  0.91786115  0.74895138  0.44592357  1
  Se  Se186  1  0.92771971  0.73483505  0.94627719  1
  Se  Se187  1  0.25336008  0.25551662  0.30468721  1
  Se  Se188  1  0.24192395  0.23952384  0.81151798  1
  Se  Se189  1  0.24492728  0.57722702  0.31372381  1
  Se  Se190  1  0.25720252  0.58010840  0.80432404  1
  Se  Se191  1  0.24253267  0.91593530  0.29463493  1
  Se  Se192  1  0.24861903  0.90755463  0.80523127  1
  Se  Se193  1  0.57426970  0.24126396  0.31034336  1
  Se  Se194  1  0.57498552  0.24828928  0.81591846  1
  Se  Se195  1  0.58118428  0.57817383  0.29748748  1
  Se  Se196  1  0.58503667  0.57940138  0.80708377  1
  Se  Se197  1  0.59199263  0.91716619  0.30319225  1
  Se  Se198  1  0.57682972  0.92338706  0.79918334  1
  Se  Se199  1  0.91809957  0.25286353  0.30020839  1
  Se  Se200  1  0.91118197  0.24636982  0.80054786  1
  Se  Se201  1  0.91744386  0.58452867  0.30058077  1
  Se  Se202  1  0.91545755  0.58036371  0.81378607  1
  Se  Se203  1  0.91098923  0.91120828  0.31663389  1
  Se  Se204  1  0.90761122  0.91973595  0.81009768  1
  Se  Se205  1  0.08850605  0.09157945  0.31229593  1
  Se  Se206  1  0.08626115  0.08533296  0.80910744  1
  Se  Se207  1  0.08291649  0.41391392  0.30399648  1
  Se  Se208  1  0.08824020  0.41167237  0.80526083  1
  Se  Se209  1  0.08289993  0.74876377  0.30041543  1
  Se  Se210  1  0.09130684  0.75246126  0.80954909  1
  Se  Se211  1  0.40050761  0.07211066  0.30021793  1
  Se  Se212  1  0.41223103  0.09967084  0.81168262  1
  Se  Se213  1  0.41467585  0.41183841  0.30130395  1
  Se  Se214  1  0.43057741  0.41999118  0.81310689  1
  Se  Se215  1  0.42084159  0.75676494  0.31461061  1
  Se  Se216  1  0.41858586  0.74771335  0.79582239  1
  Se  Se217  1  0.74749004  0.08955414  0.30621684  1
  Se  Se218  1  0.73460501  0.08747468  0.80408631  1
  Se  Se219  1  0.75387478  0.42081877  0.31046710  1
  Se  Se220  1  0.75478564  0.42355083  0.81481959  1
  Se  Se221  1  0.74848935  0.74554461  0.30356545  1
  Se  Se222  1  0.75120904  0.76270014  0.80542114  1
  Se  Se223  1  0.25066259  0.08476176  0.20062443  1
  Se  Se224  1  0.24139450  0.08847185  0.68798197  1
  Se  Se225  1  0.25301914  0.41597083  0.19764778  1
  Se  Se226  1  0.24896332  0.41662406  0.68795744  1
  Se  Se227  1  0.24307649  0.75410960  0.19125475  1
  Se  Se228  1  0.25694965  0.73947756  0.69233980  1
  Se  Se229  1  0.59974727  0.08058079  0.20215506  1
  Se  Se230  1  0.58296216  0.08621019  0.69764655  1
  Se  Se231  1  0.57537169  0.41389161  0.18624639  1
  Se  Se232  1  0.57890266  0.42076481  0.69021316  1
  Se  Se233  1  0.58302458  0.74533282  0.20225427  1
  Se  Se234  1  0.57736318  0.75861721  0.68044118  1
  Se  Se235  1  0.91792476  0.08757640  0.19116965  1
  Se  Se236  1  0.90720328  0.09131906  0.68937110  1
  Se  Se237  1  0.91747692  0.41326745  0.20131530  1
  Se  Se238  1  0.92536459  0.40789824  0.70355257  1
  Se  Se239  1  0.91982135  0.74803404  0.20224508  1
  Se  Se240  1  0.90936550  0.75858542  0.68986881  1
  Se  Se241  1  0.07947603  0.25217849  0.20246794  1
  Se  Se242  1  0.07950936  0.25235536  0.69227892  1
  Se  Se243  1  0.08440269  0.58215352  0.19926664  1
  Se  Se244  1  0.09438792  0.57135472  0.68986116  1
  Se  Se245  1  0.09168662  0.91098091  0.18959915  1
  Se  Se246  1  0.09444560  0.90396144  0.68828791  1
  Se  Se247  1  0.41989498  0.25395616  0.20207237  1
  Se  Se248  1  0.42131358  0.24972610  0.69046324  1
  Se  Se249  1  0.41129596  0.57200856  0.18653063  1
  Se  Se250  1  0.41540616  0.58385878  0.69544029  1
  Se  Se251  1  0.42012579  0.91684181  0.20192611  1
  Se  Se252  1  0.42264333  0.91115647  0.68125030  1
  Se  Se253  1  0.75648308  0.24428175  0.18777521  1
  Se  Se254  1  0.75408928  0.24509653  0.68926491  1
  Se  Se255  1  0.74394375  0.58228349  0.19926710  1
  Se  Se256  1  0.76572357  0.57109330  0.69098730  1
  Se  Se257  1  0.75545981  0.91824582  0.20068271  1
  Se  Se258  1  0.74501154  0.92259942  0.69159475  1
