# generated using pymatgen
data_In86Cu29Se144
_symmetry_space_group_name_H-M   'P 1'
_cell_length_a   17.57772381
_cell_length_b   17.57597785
_cell_length_c   23.42868017
_cell_angle_alpha   89.99830331
_cell_angle_beta   89.98425746
_cell_angle_gamma   89.97258372
_symmetry_Int_Tables_number   1
_chemical_formula_structural   In86Cu29Se144
_chemical_formula_sum   'In86 Cu29 Se144'
_cell_volume   7238.18852300
_cell_formula_units_Z   1
loop_
 _symmetry_equiv_pos_site_id
 _symmetry_equiv_pos_as_xyz
  1  'x, y, z'
loop_
 _atom_site_type_symbol
 _atom_site_label
 _atom_site_symmetry_multiplicity
 _atom_site_fract_x
 _atom_site_fract_y
 _atom_site_fract_z
 _atom_site_occupancy
  In  In0  1  0.00292758  0.18550731  0.12999874  1
  In  In1  1  0.00714458  0.16245822  0.62446544  1
  In  In2  1  -0.01605391  0.49076251  0.11717704  1
  In  In3  1  -0.00322816  0.49878604  0.62584497  1
  In  In4  1  -0.00887090  0.83920143  0.12581883  1
  In  In5  1  -0.01326894  0.81679339  0.60401634  1
  In  In6  1  0.34405599  0.14209550  0.13832248  1
  In  In7  1  0.32986052  0.18053361  0.62013966  1
  In  In8  1  0.34193371  0.51746557  0.12948355  1
  In  In9  1  0.33916773  0.50797313  0.61369251  1
  In  In10  1  0.34795216  0.82706524  0.14250815  1
  In  In11  1  0.32996562  0.82608212  0.61199232  1
  In  In12  1  0.66490983  0.16940440  0.12037912  1
  In  In13  1  0.67345401  0.16217096  0.61856965  1
  In  In14  1  0.66610071  0.49785854  0.13393120  1
  In  In15  1  0.67393460  0.50777724  0.60862649  1
  In  In16  1  0.65573567  0.82611197  0.14174013  1
  In  In17  1  0.65789002  0.83280713  0.60394711  1
  In  In18  1  0.17842311  -0.00883911  0.38230667  1
  In  In19  1  0.17088701  0.00624751  0.87763669  1
  In  In20  1  0.15880122  0.34590223  0.37996388  1
  In  In21  1  0.16819127  0.34645728  0.87536386  1
  In  In22  1  0.16979606  0.66171306  0.38382922  1
  In  In23  1  0.15368579  0.66868670  0.87136906  1
  In  In24  1  0.50140869  -0.00871364  0.35648316  1
  In  In25  1  0.49963975  -0.01140163  0.89897118  1
  In  In26  1  0.51119778  0.33702813  0.36158558  1
  In  In27  1  0.50790222  0.32725692  0.90033473  1
  In  In28  1  0.50411142  0.66384380  0.36139047  1
  In  In29  1  0.50999821  0.66070422  0.89058610  1
  In  In30  1  0.82282447  -0.01211231  0.37051315  1
  In  In31  1  0.82858723  0.00545397  0.88618500  1
  In  In32  1  0.83795988  0.33723686  0.36513625  1
  In  In33  1  0.83922537  0.33052866  0.88397431  1
  In  In34  1  0.83031380  0.66956197  0.38938554  1
  In  In35  1  0.84185357  0.66192480  0.88177463  1
  In  In36  1  0.00184076  0.18367169  0.37011587  1
  In  In37  1  -0.01394650  0.17225265  0.87719324  1
  In  In38  1  0.00370730  0.49972808  0.38589225  1
  In  In39  1  0.00554990  0.50217371  0.87348188  1
  In  In40  1  -0.00493555  0.82372422  0.39232444  1
  In  In41  1  0.00472544  0.82194359  0.87415835  1
  In  In42  1  0.32923489  0.15867618  0.36622950  1
  In  In43  1  0.32890244  0.16772821  0.88976643  1
  In  In44  1  0.32754025  0.50660136  0.37149345  1
  In  In45  1  0.33879769  0.49274656  0.88826807  1
  In  In46  1  0.34586671  0.82995098  0.36052457  1
  In  In47  1  0.34112145  0.83661605  0.88003256  1
  In  In48  1  0.66182548  0.15645851  0.35701574  1
  In  In49  1  0.67052618  0.16754618  0.89869971  1
  In  In50  1  0.65896861  0.50199671  0.36378694  1
  In  In51  1  0.67475706  0.49041421  0.89930827  1
  In  In52  1  0.66733610  0.83050441  0.36785621  1
  In  In53  1  0.66453460  0.83157764  0.88726107  1
  In  In54  1  0.18764156  0.00536255  0.13481605  1
  In  In55  1  0.16688410  0.00102991  0.60885065  1
  In  In56  1  0.14884298  0.32921934  0.13157569  1
  In  In57  1  0.15881233  0.32365833  0.61744552  1
  In  In58  1  0.17880730  0.66308285  0.12986128  1
  In  In59  1  0.13852108  0.64259052  0.59229967  1
  In  In60  1  0.49848813  -0.00041903  0.12917960  1
  In  In61  1  0.50622225  -0.01642857  0.61952640  1
  In  In62  1  0.52660514  0.35573974  0.10986699  1
  In  In63  1  0.49306236  0.33381180  0.61937644  1
  In  In64  1  0.50097106  0.66352098  0.14093428  1
  In  In65  1  0.50065390  0.66643889  0.61233032  1
  In  In66  1  0.81981438  -0.01517895  0.11817211  1
  In  In67  1  0.83609649  0.00215327  0.61795970  1
  In  In68  1  0.82984343  0.33803270  0.12277913  1
  In  In69  1  0.83607485  0.35216089  0.62504117  1
  In  In70  1  0.81491317  0.64831465  0.11860950  1
  In  In71  1  0.84262261  0.67291328  0.61365197  1
  In  In72  1  0.67090633  -0.00394291  0.74945506  1
  In  In73  1  0.33836206  0.33637922  0.24477633  1
  In  In74  1  0.16774280  0.82931165  0.00070879  1
  In  In75  1  0.82940114  0.16165365  0.49580341  1
  In  In76  1  0.66426417  0.34151026  0.76298816  1
  In  In77  1  0.32743740  0.66560205  0.74676632  1
  In  In78  1  0.32687434  -0.00088271  0.75650743  1
  In  In79  1  -0.00100651  0.00579935  0.25368996  1
  In  In80  1  0.49410354  0.16344977  0.48089213  1
  In  In81  1  0.66896739  0.66416960  0.75360695  1
  In  In82  1  0.32885983  0.34168207  0.75168877  1
  In  In83  1  0.17095415  0.16367075  0.00731427  1
  In  In84  1  -0.00058145  0.66375789  0.25884766  1
  In  In85  1  -0.00362029  -0.00486569  0.74386437  1
  Cu  Cu86  1  0.65996936  0.67790750  0.01375672  1
  Cu  Cu87  1  0.84677221  0.50930865  0.75127326  1
  Cu  Cu88  1  -0.00357206  0.00497730  0.00589735  1
  Cu  Cu89  1  0.83177413  0.16458268  0.24224371  1
  Cu  Cu90  1  0.33317395  0.33011522  0.01220790  1
  Cu  Cu91  1  -0.00110929  0.33539961  0.49857941  1
  Cu  Cu92  1  0.34321073  0.00276727  0.48806577  1
  Cu  Cu93  1  0.16171704  0.50371332  0.74554536  1
  Cu  Cu94  1  0.33022119  0.34387133  0.49550619  1
  Cu  Cu95  1  0.50116129  0.15874668  0.75892189  1
  Cu  Cu96  1  0.66315843  0.33255777  0.48844347  1
  Cu  Cu97  1  0.83841793  0.82961388  0.74406949  1
  Cu  Cu98  1  -0.00117292  0.33834463  0.00196837  1
  Cu  Cu99  1  -0.00085941  0.00292377  0.49595186  1
  Cu  Cu100  1  0.17122788  0.84073067  0.25603922  1
  Cu  Cu101  1  0.16002492  0.82625278  0.74009945  1
  Cu  Cu102  1  0.50554024  0.17361106  0.23895945  1
  Cu  Cu103  1  0.34647588  0.67630945  0.48769678  1
  Cu  Cu104  1  0.65594763  0.66100715  0.48782510  1
  Cu  Cu105  1  0.82944364  0.49491599  0.24795078  1
  Cu  Cu106  1  0.50084062  0.82793210  0.75013862  1
  Cu  Cu107  1  0.15893209  0.17109873  0.74561649  1
  Cu  Cu108  1  0.50737443  0.49441126  0.75208187  1
  Cu  Cu109  1  0.15700168  0.49900886  0.25363717  1
  Cu  Cu110  1  0.66639247  -0.00594606  0.01140874  1
  Cu  Cu111  1  0.00046457  0.66386264  -0.00145786  1
  Cu  Cu112  1  0.33976224  0.66616189  0.01182156  1
  Cu  Cu113  1  0.82812506  0.18291910  0.75660639  1
  Cu  Cu114  1  0.83375920  0.82423939  0.24866559  1
  Se  Se115  1  0.07993670  0.07465033  0.06840733  1
  Se  Se116  1  0.08153290  0.08968999  0.54681835  1
  Se  Se117  1  0.08520799  0.41716976  0.05598303  1
  Se  Se118  1  0.08166332  0.41736653  0.55467382  1
  Se  Se119  1  0.07688206  0.74189973  0.06373591  1
  Se  Se120  1  0.11048395  0.77673016  0.55454902  1
  Se  Se121  1  0.41595703  0.07855748  0.05695905  1
  Se  Se122  1  0.41486234  0.08195656  0.55901290  1
  Se  Se123  1  0.41157187  0.42282484  0.06072091  1
  Se  Se124  1  0.42085342  0.41946974  0.54830475  1
  Se  Se125  1  0.42075224  0.74645089  0.06768621  1
  Se  Se126  1  0.42686895  0.75835120  0.54597107  1
  Se  Se127  1  0.75299852  0.08490300  0.05365774  1
  Se  Se128  1  0.73387772  0.06507028  0.54675302  1
  Se  Se129  1  0.76523394  0.44331109  0.06189796  1
  Se  Se130  1  0.74788798  0.40871260  0.54720845  1
  Se  Se131  1  0.74673208  0.75915484  0.06627232  1
  Se  Se132  1  0.74009195  0.73752809  0.54811763  1
  Se  Se133  1  0.25460723  0.25003162  0.07286172  1
  Se  Se134  1  0.25027101  0.25396648  0.54635225  1
  Se  Se135  1  0.24878606  0.58125852  0.05486761  1
  Se  Se136  1  0.26293381  0.59312235  0.54426109  1
  Se  Se137  1  0.25612006  0.90869852  0.06669968  1
  Se  Se138  1  0.26040467  0.92359984  0.54681073  1
  Se  Se139  1  0.58976931  0.25328833  0.04761347  1
  Se  Se140  1  0.58588963  0.24929236  0.55075288  1
  Se  Se141  1  0.58419926  0.58862280  0.06754386  1
  Se  Se142  1  0.57558914  0.57633591  0.54491657  1
  Se  Se143  1  0.58498137  0.91090450  0.06585486  1
  Se  Se144  1  0.57669563  0.91728949  0.53893756  1
  Se  Se145  1  0.91831167  0.25280315  0.05531402  1
  Se  Se146  1  0.91753441  0.25267527  0.55861516  1
  Se  Se147  1  0.91250125  0.58406736  0.05021432  1
  Se  Se148  1  0.89755215  0.56049615  0.55782936  1
  Se  Se149  1  0.91434987  0.91207591  0.04989906  1
  Se  Se150  1  0.91234503  0.92051721  0.54695688  1
  Se  Se151  1  0.08338695  0.25134961  0.44707486  1
  Se  Se152  1  0.08183373  0.25381121  0.94322843  1
  Se  Se153  1  0.07349279  0.59594355  0.45109481  1
  Se  Se154  1  0.08776825  0.58363629  0.94607608  1
  Se  Se155  1  0.08386534  0.91704538  0.44717276  1
  Se  Se156  1  0.07589670  0.92657836  0.94245262  1
  Se  Se157  1  0.40627226  0.26486939  0.43009593  1
  Se  Se158  1  0.41370729  0.24310288  0.95933468  1
  Se  Se159  1  0.42145135  0.58516804  0.43462449  1
  Se  Se160  1  0.41845212  0.58120569  0.95335665  1
  Se  Se161  1  0.42109901  0.91906086  0.43241224  1
  Se  Se162  1  0.41423053  0.90242324  0.95961786  1
  Se  Se163  1  0.74166139  0.24757056  0.43116340  1
  Se  Se164  1  0.73926260  0.27322980  0.95207799  1
  Se  Se165  1  0.74155075  0.57281444  0.44127008  1
  Se  Se166  1  0.74156343  0.60232698  0.95039998  1
  Se  Se167  1  0.76263624  0.89476647  0.44034583  1
  Se  Se168  1  0.74992772  0.91649162  0.95118151  1
  Se  Se169  1  0.25325176  0.09016840  0.44611291  1
  Se  Se170  1  0.26149413  0.06202668  0.95548726  1
  Se  Se171  1  0.24579244  0.42891488  0.44478939  1
  Se  Se172  1  0.25136323  0.40946737  0.95298192  1
  Se  Se173  1  0.26029277  0.75696056  0.43544890  1
  Se  Se174  1  0.25860240  0.73515504  0.94134709  1
  Se  Se175  1  0.59055972  0.07195061  0.43272348  1
  Se  Se176  1  0.58245561  0.08029398  0.95889588  1
  Se  Se177  1  0.57974569  0.41836481  0.43799965  1
  Se  Se178  1  0.56998968  0.43110441  0.96069689  1
  Se  Se179  1  0.57777962  0.74908007  0.43505293  1
  Se  Se180  1  0.57620955  0.75811825  0.95661857  1
  Se  Se181  1  0.92128005  0.07865612  0.43141981  1
  Se  Se182  1  0.91505885  0.08973093  0.95123265  1
  Se  Se183  1  0.91133048  0.41104591  0.44375366  1
  Se  Se184  1  0.92160772  0.42324756  0.94444894  1
  Se  Se185  1  0.92813698  0.72999946  0.45924061  1
  Se  Se186  1  0.91976756  0.75350575  0.94823441  1
  Se  Se187  1  0.24503472  0.25820780  0.30966896  1
  Se  Se188  1  0.24387530  0.24051888  0.80988458  1
  Se  Se189  1  0.23884837  0.58576834  0.30369742  1
  Se  Se190  1  0.24825713  0.57065550  0.81121610  1
  Se  Se191  1  0.25838568  0.92551478  0.30296283  1
  Se  Se192  1  0.23461493  0.89917281  0.80939766  1
  Se  Se193  1  0.59128719  0.25413541  0.29284591  1
  Se  Se194  1  0.57736369  0.24165022  0.81848271  1
  Se  Se195  1  0.60493995  0.60362910  0.29127722  1
  Se  Se196  1  0.58522031  0.57088167  0.81628252  1
  Se  Se197  1  0.59430951  0.91480742  0.29463253  1
  Se  Se198  1  0.57516107  0.91168291  0.81199064  1
  Se  Se199  1  0.91405874  0.24814944  0.29611567  1
  Se  Se200  1  0.91890268  0.26134465  0.80500734  1
  Se  Se201  1  0.90607178  0.57357067  0.31346073  1
  Se  Se202  1  0.92577733  0.59356965  0.80602257  1
  Se  Se203  1  0.92074885  0.89874832  0.30748378  1
  Se  Se204  1  0.90621690  0.91379165  0.81070101  1
  Se  Se205  1  0.09162181  0.08554900  0.31621456  1
  Se  Se206  1  0.08389132  0.08808612  0.80748409  1
  Se  Se207  1  0.07282037  0.41966477  0.30743668  1
  Se  Se208  1  0.08526202  0.41707687  0.80142422  1
  Se  Se209  1  0.08836037  0.76054853  0.31338412  1
  Se  Se210  1  0.07716222  0.74624208  0.79641044  1
  Se  Se211  1  0.42552742  0.09434561  0.29882644  1
  Se  Se212  1  0.42017340  0.08283701  0.82016846  1
  Se  Se213  1  0.42454405  0.43233413  0.30153456  1
  Se  Se214  1  0.43016244  0.41442712  0.81492148  1
  Se  Se215  1  0.40848152  0.73147043  0.29085750  1
  Se  Se216  1  0.42359121  0.74634521  0.81120230  1
  Se  Se217  1  0.75606509  0.07551919  0.29654607  1
  Se  Se218  1  0.75012467  0.09636670  0.81278319  1
  Se  Se219  1  0.74354782  0.41124436  0.30021902  1
  Se  Se220  1  0.76111667  0.43417729  0.81358889  1
  Se  Se221  1  0.75952806  0.74138785  0.30849120  1
  Se  Se222  1  0.75562627  0.76040543  0.81086327  1
  Se  Se223  1  0.23841944  0.10056349  0.20755158  1
  Se  Se224  1  0.24370011  0.09096387  0.68910084  1
  Se  Se225  1  0.24012409  0.42684977  0.18948261  1
  Se  Se226  1  0.24592923  0.42736080  0.68365314  1
  Se  Se227  1  0.24623101  0.75155110  0.20133682  1
  Se  Se228  1  0.24128790  0.74778729  0.68091001  1
  Se  Se229  1  0.58954765  0.08439022  0.19251197  1
  Se  Se230  1  0.57626405  0.08679837  0.69054446  1
  Se  Se231  1  0.58051291  0.41497258  0.20055186  1
  Se  Se232  1  0.58408238  0.42059347  0.68556910  1
  Se  Se233  1  0.58946539  0.73511055  0.21414646  1
  Se  Se234  1  0.58132063  0.75322417  0.68800981  1
  Se  Se235  1  0.91165036  0.08177309  0.18295054  1
  Se  Se236  1  0.90146059  0.09629524  0.69442366  1
  Se  Se237  1  0.91707362  0.41355310  0.19674245  1
  Se  Se238  1  0.92154665  0.41513739  0.70096977  1
  Se  Se239  1  0.91147972  0.74320584  0.18861706  1
  Se  Se240  1  0.92125573  0.74870994  0.68962204  1
  Se  Se241  1  0.08186939  0.24800360  0.20841499  1
  Se  Se242  1  0.07628902  0.25475094  0.69459102  1
  Se  Se243  1  0.07887498  0.57697970  0.18822547  1
  Se  Se244  1  0.08576138  0.58841008  0.68743216  1
  Se  Se245  1  0.09001609  0.91187521  0.19244633  1
  Se  Se246  1  0.08707629  0.91333534  0.68098625  1
  Se  Se247  1  0.42756045  0.25463547  0.17931848  1
  Se  Se248  1  0.42470935  0.24319819  0.69803837  1
  Se  Se249  1  0.39769788  0.60314210  0.20972054  1
  Se  Se250  1  0.43029103  0.57739602  0.69253236  1
  Se  Se251  1  0.40973661  0.93221092  0.20320414  1
  Se  Se252  1  0.41646723  0.90875428  0.69333950  1
  Se  Se253  1  0.74980075  0.25025241  0.19048814  1
  Se  Se254  1  0.74703409  0.25311835  0.69142705  1
  Se  Se255  1  0.74642190  0.58615421  0.20413414  1
  Se  Se256  1  0.75669266  0.57739980  0.69005205  1
  Se  Se257  1  0.75216856  0.91261019  0.19959524  1
  Se  Se258  1  0.75466587  0.90512396  0.68381926  1
