# generated using pymatgen
data_In86Cu29Se144
_symmetry_space_group_name_H-M   'P 1'
_cell_length_a   17.58175715
_cell_length_b   17.57764183
_cell_length_c   23.44297884
_cell_angle_alpha   89.97614830
_cell_angle_beta   90.00389280
_cell_angle_gamma   89.99155687
_symmetry_Int_Tables_number   1
_chemical_formula_structural   In86Cu29Se144
_chemical_formula_sum   'In86 Cu29 Se144'
_cell_volume   7244.95413009
_cell_formula_units_Z   1
loop_
 _symmetry_equiv_pos_site_id
 _symmetry_equiv_pos_as_xyz
  1  'x, y, z'
loop_
 _atom_site_type_symbol
 _atom_site_label
 _atom_site_symmetry_multiplicity
 _atom_site_fract_x
 _atom_site_fract_y
 _atom_site_fract_z
 _atom_site_occupancy
  In  In0  1  0.01047182  0.15879126  0.12798027  1
  In  In1  1  0.00221005  0.16766711  0.63912840  1
  In  In2  1  0.00788534  0.48867732  0.12951128  1
  In  In3  1  -0.00497684  0.50197064  0.63450956  1
  In  In4  1  -0.00637518  0.84379332  0.12630031  1
  In  In5  1  0.00609041  0.82156007  0.63074118  1
  In  In6  1  0.33664062  0.16438667  0.12214902  1
  In  In7  1  0.33454805  0.16256736  0.62768186  1
  In  In8  1  0.31964416  0.50149182  0.12614320  1
  In  In9  1  0.33110834  0.50042374  0.63069643  1
  In  In10  1  0.34431260  0.83709867  0.12728365  1
  In  In11  1  0.32585916  0.82291915  0.60919332  1
  In  In12  1  0.65654082  0.17266105  0.13144310  1
  In  In13  1  0.65023225  0.16268747  0.62439190  1
  In  In14  1  0.65685612  0.49314056  0.12753442  1
  In  In15  1  0.68377094  0.49936861  0.62443699  1
  In  In16  1  0.68476364  0.83570220  0.12147600  1
  In  In17  1  0.65536385  0.83878291  0.62861850  1
  In  In18  1  0.16419073  -0.00468021  0.36719452  1
  In  In19  1  0.16477189  0.02726735  0.87605609  1
  In  In20  1  0.16908976  0.33587553  0.36799991  1
  In  In21  1  0.17216084  0.33197171  0.87724676  1
  In  In22  1  0.16908561  0.68427201  0.37563213  1
  In  In23  1  0.15987094  0.65705449  0.86892653  1
  In  In24  1  0.49824689  0.00216591  0.37474420  1
  In  In25  1  0.50500474  0.00397267  0.87931852  1
  In  In26  1  0.48465699  0.32111492  0.36592932  1
  In  In27  1  0.48470434  0.33444498  0.87549402  1
  In  In28  1  0.50744838  0.67068431  0.38304707  1
  In  In29  1  0.50010202  0.67301966  0.86336782  1
  In  In30  1  0.83761027  0.00243480  0.36642042  1
  In  In31  1  0.82801902  -0.00742329  0.87152748  1
  In  In32  1  0.84052738  0.34310718  0.36952800  1
  In  In33  1  0.83746086  0.32592126  0.87515628  1
  In  In34  1  0.83231563  0.65268134  0.37944105  1
  In  In35  1  0.83884916  0.67268637  0.86862363  1
  In  In36  1  0.00426983  0.16868202  0.36414705  1
  In  In37  1  0.02229459  0.18193943  0.85862873  1
  In  In38  1  -0.00672776  0.49405236  0.37008515  1
  In  In39  1  0.00731950  0.51450401  0.86554101  1
  In  In40  1  0.00934826  0.83968473  0.36952881  1
  In  In41  1  -0.00716799  0.82293109  0.86703426  1
  In  In42  1  0.34676974  0.17884327  0.37158194  1
  In  In43  1  0.31429024  0.18059913  0.89654595  1
  In  In44  1  0.34358492  0.48851203  0.37363697  1
  In  In45  1  0.32347719  0.48673315  0.86536033  1
  In  In46  1  0.32059157  0.83956131  0.38481490  1
  In  In47  1  0.34260040  0.83515442  0.87155971  1
  In  In48  1  0.65672343  0.15557069  0.36880064  1
  In  In49  1  0.66948468  0.15262745  0.87758376  1
  In  In50  1  0.67480537  0.50818928  0.37648116  1
  In  In51  1  0.66675829  0.50630852  0.86654157  1
  In  In52  1  0.65580248  0.83477382  0.37844010  1
  In  In53  1  0.66814007  0.84117265  0.87326732  1
  In  In54  1  0.16369083  0.00877437  0.12357276  1
  In  In55  1  0.17472476  -0.01040132  0.62848471  1
  In  In56  1  0.17011841  0.33016306  0.12676445  1
  In  In57  1  0.16370337  0.32887445  0.63622248  1
  In  In58  1  0.16626159  0.64751696  0.12046164  1
  In  In59  1  0.16436126  0.66970937  0.62815138  1
  In  In60  1  0.48416463  0.01629606  0.13903344  1
  In  In61  1  0.49944631  0.00420744  0.62063325  1
  In  In62  1  0.51167680  0.32671200  0.13843926  1
  In  In63  1  0.49484770  0.31809334  0.62006458  1
  In  In64  1  0.50274851  0.66416549  0.12463999  1
  In  In65  1  0.48770622  0.68020063  0.63057498  1
  In  In66  1  0.84396329  -0.00654016  0.12909297  1
  In  In67  1  0.83234784  -0.00632890  0.63092888  1
  In  In68  1  0.83354630  0.33099803  0.13208743  1
  In  In69  1  0.84094066  0.34396212  0.62641801  1
  In  In70  1  0.83510923  0.68541331  0.11826113  1
  In  In71  1  0.84182960  0.64762578  0.64035306  1
  In  In72  1  0.33120890  0.00430068  0.75256831  1
  In  In73  1  0.83898834  0.50340929  -0.01100705  1
  In  In74  1  0.49655279  0.50002073  0.00291755  1
  In  In75  1  0.16350286  0.83829879  0.00186049  1
  In  In76  1  0.83221397  0.16902340  0.49097941  1
  In  In77  1  0.17205698  0.16632678  0.50281444  1
  In  In78  1  0.16865234  0.50278114  0.49947542  1
  In  In79  1  0.50048905  0.50181589  0.49871021  1
  In  In80  1  0.66976082  0.66746370  0.25165499  1
  In  In81  1  0.66668991  0.33206420  0.74465749  1
  In  In82  1  0.33079852  0.66538219  0.25251220  1
  In  In83  1  0.83876184  0.15966588  -0.00029358  1
  In  In84  1  0.50395386  0.83938253  -0.00348942  1
  In  In85  1  0.83091449  0.82660819  0.50429923  1
  Cu  Cu86  1  0.49811586  0.16389205  0.74986162  1
  Cu  Cu87  1  0.83641287  0.50384777  0.24959268  1
  Cu  Cu88  1  0.66475498  0.33577832  0.50115982  1
  Cu  Cu89  1  0.83076106  0.15905504  0.75330924  1
  Cu  Cu90  1  0.82555066  0.83284804  0.74803737  1
  Cu  Cu91  1  0.49648226  0.83563457  0.74813635  1
  Cu  Cu92  1  0.66125101  0.00386999  0.49859736  1
  Cu  Cu93  1  0.16506280  0.83331675  0.74850972  1
  Cu  Cu94  1  0.01157895  -0.00729257  0.49792762  1
  Cu  Cu95  1  0.49846014  0.50142624  0.74748875  1
  Cu  Cu96  1  0.66004697  0.33522590  0.00704341  1
  Cu  Cu97  1  0.66299382  0.00099533  0.00221453  1
  Cu  Cu98  1  0.16107362  0.49637988  0.24956341  1
  Cu  Cu99  1  0.49848058  0.16271176  0.25060769  1
  Cu  Cu100  1  0.16457821  0.83556167  0.24676968  1
  Cu  Cu101  1  0.16964213  0.50046782  0.74999009  1
  Cu  Cu102  1  -0.00368139  0.33887262  0.49829226  1
  Cu  Cu103  1  0.01482935  0.33104086  0.00109507  1
  Cu  Cu104  1  0.33958840  0.00315393  0.49858940  1
  Cu  Cu105  1  0.17068739  0.16588403  0.24656624  1
  Cu  Cu106  1  0.33214343  0.33059425  0.00284918  1
  Cu  Cu107  1  0.32962703  0.66118050  -0.00702901  1
  Cu  Cu108  1  0.00193102  0.66531293  0.50773810  1
  Cu  Cu109  1  -0.00177923  0.66559880  -0.00709921  1
  Cu  Cu110  1  -0.00488144  -0.00136544  -0.00286384  1
  Cu  Cu111  1  0.66904374  0.66590575  0.50452394  1
  Cu  Cu112  1  0.50116396  0.84080252  0.25475408  1
  Cu  Cu113  1  0.82833800  0.17053528  0.24893411  1
  Cu  Cu114  1  0.83958353  0.83448607  0.24896586  1
  Se  Se115  1  0.07991375  0.08181631  0.04906228  1
  Se  Se116  1  0.07833170  0.07911370  0.56221036  1
  Se  Se117  1  0.09181613  0.41803540  0.05562907  1
  Se  Se118  1  0.08014533  0.41187592  0.56054744  1
  Se  Se119  1  0.07643099  0.74199781  0.05917763  1
  Se  Se120  1  0.08694082  0.75173173  0.55408583  1
  Se  Se121  1  0.42337014  0.08365276  0.05478670  1
  Se  Se122  1  0.41663091  0.08967165  0.55346751  1
  Se  Se123  1  0.41197494  0.40954164  0.06509845  1
  Se  Se124  1  0.40957265  0.41289839  0.55812976  1
  Se  Se125  1  0.41014253  0.73954873  0.05317695  1
  Se  Se126  1  0.42766720  0.75521214  0.54812756  1
  Se  Se127  1  0.74494109  0.07969386  0.06385445  1
  Se  Se128  1  0.74792039  0.07910839  0.55714461  1
  Se  Se129  1  0.75035831  0.41475409  0.05684071  1
  Se  Se130  1  0.75459836  0.41263562  0.55204564  1
  Se  Se131  1  0.74559881  0.74923216  0.04681920  1
  Se  Se132  1  0.74764366  0.74046807  0.57019155  1
  Se  Se133  1  0.24789226  0.24644089  0.05546655  1
  Se  Se134  1  0.25599072  0.26080009  0.56108217  1
  Se  Se135  1  0.24925723  0.57624400  0.04614283  1
  Se  Se136  1  0.25846902  0.59188289  0.55829839  1
  Se  Se137  1  0.25960887  0.92199441  0.05973202  1
  Se  Se138  1  0.24984220  0.92233707  0.54880820  1
  Se  Se139  1  0.57768513  0.25020141  0.05696652  1
  Se  Se140  1  0.58300220  0.24673798  0.54875188  1
  Se  Se141  1  0.59539519  0.59197158  0.05431921  1
  Se  Se142  1  0.58688329  0.58699343  0.56504975  1
  Se  Se143  1  0.58449112  0.92398386  0.06654097  1
  Se  Se144  1  0.58161641  0.91821486  0.55279179  1
  Se  Se145  1  0.92454265  0.25625370  0.05820010  1
  Se  Se146  1  0.92404258  0.24921239  0.55734454  1
  Se  Se147  1  0.92352477  0.58526886  0.05941424  1
  Se  Se148  1  0.91880447  0.58118051  0.55920281  1
  Se  Se149  1  0.91239006  0.91488561  0.04970062  1
  Se  Se150  1  0.92500539  0.92022971  0.55785138  1
  Se  Se151  1  0.07770300  0.25609993  0.44172179  1
  Se  Se152  1  0.08992666  0.24343943  0.94534387  1
  Se  Se153  1  0.07613411  0.58939628  0.43898913  1
  Se  Se154  1  0.08512773  0.58086084  0.94612527  1
  Se  Se155  1  0.09341212  0.91180165  0.44358264  1
  Se  Se156  1  0.07605700  0.91999812  0.93475231  1
  Se  Se157  1  0.41886885  0.25306295  0.44910300  1
  Se  Se158  1  0.42211749  0.25067372  0.95275619  1
  Se  Se159  1  0.40497101  0.59159031  0.44198225  1
  Se  Se160  1  0.41354443  0.58487216  0.93343810  1
  Se  Se161  1  0.41912329  0.91650706  0.44472158  1
  Se  Se162  1  0.40502592  0.92875701  0.94564034  1
  Se  Se163  1  0.74081816  0.25842641  0.43381914  1
  Se  Se164  1  0.74176840  0.25557413  0.94651566  1
  Se  Se165  1  0.75228008  0.58008462  0.45470859  1
  Se  Se166  1  0.74183266  0.59280346  0.93877377  1
  Se  Se167  1  0.74943586  0.92552446  0.44285149  1
  Se  Se168  1  0.74672800  0.92006195  0.94762127  1
  Se  Se169  1  0.25601447  0.08001279  0.43655287  1
  Se  Se170  1  0.25212878  0.07374657  0.95529945  1
  Se  Se171  1  0.25688309  0.40601446  0.44423954  1
  Se  Se172  1  0.25357325  0.41704494  0.94743679  1
  Se  Se173  1  0.25220108  0.74531600  0.45202791  1
  Se  Se174  1  0.25201838  0.74816360  0.93778172  1
  Se  Se175  1  0.57762908  0.08708045  0.44663723  1
  Se  Se176  1  0.58141842  0.08778871  0.95184678  1
  Se  Se177  1  0.58654997  0.41241335  0.43613946  1
  Se  Se178  1  0.58930941  0.41349126  0.93905806  1
  Se  Se179  1  0.58692392  0.75198670  0.45402044  1
  Se  Se180  1  0.58698699  0.74276332  0.93959408  1
  Se  Se181  1  0.93133324  0.07556670  0.44018105  1
  Se  Se182  1  0.92517856  0.08168095  0.93101450  1
  Se  Se183  1  0.91264733  0.42223123  0.44700531  1
  Se  Se184  1  0.93218316  0.40661997  0.93916721  1
  Se  Se185  1  0.92484662  0.74458901  0.44153289  1
  Se  Se186  1  0.91399874  0.75156591  0.94495743  1
  Se  Se187  1  0.25107000  0.24859803  0.30369652  1
  Se  Se188  1  0.25531270  0.24682201  0.81080067  1
  Se  Se189  1  0.24029998  0.57465537  0.31343013  1
  Se  Se190  1  0.25450888  0.58664224  0.80134202  1
  Se  Se191  1  0.25254522  0.91164726  0.30220049  1
  Se  Se192  1  0.23891740  0.91409323  0.81328628  1
  Se  Se193  1  0.58252968  0.24839812  0.30243680  1
  Se  Se194  1  0.58035226  0.24534830  0.81082092  1
  Se  Se195  1  0.57410537  0.57989020  0.30826478  1
  Se  Se196  1  0.58243936  0.58505195  0.79827717  1
  Se  Se197  1  0.58795156  0.92169732  0.30612345  1
  Se  Se198  1  0.57530672  0.91767010  0.80670788  1
  Se  Se199  1  0.91491558  0.25175478  0.30208543  1
  Se  Se200  1  0.91256732  0.24750082  0.80176300  1
  Se  Se201  1  0.91764289  0.58817166  0.30352732  1
  Se  Se202  1  0.90826265  0.57882569  0.80176116  1
  Se  Se203  1  0.92327920  0.91935494  0.30144944  1
  Se  Se204  1  0.91233294  0.91298424  0.80197797  1
  Se  Se205  1  0.08502033  0.08166137  0.29893141  1
  Se  Se206  1  0.07165687  0.06940207  0.79885509  1
  Se  Se207  1  0.07761946  0.41181500  0.30243112  1
  Se  Se208  1  0.09017899  0.41867959  0.80852359  1
  Se  Se209  1  0.08382532  0.74968242  0.29976513  1
  Se  Se210  1  0.08309575  0.74576799  0.80065613  1
  Se  Se211  1  0.41343821  0.08121041  0.30440957  1
  Se  Se212  1  0.41667937  0.09343995  0.81560212  1
  Se  Se213  1  0.41582571  0.41527852  0.29753871  1
  Se  Se214  1  0.41675395  0.41316585  0.79778961  1
  Se  Se215  1  0.42229270  0.75512975  0.31221276  1
  Se  Se216  1  0.40991797  0.75074166  0.79691347  1
  Se  Se217  1  0.74981300  0.08250512  0.30172607  1
  Se  Se218  1  0.74386921  0.07662382  0.80231321  1
  Se  Se219  1  0.75070010  0.42475308  0.30441246  1
  Se  Se220  1  0.75810060  0.41745834  0.80640150  1
  Se  Se221  1  0.75947161  0.75843251  0.31378350  1
  Se  Se222  1  0.74466869  0.75205518  0.80540001  1
  Se  Se223  1  0.25301373  0.08204632  0.19304151  1
  Se  Se224  1  0.23552640  0.09442788  0.69630658  1
  Se  Se225  1  0.24921162  0.41559810  0.19866321  1
  Se  Se226  1  0.25177460  0.41459552  0.69842260  1
  Se  Se227  1  0.24266019  0.75241292  0.18575501  1
  Se  Se228  1  0.25144772  0.75693312  0.69179550  1
  Se  Se229  1  0.58849540  0.07958188  0.20164310  1
  Se  Se230  1  0.57959040  0.07828309  0.69791682  1
  Se  Se231  1  0.58333178  0.42183982  0.20368414  1
  Se  Se232  1  0.57468965  0.42000011  0.68379103  1
  Se  Se233  1  0.57846452  0.76013382  0.19187141  1
  Se  Se234  1  0.58222902  0.74970046  0.69892887  1
  Se  Se235  1  0.91481551  0.08863782  0.19499890  1
  Se  Se236  1  0.91460219  0.07780258  0.69781564  1
  Se  Se237  1  0.91728376  0.41539245  0.19782939  1
  Se  Se238  1  0.92665855  0.40580437  0.70071397  1
  Se  Se239  1  0.91985356  0.75046093  0.19435980  1
  Se  Se240  1  0.91465229  0.74993814  0.69884021  1
  Se  Se241  1  0.08377441  0.25003055  0.19592387  1
  Se  Se242  1  0.07670107  0.25595782  0.70515589  1
  Se  Se243  1  0.08139796  0.58359538  0.19678314  1
  Se  Se244  1  0.08565781  0.58457895  0.69694560  1
  Se  Se245  1  0.08426048  0.92091046  0.19184459  1
  Se  Se246  1  0.08198652  0.91657825  0.69513009  1
  Se  Se247  1  0.41502785  0.24607518  0.19621574  1
  Se  Se248  1  0.41536461  0.24748137  0.69702706  1
  Se  Se249  1  0.42200633  0.57677541  0.19189491  1
  Se  Se250  1  0.41371850  0.58629918  0.69649314  1
  Se  Se251  1  0.41150945  0.91858590  0.20338911  1
  Se  Se252  1  0.41340329  0.91337385  0.68733152  1
  Se  Se253  1  0.74337623  0.25488501  0.19797040  1
  Se  Se254  1  0.75633365  0.23807983  0.68563190  1
  Se  Se255  1  0.75836246  0.58186982  0.18556926  1
  Se  Se256  1  0.74505999  0.57703881  0.70436576  1
  Se  Se257  1  0.75339782  0.91683144  0.19778462  1
  Se  Se258  1  0.74162126  0.91864958  0.69712791  1
