# generated using pymatgen
data_In86Cu29Se144
_symmetry_space_group_name_H-M   'P 1'
_cell_length_a   17.58297999
_cell_length_b   17.58589882
_cell_length_c   23.43719414
_cell_angle_alpha   90.02108887
_cell_angle_beta   90.00768427
_cell_angle_gamma   89.99752349
_symmetry_Int_Tables_number   1
_chemical_formula_structural   In86Cu29Se144
_chemical_formula_sum   'In86 Cu29 Se144'
_cell_volume   7247.07299481
_cell_formula_units_Z   1
loop_
 _symmetry_equiv_pos_site_id
 _symmetry_equiv_pos_as_xyz
  1  'x, y, z'
loop_
 _atom_site_type_symbol
 _atom_site_label
 _atom_site_symmetry_multiplicity
 _atom_site_fract_x
 _atom_site_fract_y
 _atom_site_fract_z
 _atom_site_occupancy
  In  In0  1  -0.00264204  0.17048421  0.12571788  1
  In  In1  1  -0.01331395  0.15680551  0.61442707  1
  In  In2  1  -0.00391958  0.51275720  0.12900726  1
  In  In3  1  0.00442408  0.49699863  0.62612251  1
  In  In4  1  -0.02372340  0.83609448  0.13263134  1
  In  In5  1  0.02205999  0.84809963  0.61941983  1
  In  In6  1  0.35522358  0.14331489  0.15605657  1
  In  In7  1  0.33750075  0.16763620  0.62073777  1
  In  In8  1  0.33784459  0.48019225  0.12514067  1
  In  In9  1  0.34882516  0.48768706  0.63021824  1
  In  In10  1  0.34563269  0.84543212  0.12787879  1
  In  In11  1  0.33282610  0.83702566  0.62411002  1
  In  In12  1  0.66477493  0.16737729  0.13390998  1
  In  In13  1  0.66431020  0.16871564  0.62219372  1
  In  In14  1  0.66476302  0.49382192  0.12246515  1
  In  In15  1  0.65151737  0.49978330  0.62322084  1
  In  In16  1  0.66545584  0.84277917  0.14290135  1
  In  In17  1  0.67150526  0.85418488  0.62133175  1
  In  In18  1  0.16987366  -0.00127427  0.38216354  1
  In  In19  1  0.16996557  0.00086955  0.86271673  1
  In  In20  1  0.17231190  0.29530336  0.37654167  1
  In  In21  1  0.16896235  0.32275880  0.86985538  1
  In  In22  1  0.16957355  0.68082471  0.37798486  1
  In  In23  1  0.17076467  0.65927604  0.87035764  1
  In  In24  1  0.49356583  0.00652124  0.37489991  1
  In  In25  1  0.50790252  0.00946000  0.86461296  1
  In  In26  1  0.50892706  0.32661686  0.36838966  1
  In  In27  1  0.49917480  0.32656177  0.87457346  1
  In  In28  1  0.50635863  0.66138765  0.38089632  1
  In  In29  1  0.48982172  0.66446443  0.87344176  1
  In  In30  1  0.82682258  0.01495073  0.36789495  1
  In  In31  1  0.84099203  0.01470752  0.87265645  1
  In  In32  1  0.82119400  0.32596249  0.37262532  1
  In  In33  1  0.82229239  0.33674584  0.88573380  1
  In  In34  1  0.82951475  0.66815386  0.35693932  1
  In  In35  1  0.82428367  0.66304971  0.87953545  1
  In  In36  1  -0.00177077  0.16786825  0.38792917  1
  In  In37  1  -0.00503245  0.15779515  0.87991740  1
  In  In38  1  -0.01165830  0.49516060  0.37175048  1
  In  In39  1  -0.00283359  0.49033313  0.88050842  1
  In  In40  1  0.01199449  0.83632221  0.37725235  1
  In  In41  1  -0.00022525  0.84602430  0.87098013  1
  In  In42  1  0.33918917  0.16672066  0.36753056  1
  In  In43  1  0.33943845  0.17272260  0.86301903  1
  In  In44  1  0.35212466  0.49524192  0.37827718  1
  In  In45  1  0.33957608  0.50058905  0.86925211  1
  In  In46  1  0.32304911  0.84910775  0.38675900  1
  In  In47  1  0.33839269  0.84191298  0.85793888  1
  In  In48  1  0.66310763  0.16566225  0.36914798  1
  In  In49  1  0.66117130  0.16494786  0.87661455  1
  In  In50  1  0.65274001  0.49544378  0.36624006  1
  In  In51  1  0.67339975  0.48618468  0.88535039  1
  In  In52  1  0.66084392  0.82348515  0.36937599  1
  In  In53  1  0.65730024  0.83889301  0.87157758  1
  In  In54  1  0.17985735  0.01412936  0.12836479  1
  In  In55  1  0.16770340  -0.00172827  0.62589722  1
  In  In56  1  0.17691697  0.32486569  0.13297126  1
  In  In57  1  0.18102509  0.33359373  0.61976380  1
  In  In58  1  0.15777662  0.66034375  0.12907455  1
  In  In59  1  0.18019321  0.69010522  0.62005825  1
  In  In60  1  0.50611534  0.00834010  0.13992225  1
  In  In61  1  0.50177042  0.00506834  0.61979254  1
  In  In62  1  0.49660469  0.32667785  0.12729571  1
  In  In63  1  0.50140318  0.33132617  0.62231233  1
  In  In64  1  0.51462713  0.66679333  0.12545011  1
  In  In65  1  0.49030703  0.65902645  0.61715856  1
  In  In66  1  0.82514584  0.00363793  0.12639830  1
  In  In67  1  0.82194711  0.01883990  0.63325380  1
  In  In68  1  0.80786900  0.31411296  0.12376269  1
  In  In69  1  0.83350164  0.31191471  0.62238400  1
  In  In70  1  0.83471858  0.66629487  0.13291038  1
  In  In71  1  0.83759782  0.66283173  0.62419383  1
  In  In72  1  0.00295489  0.33023209  0.74976282  1
  In  In73  1  0.83235212  0.83649354  0.49505402  1
  In  In74  1  0.50084865  0.83397191  -0.00314769  1
  In  In75  1  0.17169214  0.49358589  0.50504587  1
  In  In76  1  -0.00379227  -0.00194790  0.25150934  1
  In  In77  1  0.33124234  0.66839585  0.25431034  1
  In  In78  1  0.66062124  0.67009564  0.75334884  1
  In  In79  1  0.82295476  0.48923987  0.48381554  1
  In  In80  1  0.82715669  0.83890216  0.00989150  1
  In  In81  1  0.00360431  0.67684276  0.75110892  1
  In  In82  1  0.16478787  0.49554524  -0.00010745  1
  In  In83  1  0.16672201  0.16943639  -0.00113407  1
  In  In84  1  -0.00196236  0.33179360  0.25247267  1
  In  In85  1  0.16525494  0.83214111  -0.01269498  1
  Cu  Cu86  1  0.16249479  0.49843301  0.25334306  1
  Cu  Cu87  1  0.34269790  0.32830752  0.49674022  1
  Cu  Cu88  1  0.49262525  0.83890795  0.25762497  1
  Cu  Cu89  1  0.17068155  0.16703252  0.74368568  1
  Cu  Cu90  1  0.17811798  0.50889148  0.74444217  1
  Cu  Cu91  1  0.66069329  0.00900669  0.49740099  1
  Cu  Cu92  1  -0.00137688  -0.00018681  0.50021261  1
  Cu  Cu93  1  0.83982298  0.84619473  0.74646933  1
  Cu  Cu94  1  0.34211660  0.32313548  -0.00000295  1
  Cu  Cu95  1  0.83223690  0.50126938  0.24405247  1
  Cu  Cu96  1  -0.00900236  0.67377381  0.00744560  1
  Cu  Cu97  1  0.50040084  0.48960262  0.74948078  1
  Cu  Cu98  1  0.33580396  0.00706474  0.50210531  1
  Cu  Cu99  1  0.65731688  0.32414718  0.00386344  1
  Cu  Cu100  1  0.66279329  0.32846600  0.49550283  1
  Cu  Cu101  1  0.65806347  0.66914380  0.49718879  1
  Cu  Cu102  1  0.82569224  0.16619347  0.75076714  1
  Cu  Cu103  1  0.00051305  0.66188506  0.49892981  1
  Cu  Cu104  1  0.33760058  0.65701510  -0.00395605  1
  Cu  Cu105  1  0.66381003  0.00727614  0.00226375  1
  Cu  Cu106  1  0.33628731  0.67291463  0.49912878  1
  Cu  Cu107  1  0.50010134  0.16682223  0.74407541  1
  Cu  Cu108  1  0.50133473  0.83808771  0.74162470  1
  Cu  Cu109  1  0.66894529  0.65340558  0.00441957  1
  Cu  Cu110  1  0.50402380  0.50090620  0.24947858  1
  Cu  Cu111  1  -0.01327471  0.33860710  0.00893296  1
  Cu  Cu112  1  0.16247794  0.83499269  0.25481184  1
  Cu  Cu113  1  0.82624409  0.49338473  0.75724926  1
  Cu  Cu114  1  0.33950722  0.00861806  0.00396335  1
  Se  Se115  1  0.07931496  0.07675751  0.05924468  1
  Se  Se116  1  0.08463263  0.08032001  0.55443643  1
  Se  Se117  1  0.07821336  0.40854584  0.06686948  1
  Se  Se118  1  0.07264214  0.40336323  0.55647999  1
  Se  Se119  1  0.07797961  0.75317486  0.06085734  1
  Se  Se120  1  0.08129459  0.74852433  0.55008962  1
  Se  Se121  1  0.41947393  0.08192440  0.06733614  1
  Se  Se122  1  0.42335491  0.09081799  0.55003076  1
  Se  Se123  1  0.42135563  0.41200088  0.05136013  1
  Se  Se124  1  0.42116652  0.41629389  0.55061617  1
  Se  Se125  1  0.41007755  0.74257824  0.05862380  1
  Se  Se126  1  0.41871271  0.75618434  0.55360282  1
  Se  Se127  1  0.74546313  0.08781887  0.05847425  1
  Se  Se128  1  0.74909487  0.08639514  0.55203417  1
  Se  Se129  1  0.74553799  0.40936413  0.05282225  1
  Se  Se130  1  0.74219927  0.41010433  0.55793231  1
  Se  Se131  1  0.73528387  0.74531289  0.06433500  1
  Se  Se132  1  0.74417203  0.74230856  0.55804063  1
  Se  Se133  1  0.26207278  0.24650812  0.06198839  1
  Se  Se134  1  0.25431527  0.24871353  0.54849161  1
  Se  Se135  1  0.25579561  0.58660094  0.06044871  1
  Se  Se136  1  0.26166738  0.58655108  0.56173459  1
  Se  Se137  1  0.25582079  0.92079547  0.05407132  1
  Se  Se138  1  0.25201063  0.92088984  0.55339824  1
  Se  Se139  1  0.57883983  0.24044266  0.06075632  1
  Se  Se140  1  0.58000032  0.24730024  0.55147062  1
  Se  Se141  1  0.57731312  0.57567286  0.05313870  1
  Se  Se142  1  0.57953620  0.58047112  0.54918703  1
  Se  Se143  1  0.58768422  0.92068477  0.06178367  1
  Se  Se144  1  0.58302486  0.91917420  0.54901679  1
  Se  Se145  1  0.90972446  0.24729493  0.05867538  1
  Se  Se146  1  0.91304218  0.24648924  0.54643277  1
  Se  Se147  1  0.91072181  0.58567600  0.05680517  1
  Se  Se148  1  0.91793061  0.57798746  0.55203727  1
  Se  Se149  1  0.92661866  0.93185746  0.05558744  1
  Se  Se150  1  0.91364329  0.92498814  0.56233535  1
  Se  Se151  1  0.08594275  0.24594666  0.45472125  1
  Se  Se152  1  0.07061124  0.26501130  0.94465228  1
  Se  Se153  1  0.08098608  0.58093223  0.43957674  1
  Se  Se154  1  0.07318904  0.59542010  0.94515943  1
  Se  Se155  1  0.08554746  0.91551781  0.45138235  1
  Se  Se156  1  0.07744266  0.93532582  0.94138526  1
  Se  Se157  1  0.42339716  0.24818383  0.43824852  1
  Se  Se158  1  0.41841248  0.23778185  0.94283491  1
  Se  Se159  1  0.41858883  0.58452008  0.45029250  1
  Se  Se160  1  0.42112738  0.57404165  0.94475712  1
  Se  Se161  1  0.41958005  0.92182795  0.44961232  1
  Se  Se162  1  0.41133912  0.92514420  0.93860764  1
  Se  Se163  1  0.74614999  0.24347303  0.44443309  1
  Se  Se164  1  0.74400001  0.24444122  0.94872183  1
  Se  Se165  1  0.74027909  0.59450742  0.43417702  1
  Se  Se166  1  0.75565980  0.57582787  0.95056416  1
  Se  Se167  1  0.74036234  0.92544476  0.43778785  1
  Se  Se168  1  0.74034829  0.92302233  0.94188176  1
  Se  Se169  1  0.25662314  0.08806114  0.44185957  1
  Se  Se170  1  0.25736231  0.07962077  0.93861222  1
  Se  Se171  1  0.25652035  0.40761492  0.43825151  1
  Se  Se172  1  0.25561308  0.40337428  0.94249474  1
  Se  Se173  1  0.24642037  0.75534392  0.45277023  1
  Se  Se174  1  0.26563008  0.74256989  0.93596431  1
  Se  Se175  1  0.57901592  0.09112575  0.44230438  1
  Se  Se176  1  0.57566230  0.08208388  0.94629704  1
  Se  Se177  1  0.58216810  0.41538194  0.44237011  1
  Se  Se178  1  0.57895724  0.40909271  0.94713742  1
  Se  Se179  1  0.57798363  0.75764688  0.44729323  1
  Se  Se180  1  0.59395149  0.73702112  0.94186405  1
  Se  Se181  1  0.91059370  0.07740047  0.44638661  1
  Se  Se182  1  0.90950271  0.08878509  0.95185619  1
  Se  Se183  1  0.92513583  0.39689386  0.44130257  1
  Se  Se184  1  0.90953805  0.42191915  0.95134713  1
  Se  Se185  1  0.91855060  0.73850228  0.43773988  1
  Se  Se186  1  0.91880794  0.75251585  0.94066348  1
  Se  Se187  1  0.26619413  0.26137202  0.29866045  1
  Se  Se188  1  0.25196374  0.25402628  0.79573410  1
  Se  Se189  1  0.24530476  0.57527405  0.31578073  1
  Se  Se190  1  0.25989503  0.58841243  0.80141655  1
  Se  Se191  1  0.24640880  0.91752078  0.30716241  1
  Se  Se192  1  0.25268942  0.92272961  0.79473540  1
  Se  Se193  1  0.60779786  0.26678659  0.29711436  1
  Se  Se194  1  0.58201108  0.24623478  0.80383987  1
  Se  Se195  1  0.58156024  0.59221925  0.30039570  1
  Se  Se196  1  0.57990831  0.57069544  0.81171730  1
  Se  Se197  1  0.57980061  0.91843022  0.30965030  1
  Se  Se198  1  0.58552698  0.91864942  0.79729858  1
  Se  Se199  1  0.91030554  0.23688358  0.30905282  1
  Se  Se200  1  0.90821497  0.24773192  0.81119547  1
  Se  Se201  1  0.91925942  0.57957647  0.29844284  1
  Se  Se202  1  0.91275057  0.57775715  0.80856101  1
  Se  Se203  1  0.90975497  0.90829807  0.31440322  1
  Se  Se204  1  0.91960874  0.92824424  0.80277625  1
  Se  Se205  1  0.08259958  0.08631229  0.31444120  1
  Se  Se206  1  0.08582076  0.09654187  0.80583330  1
  Se  Se207  1  0.09250831  0.41316340  0.31650667  1
  Se  Se208  1  0.09461759  0.43015809  0.80540156  1
  Se  Se209  1  0.08157759  0.74745985  0.30437787  1
  Se  Se210  1  0.09739990  0.76387853  0.80897018  1
  Se  Se211  1  0.42476785  0.08853970  0.29811618  1
  Se  Se212  1  0.41578662  0.08152864  0.79663580  1
  Se  Se213  1  0.42308173  0.41632740  0.30289836  1
  Se  Se214  1  0.41527259  0.40893062  0.80393873  1
  Se  Se215  1  0.41468585  0.75743962  0.31832434  1
  Se  Se216  1  0.42571665  0.75164881  0.79897413  1
  Se  Se217  1  0.72937704  0.07059610  0.29663286  1
  Se  Se218  1  0.74446230  0.08210560  0.80597197  1
  Se  Se219  1  0.75578820  0.42436403  0.30697572  1
  Se  Se220  1  0.74460834  0.40845215  0.80722971  1
  Se  Se221  1  0.74467455  0.75263391  0.29577295  1
  Se  Se222  1  0.76189557  0.76167404  0.80615921  1
  Se  Se223  1  0.24474626  0.08115976  0.21090340  1
  Se  Se224  1  0.25432315  0.08526672  0.69033322  1
  Se  Se225  1  0.24765985  0.41960734  0.19945447  1
  Se  Se226  1  0.25237268  0.41503537  0.69496099  1
  Se  Se227  1  0.24440964  0.75938456  0.18935912  1
  Se  Se228  1  0.25713275  0.75408128  0.69784715  1
  Se  Se229  1  0.61646923  0.05863194  0.20288058  1
  Se  Se230  1  0.58533815  0.08344462  0.69206132  1
  Se  Se231  1  0.58064734  0.41537911  0.19283948  1
  Se  Se232  1  0.58618443  0.41091108  0.69523464  1
  Se  Se233  1  0.57340261  0.75626063  0.20066983  1
  Se  Se234  1  0.58241991  0.75570592  0.68262085  1
  Se  Se235  1  0.90664885  0.09405366  0.19618276  1
  Se  Se236  1  0.91878409  0.08947587  0.69923464  1
  Se  Se237  1  0.90862789  0.41402170  0.18591358  1
  Se  Se238  1  0.90754071  0.42085327  0.69201648  1
  Se  Se239  1  0.92787133  0.73583897  0.20135549  1
  Se  Se240  1  0.91401866  0.76295555  0.68576800  1
  Se  Se241  1  0.09210359  0.23632885  0.19850184  1
  Se  Se242  1  0.08752893  0.24507410  0.68353702  1
  Se  Se243  1  0.08041343  0.58406489  0.20332077  1
  Se  Se244  1  0.09229738  0.58615209  0.68778751  1
  Se  Se245  1  0.08922594  0.91242235  0.18700956  1
  Se  Se246  1  0.08327616  0.92387875  0.69915208  1
  Se  Se247  1  0.39901065  0.26889700  0.19973403  1
  Se  Se248  1  0.41654131  0.25205906  0.69220592  1
  Se  Se249  1  0.41861443  0.58026773  0.19025814  1
  Se  Se250  1  0.42323510  0.58085788  0.69711903  1
  Se  Se251  1  0.41427258  0.92495923  0.20325504  1
  Se  Se252  1  0.41909797  0.92273357  0.68958632  1
  Se  Se253  1  0.72803217  0.26248324  0.20775535  1
  Se  Se254  1  0.74522982  0.25034635  0.69638146  1
  Se  Se255  1  0.74329215  0.58096503  0.19267952  1
  Se  Se256  1  0.75429129  0.57804367  0.69413020  1
  Se  Se257  1  0.78559712  0.89212763  0.19162212  1
  Se  Se258  1  0.74724008  0.92498292  0.69919833  1
