# generated using pymatgen
data_In86Cu29Se144
_symmetry_space_group_name_H-M   'P 1'
_cell_length_a   17.55058664
_cell_length_b   17.54885443
_cell_length_c   23.40915242
_cell_angle_alpha   90.00440063
_cell_angle_beta   90.00661099
_cell_angle_gamma   90.01285107
_symmetry_Int_Tables_number   1
_chemical_formula_structural   In86Cu29Se144
_chemical_formula_sum   'In86 Cu29 Se144'
_cell_volume   7209.84757687
_cell_formula_units_Z   1
loop_
 _symmetry_equiv_pos_site_id
 _symmetry_equiv_pos_as_xyz
  1  'x, y, z'
loop_
 _atom_site_type_symbol
 _atom_site_label
 _atom_site_symmetry_multiplicity
 _atom_site_fract_x
 _atom_site_fract_y
 _atom_site_fract_z
 _atom_site_occupancy
  In  In0  1  0.00105171  0.16633048  0.12414544  1
  In  In1  1  0.00290315  0.16940191  0.62268010  1
  In  In2  1  -0.00959965  0.50958525  0.13424218  1
  In  In3  1  0.00936505  0.48054526  0.62826620  1
  In  In4  1  0.00269763  0.83452178  0.12593546  1
  In  In5  1  0.00572564  0.81709805  0.62506210  1
  In  In6  1  0.31401491  0.17659593  0.11112176  1
  In  In7  1  0.32475263  0.17658425  0.64405701  1
  In  In8  1  0.34307460  0.49838744  0.10727802  1
  In  In9  1  0.33333194  0.49620893  0.62619927  1
  In  In10  1  0.33369478  0.82608692  0.10666347  1
  In  In11  1  0.33258770  0.83265552  0.62878104  1
  In  In12  1  0.68314887  0.15528429  0.11589220  1
  In  In13  1  0.67971135  0.16605306  0.62492991  1
  In  In14  1  0.67435165  0.50601798  0.11972939  1
  In  In15  1  0.65319885  0.49902715  0.62593043  1
  In  In16  1  0.65361655  0.82586074  0.11078675  1
  In  In17  1  0.64465406  0.85277589  0.62621731  1
  In  In18  1  0.15600584  0.00656592  0.38501792  1
  In  In19  1  0.17823026  -0.00742040  0.87921785  1
  In  In20  1  0.16069283  0.34064685  0.38290822  1
  In  In21  1  0.15222316  0.32815149  0.86622831  1
  In  In22  1  0.16355830  0.67019529  0.38330769  1
  In  In23  1  0.18468466  0.66827095  0.87813158  1
  In  In24  1  0.48671741  -0.00371944  0.37716450  1
  In  In25  1  0.48711581  0.00554894  0.86824523  1
  In  In26  1  0.50815006  0.35124127  0.38220951  1
  In  In27  1  0.50768085  0.33213826  0.86354563  1
  In  In28  1  0.50391582  0.66193586  0.38144712  1
  In  In29  1  0.47559146  0.67339533  0.88948733  1
  In  In30  1  0.84768911  -0.00336328  0.37262960  1
  In  In31  1  0.82218697  0.01083903  0.89483389  1
  In  In32  1  0.83690402  0.31712345  0.37806818  1
  In  In33  1  0.83445490  0.32813649  0.87503147  1
  In  In34  1  0.83211162  0.67203847  0.36126823  1
  In  In35  1  0.82488346  0.67211188  0.88812740  1
  In  In36  1  0.00158527  0.16438630  0.37511688  1
  In  In37  1  -0.00708367  0.18108163  0.88021542  1
  In  In38  1  0.00504218  0.50430392  0.36513025  1
  In  In39  1  0.00224164  0.48292166  0.87518933  1
  In  In40  1  -0.00017018  0.84000452  0.36746641  1
  In  In41  1  0.00136493  0.83722297  0.88783939  1
  In  In42  1  0.32463532  0.15406574  0.38048860  1
  In  In43  1  0.33301063  0.15785915  0.86131187  1
  In  In44  1  0.33177825  0.51001563  0.39634225  1
  In  In45  1  0.33991869  0.50801286  0.86944550  1
  In  In46  1  0.33263851  0.82364401  0.39238905  1
  In  In47  1  0.33300271  0.83539155  0.87503008  1
  In  In48  1  0.67120446  0.18182905  0.38195035  1
  In  In49  1  0.66617696  0.17876149  0.86896931  1
  In  In50  1  0.65523093  0.51052185  0.37950126  1
  In  In51  1  0.66817058  0.49116681  0.88055306  1
  In  In52  1  0.67624248  0.82646091  0.37154653  1
  In  In53  1  0.65723631  0.84566844  0.89562382  1
  In  In54  1  0.15529387  -0.00914241  0.11931596  1
  In  In55  1  0.17108060  0.00906491  0.62000387  1
  In  In56  1  0.16404317  0.31623793  0.11714848  1
  In  In57  1  0.16891062  0.33116907  0.62568791  1
  In  In58  1  0.15594994  0.66127660  0.12643762  1
  In  In59  1  0.19373831  0.68276628  0.60342269  1
  In  In60  1  0.51175966  -0.01634559  0.11528353  1
  In  In61  1  0.49720840  -0.01989902  0.61974755  1
  In  In62  1  0.49034056  0.35174854  0.11397817  1
  In  In63  1  0.48789919  0.33973250  0.64565572  1
  In  In64  1  0.50763407  0.67524760  0.11232281  1
  In  In65  1  0.47215094  0.64829730  0.60408950  1
  In  In66  1  0.84106503  0.01229930  0.10993582  1
  In  In67  1  0.81868009  0.02258331  0.62402337  1
  In  In68  1  0.84180312  0.34120763  0.11815363  1
  In  In69  1  0.84680096  0.31242380  0.64688742  1
  In  In70  1  0.83263341  0.66364705  0.12555583  1
  In  In71  1  0.83913941  0.67032817  0.62826817  1
  In  In72  1  0.83468515  0.49937674  0.50192643  1
  In  In73  1  0.67569416  0.34264648  0.25114103  1
  In  In74  1  0.50661965  0.16383174  -0.00729130  1
  In  In75  1  0.65974107  0.66482704  0.75114399  1
  In  In76  1  0.83390036  0.84356056  0.50039951  1
  In  In77  1  0.16449456  0.50526595  -0.00181777  1
  In  In78  1  0.32478999  -0.00695789  0.25191885  1
  In  In79  1  0.49679441  0.16697665  0.50850918  1
  In  In80  1  0.67809659  -0.00850256  0.24435789  1
  In  In81  1  0.66220339  0.00713965  0.75663650  1
  In  In82  1  0.00324098  0.00348101  0.74767821  1
  In  In83  1  0.32681522  0.34092399  0.24753636  1
  In  In84  1  0.01276441  0.65179739  0.75417744  1
  In  In85  1  0.32783614  0.66548696  0.25087668  1
  Cu  Cu86  1  0.16223736  0.16729608  0.75032798  1
  Cu  Cu87  1  0.01308335  0.00651297  0.00046297  1
  Cu  Cu88  1  0.17493937  0.49983391  0.74658241  1
  Cu  Cu89  1  0.32475732  -0.00249824  0.50579084  1
  Cu  Cu90  1  0.83059659  0.49170484  0.75857834  1
  Cu  Cu91  1  -0.00217639  -0.00119810  0.49882853  1
  Cu  Cu92  1  0.50349642  0.17387821  0.24053773  1
  Cu  Cu93  1  0.83041583  0.84156043  0.76306162  1
  Cu  Cu94  1  0.33795851  0.32728614  0.51263841  1
  Cu  Cu95  1  0.33600082  0.00480009  -0.00742708  1
  Cu  Cu96  1  0.16008759  0.83208282  0.25238667  1
  Cu  Cu97  1  0.84087968  0.16310866  0.24951848  1
  Cu  Cu98  1  0.66251747  0.68050019  0.50087804  1
  Cu  Cu99  1  0.83339324  0.49895594  0.24626535  1
  Cu  Cu100  1  0.66966462  0.33769574  0.50792317  1
  Cu  Cu101  1  0.83440479  0.83036776  0.24085035  1
  Cu  Cu102  1  -0.00277753  0.33297494  0.00008523  1
  Cu  Cu103  1  0.49687663  0.50548411  0.75137537  1
  Cu  Cu104  1  0.15677300  0.16453821  0.24946765  1
  Cu  Cu105  1  0.66530614  0.33071345  -0.00623126  1
  Cu  Cu106  1  0.16286756  0.49317310  0.24952209  1
  Cu  Cu107  1  0.50303564  0.82659447  0.24410376  1
  Cu  Cu108  1  0.00071967  0.32570999  0.50498869  1
  Cu  Cu109  1  0.00904272  0.66257891  0.49328430  1
  Cu  Cu110  1  0.17695037  0.83092826  0.75130557  1
  Cu  Cu111  1  0.49011489  0.82273488  0.74930105  1
  Cu  Cu112  1  -0.00210202  0.66730950  0.00722510  1
  Cu  Cu113  1  0.66579720  0.64996500  0.00141214  1
  Cu  Cu114  1  0.50027923  0.51279302  0.25198664  1
  Se  Se115  1  0.09356891  0.09406927  0.05421404  1
  Se  Se116  1  0.08021098  0.08417135  0.55295634  1
  Se  Se117  1  0.07399376  0.41769826  0.06137262  1
  Se  Se118  1  0.08851392  0.41111796  0.55123630  1
  Se  Se119  1  0.08551166  0.75029703  0.05612390  1
  Se  Se120  1  0.08609499  0.75308761  0.54640125  1
  Se  Se121  1  0.41406963  0.07928150  0.06057178  1
  Se  Se122  1  0.40244629  0.08006699  0.56682937  1
  Se  Se123  1  0.40190265  0.40400054  0.03647639  1
  Se  Se124  1  0.42413917  0.41156608  0.56135683  1
  Se  Se125  1  0.42572212  0.75368458  0.04267440  1
  Se  Se126  1  0.43198859  0.77392150  0.55837714  1
  Se  Se127  1  0.74536134  0.07383033  0.03908935  1
  Se  Se128  1  0.73824970  0.08199062  0.54490932  1
  Se  Se129  1  0.74718496  0.41308915  0.05244825  1
  Se  Se130  1  0.75431774  0.41224784  0.57000946  1
  Se  Se131  1  0.74701134  0.73900820  0.05347918  1
  Se  Se132  1  0.74535981  0.75330244  0.56424639  1
  Se  Se133  1  0.26063433  0.27493536  0.04113958  1
  Se  Se134  1  0.25241437  0.24188086  0.56030857  1
  Se  Se135  1  0.25608552  0.59910535  0.05445210  1
  Se  Se136  1  0.24653678  0.56582979  0.55270383  1
  Se  Se137  1  0.25320026  0.92468249  0.05153239  1
  Se  Se138  1  0.24262150  0.90978770  0.55781715  1
  Se  Se139  1  0.58943819  0.25544291  0.06243228  1
  Se  Se140  1  0.58321055  0.26176261  0.56612167  1
  Se  Se141  1  0.57541318  0.56967800  0.05217272  1
  Se  Se142  1  0.58795710  0.58636784  0.55198665  1
  Se  Se143  1  0.58932715  0.91714960  0.03804347  1
  Se  Se144  1  0.59126292  0.93052057  0.54327913  1
  Se  Se145  1  0.91567525  0.24616167  0.05364126  1
  Se  Se146  1  0.91062861  0.25019303  0.55819312  1
  Se  Se147  1  0.91479613  0.57880952  0.05508600  1
  Se  Se148  1  0.92945297  0.58904862  0.56013674  1
  Se  Se149  1  0.92888524  0.92043614  0.05296908  1
  Se  Se150  1  0.92311901  0.92552534  0.56956670  1
  Se  Se151  1  0.08385889  0.24587131  0.44597246  1
  Se  Se152  1  0.08606271  0.25350448  0.94879377  1
  Se  Se153  1  0.08554797  0.57041600  0.44342488  1
  Se  Se154  1  0.07244488  0.59398697  0.93628702  1
  Se  Se155  1  0.07746696  0.91008615  0.44649257  1
  Se  Se156  1  0.09344505  0.91676524  0.95077914  1
  Se  Se157  1  0.41245903  0.25640448  0.43936056  1
  Se  Se158  1  0.41578793  0.24782323  0.93168006  1
  Se  Se159  1  0.43049694  0.58191809  0.45533850  1
  Se  Se160  1  0.41203516  0.57186560  0.95293626  1
  Se  Se161  1  0.41305325  0.91897118  0.45238344  1
  Se  Se162  1  0.41993225  0.91978956  0.94248249  1
  Se  Se163  1  0.75321847  0.25324322  0.45643743  1
  Se  Se164  1  0.75048449  0.24642174  0.94540735  1
  Se  Se165  1  0.74951097  0.60012071  0.44439642  1
  Se  Se166  1  0.75446246  0.57104814  0.94931704  1
  Se  Se167  1  0.74249120  0.92983832  0.43820452  1
  Se  Se168  1  0.77287712  0.89522518  0.95071848  1
  Se  Se169  1  0.24207582  0.08464177  0.45521825  1
  Se  Se170  1  0.25409386  0.09048291  0.94149401  1
  Se  Se171  1  0.25641486  0.40733376  0.45165725  1
  Se  Se172  1  0.24219338  0.41937385  0.92901202  1
  Se  Se173  1  0.26151867  0.72637951  0.45356879  1
  Se  Se174  1  0.24470502  0.76358975  0.94683683  1
  Se  Se175  1  0.58107886  0.08516268  0.43674751  1
  Se  Se176  1  0.59423092  0.07241014  0.93240363  1
  Se  Se177  1  0.58891893  0.42554804  0.45617425  1
  Se  Se178  1  0.57632432  0.40957696  0.94386953  1
  Se  Se179  1  0.58355430  0.76021568  0.44154541  1
  Se  Se180  1  0.58590658  0.73636913  0.94712709  1
  Se  Se181  1  0.91585403  0.08377603  0.44570784  1
  Se  Se182  1  0.92440388  0.08781461  0.95024208  1
  Se  Se183  1  0.92564813  0.40990089  0.44130251  1
  Se  Se184  1  0.91295691  0.41532983  0.94676998  1
  Se  Se185  1  0.91838841  0.74403777  0.44027836  1
  Se  Se186  1  0.91595909  0.75173138  0.95262124  1
  Se  Se187  1  0.24374023  0.24142136  0.30852943  1
  Se  Se188  1  0.24696030  0.25189985  0.80185049  1
  Se  Se189  1  0.24515837  0.56996091  0.31193734  1
  Se  Se190  1  0.25172155  0.58719115  0.80058219  1
  Se  Se191  1  0.24221976  0.90396331  0.31817303  1
  Se  Se192  1  0.25668600  0.92078326  0.80192499  1
  Se  Se193  1  0.57630719  0.25187858  0.30715057  1
  Se  Se194  1  0.57588948  0.23770459  0.79478001  1
  Se  Se195  1  0.58701781  0.59390944  0.30345876  1
  Se  Se196  1  0.57359102  0.58147401  0.81796644  1
  Se  Se197  1  0.57577253  0.91388428  0.30565326  1
  Se  Se198  1  0.57544246  0.90187614  0.80822357  1
  Se  Se199  1  0.92100203  0.24878083  0.30355306  1
  Se  Se200  1  0.92529273  0.25979378  0.80350190  1
  Se  Se201  1  0.91719976  0.58470261  0.29911423  1
  Se  Se202  1  0.90748523  0.57976022  0.81553527  1
  Se  Se203  1  0.91462740  0.91613261  0.29548464  1
  Se  Se204  1  0.91513499  0.92142345  0.81689748  1
  Se  Se205  1  0.08040277  0.07610409  0.30509077  1
  Se  Se206  1  0.08760769  0.08766339  0.81561463  1
  Se  Se207  1  0.08259147  0.40714309  0.30263364  1
  Se  Se208  1  0.08240608  0.42049198  0.79527566  1
  Se  Se209  1  0.08312746  0.74470140  0.30839088  1
  Se  Se210  1  0.08894094  0.75834157  0.81154572  1
  Se  Se211  1  0.42158185  0.09337218  0.30223980  1
  Se  Se212  1  0.42171721  0.08453166  0.79103149  1
  Se  Se213  1  0.41833749  0.43061799  0.31116508  1
  Se  Se214  1  0.41466643  0.41686512  0.80190372  1
  Se  Se215  1  0.41928213  0.75647622  0.30975817  1
  Se  Se216  1  0.40798639  0.74274509  0.80591244  1
  Se  Se217  1  0.75212768  0.09236331  0.30960199  1
  Se  Se218  1  0.76500747  0.09098702  0.80905748  1
  Se  Se219  1  0.76029043  0.42882660  0.32021453  1
  Se  Se220  1  0.74409975  0.40928873  0.80772979  1
  Se  Se221  1  0.74601267  0.75107394  0.29251857  1
  Se  Se222  1  0.74537078  0.75744752  0.81436405  1
  Se  Se223  1  0.24327752  0.08983327  0.18955136  1
  Se  Se224  1  0.24367976  0.07691834  0.70128870  1
  Se  Se225  1  0.24307227  0.42782681  0.17968658  1
  Se  Se226  1  0.25551286  0.40926615  0.69593853  1
  Se  Se227  1  0.24521471  0.76152291  0.18950504  1
  Se  Se228  1  0.25172871  0.74249122  0.69493948  1
  Se  Se229  1  0.58211854  0.08559833  0.18762003  1
  Se  Se230  1  0.57930246  0.07998559  0.68211552  1
  Se  Se231  1  0.57545332  0.42462386  0.19296326  1
  Se  Se232  1  0.58612852  0.42123392  0.70443316  1
  Se  Se233  1  0.58651441  0.74564940  0.19054084  1
  Se  Se234  1  0.57086166  0.74888849  0.68574325  1
  Se  Se235  1  0.91716826  0.07943911  0.19108048  1
  Se  Se236  1  0.90698437  0.09541381  0.69625565  1
  Se  Se237  1  0.91693878  0.41129329  0.19820562  1
  Se  Se238  1  0.92043303  0.41743196  0.70272248  1
  Se  Se239  1  0.92109553  0.74514083  0.19183697  1
  Se  Se240  1  0.91296983  0.75616254  0.70509719  1
  Se  Se241  1  0.08047327  0.25330948  0.19503738  1
  Se  Se242  1  0.08152173  0.25046721  0.69459990  1
  Se  Se243  1  0.08158728  0.58468603  0.20220007  1
  Se  Se244  1  0.09944958  0.58133097  0.68104407  1
  Se  Se245  1  0.08137955  0.91931710  0.19865853  1
  Se  Se246  1  0.09130924  0.90543423  0.69143469  1
  Se  Se247  1  0.41691724  0.25037601  0.18369813  1
  Se  Se248  1  0.42649948  0.23694931  0.70972865  1
  Se  Se249  1  0.41799232  0.58170855  0.18576698  1
  Se  Se250  1  0.41466278  0.58599641  0.69386802  1
  Se  Se251  1  0.41936576  0.90860659  0.18773455  1
  Se  Se252  1  0.41443475  0.91680843  0.69908422  1
  Se  Se253  1  0.75692800  0.24357921  0.19129710  1
  Se  Se254  1  0.73708350  0.25220842  0.70321625  1
  Se  Se255  1  0.74733534  0.58258401  0.19676248  1
  Se  Se256  1  0.75958433  0.57643725  0.69441196  1
  Se  Se257  1  0.75856171  0.90771922  0.17515276  1
  Se  Se258  1  0.75456764  0.91473311  0.69403310  1
