# generated using pymatgen
data_In86Cu29Se144
_symmetry_space_group_name_H-M   'P 1'
_cell_length_a   17.57856061
_cell_length_b   17.57625776
_cell_length_c   23.43538554
_cell_angle_alpha   90.00415655
_cell_angle_beta   90.01241009
_cell_angle_gamma   90.00726224
_symmetry_Int_Tables_number   1
_chemical_formula_structural   In86Cu29Se144
_chemical_formula_sum   'In86 Cu29 Se144'
_cell_volume   7240.72096493
_cell_formula_units_Z   1
loop_
 _symmetry_equiv_pos_site_id
 _symmetry_equiv_pos_as_xyz
  1  'x, y, z'
loop_
 _atom_site_type_symbol
 _atom_site_label
 _atom_site_symmetry_multiplicity
 _atom_site_fract_x
 _atom_site_fract_y
 _atom_site_fract_z
 _atom_site_occupancy
  In  In0  1  -0.00840326  0.18271632  0.12305339  1
  In  In1  1  0.00751207  0.15300472  0.62076351  1
  In  In2  1  0.00222488  0.50193369  0.13062471  1
  In  In3  1  0.01723442  0.50203026  0.62138474  1
  In  In4  1  -0.01419428  0.82664406  0.12429191  1
  In  In5  1  -0.01365568  0.82784862  0.61489263  1
  In  In6  1  0.33654130  0.16048170  0.11765776  1
  In  In7  1  0.33467849  0.16581226  0.62334184  1
  In  In8  1  0.34496676  0.51445562  0.12471812  1
  In  In9  1  0.33798942  0.50417982  0.61625329  1
  In  In10  1  0.32985068  0.81731170  0.12631579  1
  In  In11  1  0.33742325  0.83215656  0.62609095  1
  In  In12  1  0.66571039  0.17146202  0.11917736  1
  In  In13  1  0.65420680  0.16918326  0.64333215  1
  In  In14  1  0.64082363  0.51068685  0.14250222  1
  In  In15  1  0.64953999  0.50481176  0.62570913  1
  In  In16  1  0.65926619  0.82842233  0.11673507  1
  In  In17  1  0.66959375  0.83384634  0.62336139  1
  In  In18  1  0.16881230  -0.00573683  0.39639967  1
  In  In19  1  0.17279535  -0.01369042  0.86930459  1
  In  In20  1  0.16338986  0.34600281  0.37846520  1
  In  In21  1  0.18092339  0.34309394  0.87824137  1
  In  In22  1  0.16937872  0.66722134  0.37678434  1
  In  In23  1  0.17238973  0.66901837  0.87104474  1
  In  In24  1  0.49355535  -0.00324111  0.37765911  1
  In  In25  1  0.50490564  -0.00405783  0.86433699  1
  In  In26  1  0.51813121  0.34279917  0.36268715  1
  In  In27  1  0.50901154  0.32681507  0.88826485  1
  In  In28  1  0.50009962  0.66615878  0.37267590  1
  In  In29  1  0.48690614  0.67654000  0.88249580  1
  In  In30  1  0.82397192  -0.01018117  0.37964690  1
  In  In31  1  0.82174266  0.00783927  0.88367651  1
  In  In32  1  0.84105065  0.34076424  0.36476666  1
  In  In33  1  0.81413263  0.33641820  0.87713314  1
  In  In34  1  0.83803939  0.66904461  0.37140945  1
  In  In35  1  0.85221899  0.67096291  0.87986935  1
  In  In36  1  0.00277877  0.17998479  0.37191634  1
  In  In37  1  -0.00281324  0.15575328  0.87746291  1
  In  In38  1  0.03483333  0.52579177  0.34368892  1
  In  In39  1  0.00440354  0.52647752  0.88024906  1
  In  In40  1  0.01290470  0.82231006  0.39374443  1
  In  In41  1  0.00252654  0.81761540  0.87815446  1
  In  In42  1  0.33583401  0.15803910  0.37555455  1
  In  In43  1  0.35862630  0.16931603  0.87115558  1
  In  In44  1  0.32432680  0.51390325  0.37554634  1
  In  In45  1  0.32618506  0.51080776  0.88402617  1
  In  In46  1  0.34006530  0.82188553  0.38581414  1
  In  In47  1  0.35702998  0.84345848  0.85024241  1
  In  In48  1  0.66503131  0.18582164  0.36959127  1
  In  In49  1  0.65962278  0.16955663  0.87199335  1
  In  In50  1  0.65818418  0.49863949  0.36280152  1
  In  In51  1  0.66409106  0.48591931  0.87587908  1
  In  In52  1  0.67443186  0.82599679  0.38470387  1
  In  In53  1  0.65510771  0.84272146  0.88040649  1
  In  In54  1  0.17104019  -0.00769275  0.12559778  1
  In  In55  1  0.16969378  0.00403687  0.61289017  1
  In  In56  1  0.14629918  0.34438079  0.13332431  1
  In  In57  1  0.17701174  0.33444606  0.61152040  1
  In  In58  1  0.17453487  0.65507657  0.14085346  1
  In  In59  1  0.16623269  0.66620475  0.62369339  1
  In  In60  1  0.50373922  0.00163155  0.11135851  1
  In  In61  1  0.51754534  -0.01986646  0.64836357  1
  In  In62  1  0.50587922  0.33773167  0.12413598  1
  In  In63  1  0.49456426  0.33694703  0.62671390  1
  In  In64  1  0.49757341  0.66869905  0.12650655  1
  In  In65  1  0.48927761  0.65819964  0.62138969  1
  In  In66  1  0.81980906  -0.00563137  0.11452030  1
  In  In67  1  0.82759812  -0.01153320  0.62687013  1
  In  In68  1  0.83116561  0.33143873  0.12447123  1
  In  In69  1  0.82839601  0.32459556  0.62523378  1
  In  In70  1  0.82900593  0.66580270  0.12876064  1
  In  In71  1  0.83145078  0.68256469  0.62760091  1
  In  In72  1  -0.00176112  -0.00246126  0.25355091  1
  In  In73  1  0.66553778  -0.00175293  0.24396481  1
  In  In74  1  0.84045957  0.15699019  0.50451496  1
  In  In75  1  0.33515263  0.34096210  0.24326479  1
  In  In76  1  -0.00141201  0.34009522  0.74671504  1
  In  In77  1  0.82737334  0.49805243  0.00391279  1
  In  In78  1  0.66338351  0.67008041  0.75303425  1
  In  In79  1  -0.00065530  -0.00932593  0.74282921  1
  In  In80  1  0.83710506  0.49896636  0.48867645  1
  In  In81  1  0.16589720  0.17012872  0.00026359  1
  In  In82  1  0.33980404  0.33292863  0.74788145  1
  In  In83  1  0.33740389  -0.00613228  0.25845161  1
  In  In84  1  0.16822151  0.82684577  -0.00113714  1
  In  In85  1  0.49799054  0.16526764  0.49898820  1
  Cu  Cu86  1  0.50006881  0.82921397  0.24880219  1
  Cu  Cu87  1  0.17037557  0.82310240  0.74448433  1
  Cu  Cu88  1  0.17060376  0.16584864  0.74237683  1
  Cu  Cu89  1  0.83410413  0.16622413  0.24551573  1
  Cu  Cu90  1  0.16762639  0.50869344  0.75040382  1
  Cu  Cu91  1  0.66370841  -0.00230123  0.50521228  1
  Cu  Cu92  1  0.82706961  0.49349582  0.24429361  1
  Cu  Cu93  1  -0.00972830  0.00239351  0.00241085  1
  Cu  Cu94  1  0.66257014  0.00080319  -0.00823361  1
  Cu  Cu95  1  0.83328469  0.50356689  0.75822056  1
  Cu  Cu96  1  0.16567528  0.16855803  0.25324733  1
  Cu  Cu97  1  0.33665776  0.67197913  0.00128262  1
  Cu  Cu98  1  0.66057761  0.33119626  0.00234668  1
  Cu  Cu99  1  0.16509894  0.82313696  0.25805134  1
  Cu  Cu100  1  0.82512037  0.17016841  0.75522287  1
  Cu  Cu101  1  0.32715418  0.66876414  0.50066850  1
  Cu  Cu102  1  0.33148315  0.34415193  0.00519286  1
  Cu  Cu103  1  0.33859130  0.33625423  0.49620669  1
  Cu  Cu104  1  0.65750696  0.66834856  0.50151064  1
  Cu  Cu105  1  0.34074104  -0.00751254  0.50621304  1
  Cu  Cu106  1  0.66720920  0.33731623  0.49490375  1
  Cu  Cu107  1  0.49807797  0.49307720  0.75109634  1
  Cu  Cu108  1  -0.00242774  0.66143661  0.49517356  1
  Cu  Cu109  1  0.83685622  0.82031936  0.25431620  1
  Cu  Cu110  1  0.83424417  0.83525372  0.75163507  1
  Cu  Cu111  1  0.66661688  0.66441677  0.00464210  1
  Cu  Cu112  1  -0.00534526  0.33965173  0.00336422  1
  Cu  Cu113  1  0.34285413  -0.00079134  -0.01277821  1
  Cu  Cu114  1  0.01276088  0.33470308  0.49335220  1
  Se  Se115  1  0.07595278  0.07747450  0.06282868  1
  Se  Se116  1  0.08963233  0.09035496  0.54534137  1
  Se  Se117  1  0.07910180  0.42220864  0.05417867  1
  Se  Se118  1  0.09116405  0.42070831  0.54827312  1
  Se  Se119  1  0.08761493  0.74415046  0.06850539  1
  Se  Se120  1  0.07737147  0.74354937  0.55400846  1
  Se  Se121  1  0.41794026  0.08521893  0.04523887  1
  Se  Se122  1  0.42494775  0.07066034  0.56517264  1
  Se  Se123  1  0.41975736  0.42122143  0.05829705  1
  Se  Se124  1  0.42239971  0.41643823  0.55162979  1
  Se  Se125  1  0.42131763  0.75552033  0.05390245  1
  Se  Se126  1  0.41536586  0.74887047  0.55315687  1
  Se  Se127  1  0.74323066  0.08417803  0.04934851  1
  Se  Se128  1  0.73574937  0.08480284  0.56557396  1
  Se  Se129  1  0.73274783  0.41694439  0.06504735  1
  Se  Se130  1  0.74641017  0.41619934  0.55778422  1
  Se  Se131  1  0.75275057  0.74738384  0.05514734  1
  Se  Se132  1  0.74686351  0.74865255  0.55230244  1
  Se  Se133  1  0.24829000  0.26313625  0.06454334  1
  Se  Se134  1  0.26044265  0.24673229  0.54848872  1
  Se  Se135  1  0.25332550  0.59259161  0.05850540  1
  Se  Se136  1  0.24513658  0.58107249  0.55228741  1
  Se  Se137  1  0.26356931  0.92416672  0.05364586  1
  Se  Se138  1  0.25155978  0.90926547  0.55351565  1
  Se  Se139  1  0.57410154  0.24627851  0.05177546  1
  Se  Se140  1  0.59248787  0.25449337  0.55787577  1
  Se  Se141  1  0.58115457  0.58365529  0.05719647  1
  Se  Se142  1  0.57531863  0.57984706  0.55005439  1
  Se  Se143  1  0.58251195  0.91368164  0.04616009  1
  Se  Se144  1  0.57933453  0.91712612  0.55940957  1
  Se  Se145  1  0.90864960  0.25238340  0.04834556  1
  Se  Se146  1  0.93079253  0.25995345  0.55657717  1
  Se  Se147  1  0.92122994  0.58805747  0.05779221  1
  Se  Se148  1  0.91656781  0.58681994  0.56050973  1
  Se  Se149  1  0.91267083  0.91285519  0.05338629  1
  Se  Se150  1  0.92224383  0.93434034  0.55546369  1
  Se  Se151  1  0.09376843  0.24561352  0.44363932  1
  Se  Se152  1  0.07524804  0.26129452  0.93863797  1
  Se  Se153  1  0.08073625  0.57910269  0.44111243  1
  Se  Se154  1  0.09568001  0.59396455  0.94757240  1
  Se  Se155  1  0.07702321  0.91980705  0.45959108  1
  Se  Se156  1  0.07628050  0.92635058  0.94381200  1
  Se  Se157  1  0.41952642  0.26009533  0.43365423  1
  Se  Se158  1  0.40963232  0.25507497  0.95206689  1
  Se  Se159  1  0.41279268  0.58959828  0.44429660  1
  Se  Se160  1  0.41958429  0.58230124  0.95213677  1
  Se  Se161  1  0.42305281  0.91216737  0.44958694  1
  Se  Se162  1  0.42135331  0.91129145  0.93564526  1
  Se  Se163  1  0.75597553  0.25621589  0.44363964  1
  Se  Se164  1  0.74291001  0.24883950  0.94676314  1
  Se  Se165  1  0.73846712  0.58971553  0.43935377  1
  Se  Se166  1  0.74425665  0.58980088  0.93745675  1
  Se  Se167  1  0.75014285  0.91340569  0.45561969  1
  Se  Se168  1  0.75101371  0.91135727  0.94848768  1
  Se  Se169  1  0.26307715  0.08162511  0.45185291  1
  Se  Se170  1  0.25286580  0.08080118  0.93626833  1
  Se  Se171  1  0.25306944  0.42117968  0.44599491  1
  Se  Se172  1  0.24511987  0.42607169  0.95443516  1
  Se  Se173  1  0.24135854  0.75339589  0.45035961  1
  Se  Se174  1  0.26709839  0.75541922  0.93495270  1
  Se  Se175  1  0.59652546  0.08038239  0.43770609  1
  Se  Se176  1  0.57766609  0.08212364  0.93851778  1
  Se  Se177  1  0.58565131  0.42070132  0.44185175  1
  Se  Se178  1  0.58054768  0.42347556  0.95406766  1
  Se  Se179  1  0.57602292  0.75230563  0.44612476  1
  Se  Se180  1  0.58509793  0.74641648  0.94697316  1
  Se  Se181  1  0.92450569  0.07769017  0.43430840  1
  Se  Se182  1  0.91052886  0.08958599  0.95043705  1
  Se  Se183  1  0.93388849  0.41433932  0.43324066  1
  Se  Se184  1  0.92028596  0.41668337  0.93548674  1
  Se  Se185  1  0.90845773  0.74705240  0.44980285  1
  Se  Se186  1  0.92199511  0.75173328  0.95469984  1
  Se  Se187  1  0.25124020  0.24671654  0.30923364  1
  Se  Se188  1  0.24519752  0.24261607  0.80834215  1
  Se  Se189  1  0.23277580  0.57604738  0.30318547  1
  Se  Se190  1  0.25678848  0.58506671  0.80349223  1
  Se  Se191  1  0.24147810  0.90948773  0.31674960  1
  Se  Se192  1  0.24947511  0.91402041  0.79390655  1
  Se  Se193  1  0.58238193  0.24820878  0.29388726  1
  Se  Se194  1  0.57802206  0.25859843  0.80755775  1
  Se  Se195  1  0.58946051  0.59736527  0.30079922  1
  Se  Se196  1  0.57654940  0.57572981  0.81177224  1
  Se  Se197  1  0.57949062  0.91031887  0.30939538  1
  Se  Se198  1  0.58534618  0.90747059  0.79814132  1
  Se  Se199  1  0.91816424  0.24900822  0.29818264  1
  Se  Se200  1  0.91306043  0.24773374  0.81059703  1
  Se  Se201  1  0.90656864  0.57455542  0.30317793  1
  Se  Se202  1  0.92051376  0.58933425  0.80217239  1
  Se  Se203  1  0.91330689  0.90438289  0.31428516  1
  Se  Se204  1  0.91378951  0.91404311  0.81500388  1
  Se  Se205  1  0.09563548  0.08010875  0.31400755  1
  Se  Se206  1  0.08995699  0.08644907  0.80353520  1
  Se  Se207  1  0.07707311  0.39913437  0.29944614  1
  Se  Se208  1  0.08933987  0.42549588  0.81036741  1
  Se  Se209  1  0.07531848  0.74786274  0.31109307  1
  Se  Se210  1  0.08484512  0.74914218  0.80256085  1
  Se  Se211  1  0.43298823  0.09366153  0.30336818  1
  Se  Se212  1  0.40133943  0.06661478  0.80278406  1
  Se  Se213  1  0.41793850  0.42919471  0.30887853  1
  Se  Se214  1  0.41807838  0.42034633  0.81752859  1
  Se  Se215  1  0.41392330  0.75277449  0.30544104  1
  Se  Se216  1  0.41798163  0.73215219  0.79550372  1
  Se  Se217  1  0.75637267  0.08799721  0.30826469  1
  Se  Se218  1  0.74685870  0.08200272  0.80701952  1
  Se  Se219  1  0.74494776  0.41074978  0.30004241  1
  Se  Se220  1  0.74610477  0.41569762  0.79933780  1
  Se  Se221  1  0.74406407  0.74720524  0.30692941  1
  Se  Se222  1  0.75736844  0.75443666  0.81463602  1
  Se  Se223  1  0.24531351  0.08679688  0.19493151  1
  Se  Se224  1  0.24836620  0.08143577  0.68785319  1
  Se  Se225  1  0.24249902  0.43151426  0.18895088  1
  Se  Se226  1  0.24356365  0.42155905  0.69123464  1
  Se  Se227  1  0.25533818  0.74742165  0.20513451  1
  Se  Se228  1  0.25579721  0.74143009  0.69213429  1
  Se  Se229  1  0.57343238  0.08748960  0.18800486  1
  Se  Se230  1  0.58572084  0.07882052  0.71113823  1
  Se  Se231  1  0.58114883  0.40491038  0.20413205  1
  Se  Se232  1  0.58246788  0.41318187  0.69649711  1
  Se  Se233  1  0.58659078  0.75205611  0.19367704  1
  Se  Se234  1  0.57456620  0.75078256  0.68786147  1
  Se  Se235  1  0.90890314  0.08077845  0.18642111  1
  Se  Se236  1  0.90680091  0.09278030  0.69340720  1
  Se  Se237  1  0.91466397  0.41368068  0.19210971  1
  Se  Se238  1  0.90757247  0.42934725  0.68647934  1
  Se  Se239  1  0.92026285  0.74056583  0.19915507  1
  Se  Se240  1  0.91962279  0.75401755  0.69842780  1
  Se  Se241  1  0.07907822  0.24543549  0.19876593  1
  Se  Se242  1  0.09039444  0.24965336  0.68685267  1
  Se  Se243  1  0.07530135  0.58560066  0.20370355  1
  Se  Se244  1  0.08084201  0.58753259  0.69686542  1
  Se  Se245  1  0.09034951  0.90478106  0.19455251  1
  Se  Se246  1  0.09119213  0.90535315  0.68300682  1
  Se  Se247  1  0.41901041  0.24045116  0.18861050  1
  Se  Se248  1  0.42980938  0.23552070  0.69574924  1
  Se  Se249  1  0.42577115  0.58392567  0.20002990  1
  Se  Se250  1  0.41557367  0.57375041  0.69504919  1
  Se  Se251  1  0.42304997  0.91295285  0.18811635  1
  Se  Se252  1  0.40131407  0.92389492  0.69908425  1
  Se  Se253  1  0.74839011  0.24648065  0.19238037  1
  Se  Se254  1  0.74681260  0.25699826  0.70073676  1
  Se  Se255  1  0.74565303  0.58466200  0.19763352  1
  Se  Se256  1  0.75417835  0.57916399  0.69082523  1
  Se  Se257  1  0.75931600  0.90275950  0.19310071  1
  Se  Se258  1  0.74628857  0.91357510  0.69948949  1
