# generated using pymatgen
data_In86Cu29Se144
_symmetry_space_group_name_H-M   'P 1'
_cell_length_a   17.58870680
_cell_length_b   17.58727060
_cell_length_c   23.44759388
_cell_angle_alpha   90.02962703
_cell_angle_beta   90.01045492
_cell_angle_gamma   90.01758105
_symmetry_Int_Tables_number   1
_chemical_formula_structural   In86Cu29Se144
_chemical_formula_sum   'In86 Cu29 Se144'
_cell_volume   7253.21502862
_cell_formula_units_Z   1
loop_
 _symmetry_equiv_pos_site_id
 _symmetry_equiv_pos_as_xyz
  1  'x, y, z'
loop_
 _atom_site_type_symbol
 _atom_site_label
 _atom_site_symmetry_multiplicity
 _atom_site_fract_x
 _atom_site_fract_y
 _atom_site_fract_z
 _atom_site_occupancy
  In  In0  1  -0.00126144  0.16985137  0.11756972  1
  In  In1  1  -0.00805202  0.16651233  0.62527224  1
  In  In2  1  0.01731442  0.48213415  0.12992067  1
  In  In3  1  0.01158200  0.50368202  0.61872945  1
  In  In4  1  0.00781610  0.84631251  0.11591171  1
  In  In5  1  0.00334856  0.83148941  0.63806627  1
  In  In6  1  0.33220416  0.16952285  0.12964353  1
  In  In7  1  0.34151831  0.17142650  0.62889068  1
  In  In8  1  0.32705266  0.49497471  0.12765178  1
  In  In9  1  0.33185302  0.50489794  0.63115600  1
  In  In10  1  0.33352704  0.83329906  0.12099514  1
  In  In11  1  0.33189761  0.82482751  0.62323138  1
  In  In12  1  0.65221204  0.15124813  0.12330679  1
  In  In13  1  0.67276370  0.15290091  0.61807472  1
  In  In14  1  0.66276821  0.51179570  0.12400542  1
  In  In15  1  0.66887578  0.48525923  0.62021113  1
  In  In16  1  0.67244216  0.84225847  0.11590306  1
  In  In17  1  0.65711721  0.84677148  0.62218009  1
  In  In18  1  0.17270141  0.00902081  0.36012954  1
  In  In19  1  0.15715091  0.00941907  0.88757108  1
  In  In20  1  0.17267339  0.35009026  0.36144681  1
  In  In21  1  0.17237850  0.32073837  0.89145211  1
  In  In22  1  0.16901238  0.64969427  0.37167016  1
  In  In23  1  0.16824205  0.66740726  0.88043235  1
  In  In24  1  0.49755385  -0.00227028  0.36071798  1
  In  In25  1  0.49935259  -0.00020991  0.88440842  1
  In  In26  1  0.49429989  0.33921073  0.37043249  1
  In  In27  1  0.48824734  0.34716645  0.88920644  1
  In  In28  1  0.49659486  0.67533559  0.37528663  1
  In  In29  1  0.47847965  0.68093113  0.87896831  1
  In  In30  1  0.84131609  0.01119839  0.36521895  1
  In  In31  1  0.83908122  -0.00991178  0.88267709  1
  In  In32  1  0.84102300  0.31820256  0.38336409  1
  In  In33  1  0.82869912  0.32873629  0.88125557  1
  In  In34  1  0.82575722  0.66730491  0.37769772  1
  In  In35  1  0.85250800  0.66336673  0.87326182  1
  In  In36  1  -0.00250016  0.16582683  0.36534823  1
  In  In37  1  0.00989823  0.15932937  0.89024518  1
  In  In38  1  0.01404758  0.48596142  0.38143029  1
  In  In39  1  0.00432300  0.51282166  0.87617841  1
  In  In40  1  -0.00858577  0.84237909  0.36890045  1
  In  In41  1  0.00067952  0.83386162  0.88094005  1
  In  In42  1  0.34336338  0.17232084  0.35698427  1
  In  In43  1  0.32611003  0.17557941  0.88764158  1
  In  In44  1  0.31390052  0.48536194  0.35283753  1
  In  In45  1  0.32765556  0.50184073  0.87789499  1
  In  In46  1  0.34205812  0.83986283  0.36356236  1
  In  In47  1  0.34068733  0.82278418  0.88270572  1
  In  In48  1  0.68048511  0.16865516  0.37125008  1
  In  In49  1  0.66628242  0.16506121  0.88732283  1
  In  In50  1  0.66749572  0.50318837  0.38140815  1
  In  In51  1  0.66384308  0.48660120  0.87675533  1
  In  In52  1  0.65295472  0.83286239  0.37624654  1
  In  In53  1  0.65487316  0.84172764  0.88093149  1
  In  In54  1  0.16629839  0.00038400  0.12388899  1
  In  In55  1  0.16952533  -0.01425093  0.62991364  1
  In  In56  1  0.16946465  0.33565279  0.12196303  1
  In  In57  1  0.16928625  0.34589347  0.62596368  1
  In  In58  1  0.17023764  0.66958342  0.12035679  1
  In  In59  1  0.17797046  0.65900594  0.63547358  1
  In  In60  1  0.49936360  0.00299925  0.12946649  1
  In  In61  1  0.51229165  0.00004089  0.61800325  1
  In  In62  1  0.47689066  0.31241914  0.11977055  1
  In  In63  1  0.49307515  0.32652978  0.62958492  1
  In  In64  1  0.48776121  0.65528201  0.11421667  1
  In  In65  1  0.48282693  0.67155154  0.62951359  1
  In  In66  1  0.83186110  0.00533413  0.12321083  1
  In  In67  1  0.83383605  0.00918103  0.62580219  1
  In  In68  1  0.85618877  0.32704819  0.12656128  1
  In  In69  1  0.82883807  0.32624565  0.60728115  1
  In  In70  1  0.82299125  0.67295478  0.12076062  1
  In  In71  1  0.85111895  0.66883628  0.62663093  1
  In  In72  1  0.16799771  0.17044501  0.49948993  1
  In  In73  1  0.00558596  0.66836235  0.24500330  1
  In  In74  1  0.00409240  0.33443604  0.75025528  1
  In  In75  1  0.66335749  0.33171667  0.25059283  1
  In  In76  1  0.33059315  -0.00621157  0.75406582  1
  In  In77  1  0.66403242  0.66848107  0.75031942  1
  In  In78  1  0.66415429  0.32854936  0.74491448  1
  In  In79  1  0.50784696  0.17096996  0.48728786  1
  In  In80  1  0.83590355  0.50408784  0.00350398  1
  In  In81  1  0.83237888  0.83273942  0.50041665  1
  In  In82  1  0.66174418  0.67136823  0.25365613  1
  In  In83  1  0.16743481  0.82818643  0.50070064  1
  In  In84  1  0.66603123  -0.00002190  0.75217089  1
  In  In85  1  0.49699773  0.50085028  0.49875770  1
  Cu  Cu86  1  0.84221659  0.49890034  0.74329627  1
  Cu  Cu87  1  0.00002775  0.33153504  0.49787239  1
  Cu  Cu88  1  0.49113402  0.49700977  0.24218556  1
  Cu  Cu89  1  0.49386624  0.17664137  0.75752808  1
  Cu  Cu90  1  -0.00618153  -0.00170118  0.00484537  1
  Cu  Cu91  1  0.84174983  0.49733011  0.25612696  1
  Cu  Cu92  1  0.15943617  0.83333790  0.75902530  1
  Cu  Cu93  1  0.83485858  0.16749394  0.24514322  1
  Cu  Cu94  1  0.83986046  0.82982715  0.75739128  1
  Cu  Cu95  1  0.17055211  0.50162523  0.75354579  1
  Cu  Cu96  1  0.33088644  0.00214561  0.00664729  1
  Cu  Cu97  1  0.00016635  0.00180908  0.49463965  1
  Cu  Cu98  1  0.83452915  0.84816976  0.24254529  1
  Cu  Cu99  1  0.33241640  0.66308018  0.50081869  1
  Cu  Cu100  1  0.16608193  0.16595475  0.76375537  1
  Cu  Cu101  1  0.48857896  0.50783702  0.75835666  1
  Cu  Cu102  1  0.66206613  0.00433694  0.00554935  1
  Cu  Cu103  1  0.33159017  0.66328042  0.00165961  1
  Cu  Cu104  1  0.66695531  0.66263983  0.50071667  1
  Cu  Cu105  1  0.16838673  0.83390484  0.24054391  1
  Cu  Cu106  1  0.33493709  0.33450279  0.00664711  1
  Cu  Cu107  1  0.84361668  0.16083369  0.75029783  1
  Cu  Cu108  1  0.00450444  0.65505526  0.50224455  1
  Cu  Cu109  1  0.34515788  0.00067359  0.48652358  1
  Cu  Cu110  1  0.49963011  0.83104811  0.24233779  1
  Cu  Cu111  1  0.15865217  0.16753073  0.24082664  1
  Cu  Cu112  1  0.66677029  0.33176198  0.00615158  1
  Cu  Cu113  1  0.66204276  0.67040584  -0.00306398  1
  Cu  Cu114  1  0.00322953  0.66878969  0.00191434  1
  Se  Se115  1  0.08292638  0.08082532  0.05328028  1
  Se  Se116  1  0.08334380  0.07267440  0.55980689  1
  Se  Se117  1  0.08759129  0.41547571  0.04939116  1
  Se  Se118  1  0.08593708  0.41324177  0.55049832  1
  Se  Se119  1  0.08696072  0.75380460  0.05305832  1
  Se  Se120  1  0.07819625  0.74128090  0.56335768  1
  Se  Se121  1  0.41490808  0.08475412  0.05990002  1
  Se  Se122  1  0.41436401  0.08264230  0.55355655  1
  Se  Se123  1  0.41891050  0.42018318  0.05760661  1
  Se  Se124  1  0.40977346  0.41079884  0.56029161  1
  Se  Se125  1  0.41666238  0.75192167  0.04978691  1
  Se  Se126  1  0.41561941  0.75058293  0.55022848  1
  Se  Se127  1  0.74952153  0.08852155  0.05356920  1
  Se  Se128  1  0.75182331  0.07214356  0.54953251  1
  Se  Se129  1  0.74862157  0.41234031  0.06607487  1
  Se  Se130  1  0.74908632  0.41673952  0.54617315  1
  Se  Se131  1  0.74944050  0.75249889  0.04688896  1
  Se  Se132  1  0.74392219  0.74290991  0.56424100  1
  Se  Se133  1  0.25134670  0.24638971  0.05515446  1
  Se  Se134  1  0.25964087  0.25752490  0.55941733  1
  Se  Se135  1  0.24941340  0.57909668  0.05500978  1
  Se  Se136  1  0.25061048  0.58288103  0.55761296  1
  Se  Se137  1  0.24607436  0.91495754  0.05403945  1
  Se  Se138  1  0.26292793  0.92665564  0.55133697  1
  Se  Se139  1  0.58169000  0.24851366  0.05763947  1
  Se  Se140  1  0.58899993  0.25515423  0.56135103  1
  Se  Se141  1  0.58312997  0.58189966  0.04801110  1
  Se  Se142  1  0.58428418  0.59018061  0.56490374  1
  Se  Se143  1  0.57631198  0.91938067  0.05488269  1
  Se  Se144  1  0.58832339  0.92248858  0.54544483  1
  Se  Se145  1  0.91805240  0.25172514  0.04616798  1
  Se  Se146  1  0.91997797  0.24076079  0.54746229  1
  Se  Se147  1  0.92711312  0.58898844  0.06718155  1
  Se  Se148  1  0.91445969  0.57805564  0.55420020  1
  Se  Se149  1  0.90630757  0.91374301  0.05316303  1
  Se  Se150  1  0.92953207  0.91772861  0.55937049  1
  Se  Se151  1  0.08150402  0.25556795  0.43492621  1
  Se  Se152  1  0.07130776  0.25880983  0.95592411  1
  Se  Se153  1  0.09094765  0.57750578  0.44827581  1
  Se  Se154  1  0.08630247  0.58305809  0.95104469  1
  Se  Se155  1  0.08439982  0.92363533  0.43730858  1
  Se  Se156  1  0.08061482  0.91608233  0.95217181  1
  Se  Se157  1  0.40447149  0.25843071  0.44012564  1
  Se  Se158  1  0.41990820  0.24882314  0.95408237  1
  Se  Se159  1  0.40701513  0.58380451  0.43536582  1
  Se  Se160  1  0.41609916  0.58171233  0.94640424  1
  Se  Se161  1  0.42545947  0.91328375  0.43724154  1
  Se  Se162  1  0.41174451  0.91907609  0.94923028  1
  Se  Se163  1  0.74356762  0.25079758  0.44814733  1
  Se  Se164  1  0.75086862  0.24960975  0.95302582  1
  Se  Se165  1  0.75321957  0.58235951  0.44988899  1
  Se  Se166  1  0.74556306  0.58960850  0.93708195  1
  Se  Se167  1  0.75322652  0.91886083  0.43270281  1
  Se  Se168  1  0.74169464  0.92027162  0.94770348  1
  Se  Se169  1  0.25884932  0.08332069  0.43591463  1
  Se  Se170  1  0.24712242  0.08711870  0.95353282  1
  Se  Se171  1  0.25104834  0.41974918  0.43838430  1
  Se  Se172  1  0.25252161  0.41666073  0.95054695  1
  Se  Se173  1  0.25715955  0.74515633  0.43674767  1
  Se  Se174  1  0.24856348  0.75081392  0.95092665  1
  Se  Se175  1  0.59128248  0.07346705  0.43233677  1
  Se  Se176  1  0.57657535  0.08720453  0.95231129  1
  Se  Se177  1  0.58834390  0.40514198  0.44381368  1
  Se  Se178  1  0.58572496  0.41872253  0.95437918  1
  Se  Se179  1  0.58308608  0.74553887  0.44853054  1
  Se  Se180  1  0.57537253  0.75207973  0.94515097  1
  Se  Se181  1  0.92034515  0.08605816  0.44087963  1
  Se  Se182  1  0.91137858  0.08253262  0.95015341  1
  Se  Se183  1  0.91586134  0.41637672  0.44601465  1
  Se  Se184  1  0.92196967  0.41630817  0.94040304  1
  Se  Se185  1  0.92987486  0.74207417  0.44281474  1
  Se  Se186  1  0.91559019  0.74862171  0.94928985  1
  Se  Se187  1  0.24009731  0.24600015  0.30059244  1
  Se  Se188  1  0.24968493  0.25228498  0.81139804  1
  Se  Se189  1  0.26018074  0.59848436  0.29613696  1
  Se  Se190  1  0.25036118  0.58816819  0.80758803  1
  Se  Se191  1  0.25076944  0.91589637  0.29764898  1
  Se  Se192  1  0.24001306  0.91339181  0.81934876  1
  Se  Se193  1  0.57397273  0.24033099  0.30870729  1
  Se  Se194  1  0.57941737  0.25104438  0.81681415  1
  Se  Se195  1  0.57230584  0.57129254  0.30729643  1
  Se  Se196  1  0.57821816  0.58020131  0.81556266  1
  Se  Se197  1  0.58585914  0.90985668  0.29745118  1
  Se  Se198  1  0.56711689  0.91287760  0.80458235  1
  Se  Se199  1  0.91400785  0.25408804  0.30025896  1
  Se  Se200  1  0.91568772  0.24491544  0.81207230  1
  Se  Se201  1  0.91726380  0.58470767  0.31326551  1
  Se  Se202  1  0.92294276  0.58075688  0.79838743  1
  Se  Se203  1  0.92256358  0.92630981  0.29555659  1
  Se  Se204  1  0.92062569  0.91765502  0.80839759  1
  Se  Se205  1  0.07798649  0.08203906  0.29624377  1
  Se  Se206  1  0.07882588  0.08291102  0.81032668  1
  Se  Se207  1  0.07514316  0.41884870  0.29670157  1
  Se  Se208  1  0.09271114  0.41912856  0.81402271  1
  Se  Se209  1  0.09208593  0.75955209  0.30986093  1
  Se  Se210  1  0.07976191  0.74684534  0.81186766  1
  Se  Se211  1  0.40438520  0.06945587  0.29533364  1
  Se  Se212  1  0.41671939  0.08955800  0.81355421  1
  Se  Se213  1  0.41344104  0.40798161  0.29433793  1
  Se  Se214  1  0.41278395  0.41597235  0.80984260  1
  Se  Se215  1  0.41962768  0.74695734  0.29805229  1
  Se  Se216  1  0.40990082  0.75516894  0.80008513  1
  Se  Se217  1  0.75001053  0.08433322  0.29646822  1
  Se  Se218  1  0.75569218  0.09051393  0.81163382  1
  Se  Se219  1  0.75472356  0.42068813  0.31251979  1
  Se  Se220  1  0.76050966  0.42021318  0.80270569  1
  Se  Se221  1  0.76055838  0.76429782  0.30547563  1
  Se  Se222  1  0.75263241  0.75574290  0.81542469  1
  Se  Se223  1  0.24660820  0.08205874  0.19484115  1
  Se  Se224  1  0.24280997  0.09078568  0.69443675  1
  Se  Se225  1  0.25861415  0.40186346  0.19597202  1
  Se  Se226  1  0.25212175  0.41709304  0.69981971  1
  Se  Se227  1  0.25193288  0.74902303  0.19147223  1
  Se  Se228  1  0.24557075  0.76002336  0.69866296  1
  Se  Se229  1  0.58439913  0.07768496  0.20180066  1
  Se  Se230  1  0.57365086  0.09715655  0.69543778  1
  Se  Se231  1  0.57770729  0.42022297  0.18578543  1
  Se  Se232  1  0.56955727  0.42900563  0.69637110  1
  Se  Se233  1  0.57951267  0.74969101  0.18170741  1
  Se  Se234  1  0.57521533  0.76094078  0.69268379  1
  Se  Se235  1  0.91877191  0.08628640  0.19012491  1
  Se  Se236  1  0.92445492  0.07630827  0.69770307  1
  Se  Se237  1  0.92156370  0.41705104  0.19943560  1
  Se  Se238  1  0.91231294  0.41212518  0.68236632  1
  Se  Se239  1  0.91103114  0.75812796  0.18780618  1
  Se  Se240  1  0.92199495  0.74490746  0.70462775  1
  Se  Se241  1  0.07889967  0.25313458  0.18826433  1
  Se  Se242  1  0.09417657  0.24081338  0.69163255  1
  Se  Se243  1  0.09937762  0.57496716  0.19501789  1
  Se  Se244  1  0.08338556  0.57943059  0.69748064  1
  Se  Se245  1  0.08084861  0.91874833  0.19468807  1
  Se  Se246  1  0.08267538  0.92089204  0.70390302  1
  Se  Se247  1  0.41590821  0.24393042  0.20353242  1
  Se  Se248  1  0.40897518  0.25662894  0.70419186  1
  Se  Se249  1  0.41159847  0.58636779  0.19281258  1
  Se  Se250  1  0.40860526  0.59056405  0.70253993  1
  Se  Se251  1  0.41318507  0.91477260  0.19303882  1
  Se  Se252  1  0.42174421  0.91752658  0.68553454  1
  Se  Se253  1  0.75239321  0.24721316  0.18569388  1
  Se  Se254  1  0.76122627  0.23796781  0.68970822  1
  Se  Se255  1  0.75956113  0.57858052  0.19837227  1
  Se  Se256  1  0.75318745  0.57633478  0.68878346  1
  Se  Se257  1  0.74363018  0.92372257  0.19146004  1
  Se  Se258  1  0.75983063  0.90684011  0.69432396  1
