# generated using pymatgen
data_In86Cu29Se144
_symmetry_space_group_name_H-M   'P 1'
_cell_length_a   17.58124481
_cell_length_b   17.57977839
_cell_length_c   23.43461567
_cell_angle_alpha   90.00777352
_cell_angle_beta   89.99028699
_cell_angle_gamma   90.00145805
_symmetry_Int_Tables_number   1
_chemical_formula_structural   In86Cu29Se144
_chemical_formula_sum   'In86 Cu29 Se144'
_cell_volume   7243.03931061
_cell_formula_units_Z   1
loop_
 _symmetry_equiv_pos_site_id
 _symmetry_equiv_pos_as_xyz
  1  'x, y, z'
loop_
 _atom_site_type_symbol
 _atom_site_label
 _atom_site_symmetry_multiplicity
 _atom_site_fract_x
 _atom_site_fract_y
 _atom_site_fract_z
 _atom_site_occupancy
  In  In0  1  0.00626061  0.17293966  0.11484603  1
  In  In1  1  -0.01264530  0.17129962  0.62942250  1
  In  In2  1  0.00646410  0.50772689  0.11904563  1
  In  In3  1  -0.00255071  0.51153679  0.63014310  1
  In  In4  1  -0.01715366  0.83453961  0.12972735  1
  In  In5  1  -0.00307320  0.83510632  0.62654466  1
  In  In6  1  0.32302682  0.14892129  0.10445370  1
  In  In7  1  0.34276523  0.16776336  0.63106336  1
  In  In8  1  0.33452301  0.49480861  0.10721715  1
  In  In9  1  0.33516956  0.50379535  0.64221024  1
  In  In10  1  0.34953797  0.83978998  0.12106054  1
  In  In11  1  0.32375883  0.82994504  0.61650176  1
  In  In12  1  0.66993850  0.16306290  0.12635113  1
  In  In13  1  0.67110709  0.16556069  0.62621214  1
  In  In14  1  0.65487133  0.48098505  0.11628301  1
  In  In15  1  0.66616213  0.48622006  0.62676158  1
  In  In16  1  0.67684996  0.83544926  0.12460328  1
  In  In17  1  0.67703507  0.84917603  0.60553068  1
  In  In18  1  0.16330609  -0.00525172  0.37195108  1
  In  In19  1  0.16587584  0.01692613  0.87467837  1
  In  In20  1  0.17704112  0.33516524  0.37693686  1
  In  In21  1  0.18063348  0.32681749  0.88948683  1
  In  In22  1  0.16903973  0.68469300  0.37239062  1
  In  In23  1  0.16009237  0.65635719  0.86970023  1
  In  In24  1  0.49395654  -0.00702031  0.36304140  1
  In  In25  1  0.48364766  0.00635994  0.89684071  1
  In  In26  1  0.50191458  0.32078397  0.36672205  1
  In  In27  1  0.49912668  0.33116715  0.88203812  1
  In  In28  1  0.50727149  0.67313580  0.36872429  1
  In  In29  1  0.49002639  0.67889442  0.88145669  1
  In  In30  1  0.82182732  0.01282240  0.39301096  1
  In  In31  1  0.83878448  -0.00836059  0.87865164  1
  In  In32  1  0.82601107  0.33904736  0.37769766  1
  In  In33  1  0.82425689  0.33830445  0.87695357  1
  In  In34  1  0.83723182  0.66407439  0.37716118  1
  In  In35  1  0.83763550  0.66411159  0.87661626  1
  In  In36  1  -0.01053247  0.14954680  0.37471965  1
  In  In37  1  0.00625914  0.15876133  0.87854502  1
  In  In38  1  -0.01706720  0.49828057  0.37159765  1
  In  In39  1  -0.00693072  0.50757789  0.87956740  1
  In  In40  1  0.00806471  0.83577075  0.38092127  1
  In  In41  1  -0.00395927  0.82452624  0.86534721  1
  In  In42  1  0.34154015  0.16640220  0.36802725  1
  In  In43  1  0.32115585  0.18114732  0.90097122  1
  In  In44  1  0.33035624  0.49072643  0.37293809  1
  In  In45  1  0.33360015  0.49856769  0.88177293  1
  In  In46  1  0.31678830  0.85003778  0.38954703  1
  In  In47  1  0.34842296  0.83895753  0.87541728  1
  In  In48  1  0.67468337  0.17321346  0.36302144  1
  In  In49  1  0.65618211  0.17308182  0.88281597  1
  In  In50  1  0.67316019  0.50556503  0.36729535  1
  In  In51  1  0.67612225  0.49162400  0.88129102  1
  In  In52  1  0.65210531  0.85038052  0.39099204  1
  In  In53  1  0.66119672  0.83938085  0.88363347  1
  In  In54  1  0.17324956  0.01789140  0.12560697  1
  In  In55  1  0.16455917  -0.01922297  0.61895013  1
  In  In56  1  0.17213693  0.32817831  0.10903771  1
  In  In57  1  0.17200315  0.34436056  0.63273282  1
  In  In58  1  0.16487088  0.65586168  0.12593304  1
  In  In59  1  0.15873310  0.67591334  0.63624518  1
  In  In60  1  0.50452188  0.00404153  0.12528024  1
  In  In61  1  0.50814095  0.00027223  0.61819023  1
  In  In62  1  0.50605477  0.33871857  0.11443681  1
  In  In63  1  0.49837491  0.33464925  0.64076486  1
  In  In64  1  0.49855092  0.65638731  0.11652618  1
  In  In65  1  0.49340397  0.67285657  0.63111156  1
  In  In66  1  0.82784158  -0.00865519  0.12364310  1
  In  In67  1  0.84377469  0.01369549  0.60800446  1
  In  In68  1  0.82253514  0.32205065  0.11591983  1
  In  In69  1  0.82033768  0.32419720  0.61995398  1
  In  In70  1  0.83823452  0.67040831  0.12197065  1
  In  In71  1  0.84505220  0.67846472  0.61850334  1
  In  In72  1  0.50365931  0.16154850  0.49826513  1
  In  In73  1  0.16061813  0.16183779  0.49290203  1
  In  In74  1  0.15175975  0.51325415  0.51700032  1
  In  In75  1  0.00028081  0.33501021  0.75918213  1
  In  In76  1  -0.00092125  -0.00227454  0.25507021  1
  In  In77  1  0.66678303  0.66720287  0.24925760  1
  In  In78  1  0.33645138  0.66921302  0.23849202  1
  In  In79  1  0.33235341  -0.00069812  0.75152309  1
  In  In80  1  0.16557482  0.83454962  -0.00014117  1
  In  In81  1  0.66410367  -0.00006459  0.74593371  1
  In  In82  1  0.50199128  0.50603858  0.49614316  1
  In  In83  1  0.66703298  0.66629149  0.74760434  1
  In  In84  1  0.33963859  0.32729614  0.23521942  1
  In  In85  1  0.00146981  0.33442865  0.23693271  1
  Cu  Cu86  1  0.16723281  0.82771607  0.74606322  1
  Cu  Cu87  1  0.83006040  0.83279673  0.25342753  1
  Cu  Cu88  1  0.66859440  0.66269449  0.49343164  1
  Cu  Cu89  1  0.67194886  0.33185593  -0.00072425  1
  Cu  Cu90  1  0.16592780  0.83737665  0.25411887  1
  Cu  Cu91  1  -0.00391216  0.33451691  -0.00545684  1
  Cu  Cu92  1  0.67193592  -0.00132825  0.00706905  1
  Cu  Cu93  1  0.50176127  0.49936090  0.76131272  1
  Cu  Cu94  1  -0.01489697  0.32644918  0.49958036  1
  Cu  Cu95  1  0.67032717  0.66530406  0.00053757  1
  Cu  Cu96  1  0.82761237  0.49955005  0.24881773  1
  Cu  Cu97  1  0.49895766  0.83835888  0.25056936  1
  Cu  Cu98  1  0.16175059  0.50337041  0.24484975  1
  Cu  Cu99  1  0.83622329  0.16566640  0.24790191  1
  Cu  Cu100  1  0.50724688  0.16148060  0.24325770  1
  Cu  Cu101  1  0.83910413  0.83240568  0.74792737  1
  Cu  Cu102  1  0.17704275  0.49662028  0.75758020  1
  Cu  Cu103  1  -0.00516312  0.67068443  -0.00488839  1
  Cu  Cu104  1  0.16982111  0.16420163  0.75998027  1
  Cu  Cu105  1  -0.00278004  -0.00082641  0.00169429  1
  Cu  Cu106  1  0.83527053  0.50123855  0.75459266  1
  Cu  Cu107  1  0.33141654  0.33849077  0.50914412  1
  Cu  Cu108  1  0.00488274  0.66817376  0.50316934  1
  Cu  Cu109  1  0.82565613  0.16233700  0.74622339  1
  Cu  Cu110  1  0.67052383  0.33139293  0.49744889  1
  Cu  Cu111  1  0.32964402  0.66515850  -0.00092944  1
  Cu  Cu112  1  0.50362220  0.83537623  0.75190572  1
  Cu  Cu113  1  0.33496162  0.67543476  0.50321374  1
  Cu  Cu114  1  0.49339131  0.17680280  0.76291235  1
  Se  Se115  1  0.08573129  0.08205021  0.05010055  1
  Se  Se116  1  0.07725472  0.08311447  0.56430786  1
  Se  Se117  1  0.07943293  0.41479648  0.05193159  1
  Se  Se118  1  0.06655980  0.40287360  0.56276483  1
  Se  Se119  1  0.07373104  0.74676637  0.06103137  1
  Se  Se120  1  0.08549970  0.75096800  0.55897609  1
  Se  Se121  1  0.42909651  0.08092931  0.04904345  1
  Se  Se122  1  0.40483868  0.07690902  0.55515048  1
  Se  Se123  1  0.41317862  0.40584437  0.04452122  1
  Se  Se124  1  0.41535382  0.41912909  0.56441952  1
  Se  Se125  1  0.41554276  0.74468357  0.05298545  1
  Se  Se126  1  0.42351349  0.75337226  0.55533607  1
  Se  Se127  1  0.75742497  0.08487760  0.05601458  1
  Se  Se128  1  0.72607824  0.06916144  0.55633650  1
  Se  Se129  1  0.75612622  0.42004083  0.04892811  1
  Se  Se130  1  0.75010367  0.41840729  0.55103279  1
  Se  Se131  1  0.75311108  0.75061557  0.05343881  1
  Se  Se132  1  0.75014673  0.74460610  0.54982316  1
  Se  Se133  1  0.26027667  0.25319161  0.04257501  1
  Se  Se134  1  0.24969159  0.25244555  0.56140442  1
  Se  Se135  1  0.24288877  0.58383023  0.05023695  1
  Se  Se136  1  0.26049524  0.59243660  0.56642162  1
  Se  Se137  1  0.25506467  0.92325345  0.05890038  1
  Se  Se138  1  0.25768652  0.92291535  0.54766327  1
  Se  Se139  1  0.59268716  0.24753559  0.05471029  1
  Se  Se140  1  0.58296073  0.26200020  0.56011097  1
  Se  Se141  1  0.58573436  0.57836702  0.04964176  1
  Se  Se142  1  0.59031521  0.59039652  0.56226206  1
  Se  Se143  1  0.58749162  0.91417589  0.05900734  1
  Se  Se144  1  0.57917104  0.92057507  0.54421149  1
  Se  Se145  1  0.91582618  0.24858065  0.04895390  1
  Se  Se146  1  0.90575511  0.24117904  0.55331052  1
  Se  Se147  1  0.91642511  0.58499500  0.05190741  1
  Se  Se148  1  0.91973335  0.58208007  0.55280153  1
  Se  Se149  1  0.91440842  0.91384485  0.05289242  1
  Se  Se150  1  0.90100792  0.89839376  0.55681808  1
  Se  Se151  1  0.07149746  0.25987064  0.43579326  1
  Se  Se152  1  0.08190760  0.24715599  0.94723747  1
  Se  Se153  1  0.07913062  0.58804700  0.43588597  1
  Se  Se154  1  0.08216445  0.58548017  0.94765813  1
  Se  Se155  1  0.07757673  0.93246438  0.44626758  1
  Se  Se156  1  0.07609821  0.92139052  0.93696531  1
  Se  Se157  1  0.40781094  0.26098634  0.44524789  1
  Se  Se158  1  0.44116575  0.22992464  0.95050828  1
  Se  Se159  1  0.40449403  0.59270751  0.43748867  1
  Se  Se160  1  0.41920826  0.58459053  0.94834694  1
  Se  Se161  1  0.43132772  0.90843079  0.44041546  1
  Se  Se162  1  0.42270293  0.90011689  0.95688568  1
  Se  Se163  1  0.74987447  0.24544493  0.44308522  1
  Se  Se164  1  0.75423115  0.24622984  0.94632492  1
  Se  Se165  1  0.75149477  0.57740727  0.44304635  1
  Se  Se166  1  0.75444184  0.58390123  0.94551720  1
  Se  Se167  1  0.76584207  0.89944716  0.44893086  1
  Se  Se168  1  0.75215566  0.91577509  0.94899786  1
  Se  Se169  1  0.26106560  0.07999113  0.43764542  1
  Se  Se170  1  0.26279576  0.06220591  0.94808378  1
  Se  Se171  1  0.24766808  0.42232976  0.45527878  1
  Se  Se172  1  0.24994330  0.42271743  0.95364604  1
  Se  Se173  1  0.24281756  0.75251864  0.45285577  1
  Se  Se174  1  0.25255701  0.74575369  0.93650525  1
  Se  Se175  1  0.58663734  0.08263231  0.42855821  1
  Se  Se176  1  0.58845145  0.07939577  0.95189076  1
  Se  Se177  1  0.58670664  0.40870354  0.43720919  1
  Se  Se178  1  0.58597637  0.41629805  0.94832304  1
  Se  Se179  1  0.57813670  0.74531556  0.44756444  1
  Se  Se180  1  0.58416591  0.74942162  0.94941996  1
  Se  Se181  1  0.92237120  0.08085396  0.45554021  1
  Se  Se182  1  0.91569284  0.08232817  0.94582917  1
  Se  Se183  1  0.91138537  0.41881837  0.44721645  1
  Se  Se184  1  0.91179544  0.41886618  0.94391845  1
  Se  Se185  1  0.92301002  0.74617011  0.44378706  1
  Se  Se186  1  0.91449816  0.75664511  0.94295258  1
  Se  Se187  1  0.24573173  0.24746432  0.30329450  1
  Se  Se188  1  0.25351288  0.24465020  0.81419455  1
  Se  Se189  1  0.24515300  0.58036236  0.30611864  1
  Se  Se190  1  0.25932569  0.58448770  0.80741569  1
  Se  Se191  1  0.25316908  0.91897895  0.30358623  1
  Se  Se192  1  0.24096745  0.90852481  0.81159810  1
  Se  Se193  1  0.58664165  0.25065443  0.29434329  1
  Se  Se194  1  0.58681970  0.25638576  0.80771015  1
  Se  Se195  1  0.56949556  0.57193847  0.30065292  1
  Se  Se196  1  0.58278164  0.58425871  0.81714146  1
  Se  Se197  1  0.59154098  0.91411642  0.30188799  1
  Se  Se198  1  0.57209812  0.92197639  0.81401546  1
  Se  Se199  1  0.91614026  0.24910210  0.30624590  1
  Se  Se200  1  0.90691619  0.23971280  0.81007390  1
  Se  Se201  1  0.91175633  0.58412092  0.29965913  1
  Se  Se202  1  0.91929542  0.58677308  0.80297736  1
  Se  Se203  1  0.90685357  0.91398366  0.31564690  1
  Se  Se204  1  0.91859095  0.91966714  0.80178219  1
  Se  Se205  1  0.09275737  0.09630988  0.30391480  1
  Se  Se206  1  0.07647434  0.08002266  0.79981344  1
  Se  Se207  1  0.08883001  0.42020762  0.30838994  1
  Se  Se208  1  0.09380082  0.42003856  0.81862129  1
  Se  Se209  1  0.07897778  0.75429145  0.30232915  1
  Se  Se210  1  0.08380276  0.74368672  0.80000354  1
  Se  Se211  1  0.41782938  0.08478183  0.29677842  1
  Se  Se212  1  0.41548239  0.08821485  0.81636568  1
  Se  Se213  1  0.42182034  0.41955464  0.30336955  1
  Se  Se214  1  0.41749303  0.41540048  0.81264867  1
  Se  Se215  1  0.41380308  0.75872237  0.30788377  1
  Se  Se216  1  0.41729031  0.75203338  0.80122236  1
  Se  Se217  1  0.76024288  0.07865152  0.30466559  1
  Se  Se218  1  0.74956858  0.08551726  0.81239159  1
  Se  Se219  1  0.74758416  0.41277342  0.30094709  1
  Se  Se220  1  0.74848334  0.41692125  0.80148421  1
  Se  Se221  1  0.74683283  0.75645416  0.31538368  1
  Se  Se222  1  0.75158392  0.76055749  0.80919097  1
  Se  Se223  1  0.26065713  0.09039518  0.19410543  1
  Se  Se224  1  0.23997386  0.08658689  0.68972968  1
  Se  Se225  1  0.24195558  0.42406246  0.18544106  1
  Se  Se226  1  0.25858213  0.40980190  0.70657981  1
  Se  Se227  1  0.24194075  0.76281286  0.18523336  1
  Se  Se228  1  0.25963511  0.74985361  0.69671248  1
  Se  Se229  1  0.59479443  0.07491566  0.19716120  1
  Se  Se230  1  0.56680906  0.09689294  0.69545271  1
  Se  Se231  1  0.58286787  0.40800652  0.19395283  1
  Se  Se232  1  0.58498689  0.41939122  0.70429278  1
  Se  Se233  1  0.57222279  0.75242410  0.18878364  1
  Se  Se234  1  0.58888358  0.76707850  0.68746840  1
  Se  Se235  1  0.91865363  0.08931382  0.18727945  1
  Se  Se236  1  0.90987493  0.07948711  0.69453786  1
  Se  Se237  1  0.90602632  0.42355140  0.18330701  1
  Se  Se238  1  0.91064798  0.41635943  0.69177475  1
  Se  Se239  1  0.91153288  0.74750034  0.20122345  1
  Se  Se240  1  0.92229991  0.74510569  0.69830833  1
  Se  Se241  1  0.09942528  0.24335890  0.18811742  1
  Se  Se242  1  0.09111084  0.24498023  0.69616506  1
  Se  Se243  1  0.07496568  0.58846028  0.19824090  1
  Se  Se244  1  0.09166128  0.57448850  0.70052434  1
  Se  Se245  1  0.08920036  0.91439551  0.18754662  1
  Se  Se246  1  0.08387298  0.91446405  0.69657884  1
  Se  Se247  1  0.42717674  0.23550032  0.17838046  1
  Se  Se248  1  0.40814878  0.25455339  0.70525585  1
  Se  Se249  1  0.41933296  0.56662575  0.18705297  1
  Se  Se250  1  0.42556131  0.58589949  0.70448079  1
  Se  Se251  1  0.41784711  0.92254827  0.19618362  1
  Se  Se252  1  0.42387140  0.91415177  0.68862883  1
  Se  Se253  1  0.75197991  0.24958335  0.19617978  1
  Se  Se254  1  0.74385584  0.25148772  0.69818527  1
  Se  Se255  1  0.74885279  0.57666937  0.18465240  1
  Se  Se256  1  0.75915819  0.57859846  0.68761082  1
  Se  Se257  1  0.74938357  0.91734222  0.19997940  1
  Se  Se258  1  0.75811593  0.91247816  0.68896052  1
