# generated using pymatgen
data_In86Cu29Se144
_symmetry_space_group_name_H-M   'P 1'
_cell_length_a   17.58620044
_cell_length_b   17.59005982
_cell_length_c   23.44199850
_cell_angle_alpha   90.00100656
_cell_angle_beta   89.99808674
_cell_angle_gamma   90.00174366
_symmetry_Int_Tables_number   1
_chemical_formula_structural   In86Cu29Se144
_chemical_formula_sum   'In86 Cu29 Se144'
_cell_volume   7251.60214011
_cell_formula_units_Z   1
loop_
 _symmetry_equiv_pos_site_id
 _symmetry_equiv_pos_as_xyz
  1  'x, y, z'
loop_
 _atom_site_type_symbol
 _atom_site_label
 _atom_site_symmetry_multiplicity
 _atom_site_fract_x
 _atom_site_fract_y
 _atom_site_fract_z
 _atom_site_occupancy
  In  In0  1  0.00510889  0.16610299  0.12485390  1
  In  In1  1  0.00409584  0.16798923  0.62529783  1
  In  In2  1  0.00557039  0.49681111  0.12474512  1
  In  In3  1  0.00546990  0.48567963  0.63778243  1
  In  In4  1  -0.00626892  0.84371927  0.13259658  1
  In  In5  1  0.00226515  0.84946467  0.62508645  1
  In  In6  1  0.32261570  0.18060389  0.12994239  1
  In  In7  1  0.31852378  0.15962196  0.62015809  1
  In  In8  1  0.32243750  0.49658659  0.11471648  1
  In  In9  1  0.32549199  0.51136781  0.63048339  1
  In  In10  1  0.34284135  0.83860099  0.12925039  1
  In  In11  1  0.33464465  0.83398214  0.63209963  1
  In  In12  1  0.67297203  0.15309870  0.11984977  1
  In  In13  1  0.65095883  0.17193514  0.62711594  1
  In  In14  1  0.67501283  0.51544930  0.10367692  1
  In  In15  1  0.67591890  0.50501103  0.63673378  1
  In  In16  1  0.66641180  0.83214303  0.10905589  1
  In  In17  1  0.67222681  0.82859639  0.63271597  1
  In  In18  1  0.17443857  0.00755806  0.36468465  1
  In  In19  1  0.17241067  0.00842653  0.86776674  1
  In  In20  1  0.16134264  0.32760002  0.37823961  1
  In  In21  1  0.15379240  0.33803973  0.87182004  1
  In  In22  1  0.15030545  0.67391629  0.37426441  1
  In  In23  1  0.17358292  0.64435015  0.87159818  1
  In  In24  1  0.49813187  0.00621961  0.37516422  1
  In  In25  1  0.49563404  -0.01275973  0.87160536  1
  In  In26  1  0.48024943  0.33268952  0.37307088  1
  In  In27  1  0.50528319  0.34249435  0.87557758  1
  In  In28  1  0.49048221  0.66087458  0.37402996  1
  In  In29  1  0.50372959  0.66797692  0.87383637  1
  In  In30  1  0.83430528  -0.01227065  0.37835160  1
  In  In31  1  0.83779189  0.00051693  0.87289039  1
  In  In32  1  0.84619850  0.32246667  0.37348801  1
  In  In33  1  0.84315657  0.32798067  0.88108738  1
  In  In34  1  0.84974720  0.66619880  0.37244593  1
  In  In35  1  0.81993797  0.67680399  0.89158077  1
  In  In36  1  0.01801726  0.18233398  0.36248497  1
  In  In37  1  0.00464518  0.16243207  0.87303782  1
  In  In38  1  0.01087173  0.50536858  0.37056041  1
  In  In39  1  0.01153924  0.48646002  0.88236055  1
  In  In40  1  -0.00463807  0.82512627  0.36541498  1
  In  In41  1  -0.01160036  0.83564588  0.87861151  1
  In  In42  1  0.32533065  0.16549249  0.37852632  1
  In  In43  1  0.32399444  0.15549514  0.87065739  1
  In  In44  1  0.32854011  0.47986839  0.37064077  1
  In  In45  1  0.32537250  0.50861645  0.87207563  1
  In  In46  1  0.31869789  0.83529241  0.36365709  1
  In  In47  1  0.34651251  0.83813354  0.87401606  1
  In  In48  1  0.66301327  0.15081104  0.37941708  1
  In  In49  1  0.68683126  0.16985714  0.87274135  1
  In  In50  1  0.66413469  0.50581203  0.37094617  1
  In  In51  1  0.64643071  0.52582264  0.90076635  1
  In  In52  1  0.67227360  0.84551690  0.37629364  1
  In  In53  1  0.66510762  0.83030829  0.87760638  1
  In  In54  1  0.15355310  0.00990244  0.13477387  1
  In  In55  1  0.15199532  0.02071485  0.64585875  1
  In  In56  1  0.16861514  0.33249553  0.12364305  1
  In  In57  1  0.14942622  0.32772910  0.61608940  1
  In  In58  1  0.17181954  0.65066633  0.12229168  1
  In  In59  1  0.17742008  0.66708055  0.62719266  1
  In  In60  1  0.49620663  -0.00924738  0.12470817  1
  In  In61  1  0.48669510  0.01205091  0.63524329  1
  In  In62  1  0.48356477  0.33668570  0.12334278  1
  In  In63  1  0.50573094  0.32652245  0.62593049  1
  In  In64  1  0.50655113  0.67622260  0.10711690  1
  In  In65  1  0.49738610  0.66780281  0.63962458  1
  In  In66  1  0.84161125  0.00711444  0.11468483  1
  In  In67  1  0.84277698  -0.00898156  0.63075405  1
  In  In68  1  0.84640804  0.34175070  0.11872744  1
  In  In69  1  0.84619282  0.34072160  0.63081955  1
  In  In70  1  0.83973372  0.67688224  0.11128390  1
  In  In71  1  0.82105853  0.66545816  0.62947770  1
  In  In72  1  0.84214932  0.49996031  0.50305033  1
  In  In73  1  0.49888299  0.83698499  0.49715072  1
  In  In74  1  0.50073196  0.16862749  -0.00250893  1
  In  In75  1  0.66707032  0.33657903  0.24632830  1
  In  In76  1  0.16695798  0.83956885  0.49654372  1
  In  In77  1  0.16716101  0.83161162  0.00711461  1
  In  In78  1  0.67014540  0.67092307  0.22890790  1
  In  In79  1  0.33079602  0.66666374  0.24493534  1
  In  In80  1  0.32644042  0.33346633  0.75531883  1
  In  In81  1  0.66557386  -0.00177252  0.24953446  1
  In  In82  1  -0.00298765  0.67022206  0.75959026  1
  In  In83  1  0.50236958  0.49226342  0.51396484  1
  In  In84  1  0.67268256  0.33887409  0.75310025  1
  In  In85  1  0.83552035  0.16090138  0.50565961  1
  Cu  Cu86  1  0.67263401  -0.00143333  -0.00641604  1
  Cu  Cu87  1  0.84803544  0.49653001  0.24773589  1
  Cu  Cu88  1  0.17362371  0.83261127  0.75368683  1
  Cu  Cu89  1  0.00513320  0.32732991  0.00260639  1
  Cu  Cu90  1  0.67406716  0.67421365  0.50452055  1
  Cu  Cu91  1  0.83156484  0.83117399  0.24604008  1
  Cu  Cu92  1  0.00140736  0.66126144  -0.00337854  1
  Cu  Cu93  1  0.66254475  0.33045007  0.50266921  1
  Cu  Cu94  1  0.49844674  0.15929713  0.75136926  1
  Cu  Cu95  1  0.16884502  0.49239783  0.24636783  1
  Cu  Cu96  1  0.66141098  -0.00335958  0.50375392  1
  Cu  Cu97  1  0.33438437  0.66791569  -0.00355152  1
  Cu  Cu98  1  0.16909720  0.16953415  0.25035203  1
  Cu  Cu99  1  0.82980065  0.50508057  0.76534882  1
  Cu  Cu100  1  0.67174606  0.33144710  -0.00279333  1
  Cu  Cu101  1  0.84193006  0.16358500  0.75251909  1
  Cu  Cu102  1  0.49832879  0.50036777  0.23893602  1
  Cu  Cu103  1  0.50792940  0.83057180  0.75420620  1
  Cu  Cu104  1  0.32999174  0.00389218  -0.00362791  1
  Cu  Cu105  1  -0.00063962  0.00068497  0.00167014  1
  Cu  Cu106  1  0.33252745  0.65767338  0.50408853  1
  Cu  Cu107  1  0.32403164  0.32515180  0.49816118  1
  Cu  Cu108  1  -0.00438472  0.67066071  0.49731714  1
  Cu  Cu109  1  0.32665432  0.33578091  -0.00302906  1
  Cu  Cu110  1  0.84474704  0.16496145  0.24283534  1
  Cu  Cu111  1  0.48956174  0.16946451  0.25491910  1
  Cu  Cu112  1  0.32565409  0.00504080  0.50388245  1
  Cu  Cu113  1  0.83052632  0.83506340  0.75646620  1
  Cu  Cu114  1  0.00207950  0.00389057  0.50107169  1
  Se  Se115  1  0.08602254  0.08302295  0.05321899  1
  Se  Se116  1  0.08547482  0.08104117  0.55790686  1
  Se  Se117  1  0.08757111  0.41553826  0.05375501  1
  Se  Se118  1  0.07613577  0.42669158  0.55393170  1
  Se  Se119  1  0.07491636  0.74114905  0.06358399  1
  Se  Se120  1  0.07888613  0.74797993  0.55978997  1
  Se  Se121  1  0.40966182  0.08455593  0.05996126  1
  Se  Se122  1  0.41505111  0.08459425  0.55498767  1
  Se  Se123  1  0.41337425  0.41776040  0.04798145  1
  Se  Se124  1  0.40211220  0.40297960  0.56330872  1
  Se  Se125  1  0.40867294  0.75787184  0.05062784  1
  Se  Se126  1  0.41398422  0.74139794  0.55838876  1
  Se  Se127  1  0.75500582  0.08444873  0.04502540  1
  Se  Se128  1  0.74032919  0.07693973  0.56550238  1
  Se  Se129  1  0.75568257  0.41456626  0.05014087  1
  Se  Se130  1  0.74268649  0.41065448  0.56072983  1
  Se  Se131  1  0.73453961  0.73336279  0.04755542  1
  Se  Se132  1  0.75614566  0.75698146  0.55679736  1
  Se  Se133  1  0.24773117  0.24934106  0.05034095  1
  Se  Se134  1  0.23938901  0.24458720  0.55235043  1
  Se  Se135  1  0.24713504  0.58162852  0.04300025  1
  Se  Se136  1  0.24301890  0.57856574  0.55268478  1
  Se  Se137  1  0.25326524  0.92852414  0.06317420  1
  Se  Se138  1  0.24970258  0.92307381  0.56551057  1
  Se  Se139  1  0.59003956  0.25639664  0.06197440  1
  Se  Se140  1  0.57565592  0.24575959  0.54925931  1
  Se  Se141  1  0.57254484  0.57900149  0.04273971  1
  Se  Se142  1  0.59439346  0.59289083  0.56329033  1
  Se  Se143  1  0.58334650  0.92593898  0.04981321  1
  Se  Se144  1  0.58124054  0.91989303  0.56656156  1
  Se  Se145  1  0.91896989  0.24492819  0.05501350  1
  Se  Se146  1  0.92257061  0.26167364  0.55491573  1
  Se  Se147  1  0.92126725  0.57856953  0.05481647  1
  Se  Se148  1  0.92513928  0.59223270  0.56606372  1
  Se  Se149  1  0.91770088  0.91119170  0.05159825  1
  Se  Se150  1  0.91731630  0.91875185  0.55067888  1
  Se  Se151  1  0.08172683  0.24334174  0.44813635  1
  Se  Se152  1  0.08520446  0.24744673  0.94355004  1
  Se  Se153  1  0.08158928  0.58751052  0.44725065  1
  Se  Se154  1  0.08901476  0.57959693  0.94804650  1
  Se  Se155  1  0.07556044  0.92399475  0.43466596  1
  Se  Se156  1  0.08244625  0.92112541  0.94250241  1
  Se  Se157  1  0.41426115  0.24702609  0.44680231  1
  Se  Se158  1  0.40745325  0.25516596  0.93599128  1
  Se  Se159  1  0.41232816  0.57537864  0.44532211  1
  Se  Se160  1  0.41414995  0.58438307  0.94061254  1
  Se  Se161  1  0.39936857  0.92091633  0.44068648  1
  Se  Se162  1  0.41768129  0.91885913  0.95098487  1
  Se  Se163  1  0.74375993  0.25320572  0.44136238  1
  Se  Se164  1  0.75731765  0.24581177  0.95024425  1
  Se  Se165  1  0.74665184  0.58932335  0.44236724  1
  Se  Se166  1  0.76395949  0.57086700  0.95579972  1
  Se  Se167  1  0.74937615  0.91690345  0.45282868  1
  Se  Se168  1  0.75582179  0.91497193  0.94137308  1
  Se  Se169  1  0.24063398  0.08180446  0.44646972  1
  Se  Se170  1  0.24350621  0.08552338  0.94745584  1
  Se  Se171  1  0.24566997  0.41467919  0.44637191  1
  Se  Se172  1  0.24772417  0.41590151  0.93708644  1
  Se  Se173  1  0.25870890  0.74105939  0.44151300  1
  Se  Se174  1  0.25106479  0.74768419  0.93741092  1
  Se  Se175  1  0.57746035  0.07951932  0.45146522  1
  Se  Se176  1  0.59045812  0.08202007  0.93525117  1
  Se  Se177  1  0.58739698  0.41186369  0.43905585  1
  Se  Se178  1  0.57889506  0.41344229  0.95398782  1
  Se  Se179  1  0.58972338  0.74119234  0.43867810  1
  Se  Se180  1  0.57641344  0.75510580  0.94530088  1
  Se  Se181  1  0.92304182  0.08171900  0.43690818  1
  Se  Se182  1  0.91868096  0.08300891  0.94384765  1
  Se  Se183  1  0.92713416  0.41155864  0.44019413  1
  Se  Se184  1  0.92162441  0.41302106  0.95136887  1
  Se  Se185  1  0.91490176  0.75617314  0.44481767  1
  Se  Se186  1  0.91835825  0.75278832  0.95300248  1
  Se  Se187  1  0.24980817  0.25210160  0.30770792  1
  Se  Se188  1  0.23364223  0.23843030  0.80545172  1
  Se  Se189  1  0.24444623  0.57735635  0.30950276  1
  Se  Se190  1  0.25134467  0.58066948  0.79283097  1
  Se  Se191  1  0.24297854  0.91599289  0.29436668  1
  Se  Se192  1  0.25672685  0.91661049  0.80716478  1
  Se  Se193  1  0.58091213  0.24461754  0.31131870  1
  Se  Se194  1  0.57886908  0.24241407  0.80908666  1
  Se  Se195  1  0.57729870  0.58285015  0.29772085  1
  Se  Se196  1  0.59103615  0.58159746  0.80989410  1
  Se  Se197  1  0.57293566  0.90731056  0.30712056  1
  Se  Se198  1  0.59038285  0.91752995  0.80461932  1
  Se  Se199  1  0.92240472  0.25383940  0.29534621  1
  Se  Se200  1  0.92000201  0.25041387  0.80616366  1
  Se  Se201  1  0.92495911  0.58554624  0.30084092  1
  Se  Se202  1  0.91249345  0.58350729  0.82462905  1
  Se  Se203  1  0.91123202  0.91578848  0.30177076  1
  Se  Se204  1  0.92090518  0.91760261  0.80214616  1
  Se  Se205  1  0.08153696  0.08206664  0.29752205  1
  Se  Se206  1  0.07336513  0.07092683  0.80216634  1
  Se  Se207  1  0.08593659  0.41343883  0.30475154  1
  Se  Se208  1  0.08204468  0.42301065  0.79915095  1
  Se  Se209  1  0.08694359  0.75393085  0.29764663  1
  Se  Se210  1  0.09367884  0.75736186  0.81806395  1
  Se  Se211  1  0.41084503  0.08344691  0.30838149  1
  Se  Se212  1  0.41592998  0.07836606  0.80656824  1
  Se  Se213  1  0.41884956  0.41828163  0.29577032  1
  Se  Se214  1  0.42379162  0.42472173  0.80605915  1
  Se  Se215  1  0.42443430  0.75625109  0.30516514  1
  Se  Se216  1  0.41824649  0.74916746  0.80357520  1
  Se  Se217  1  0.76125218  0.09040854  0.30584927  1
  Se  Se218  1  0.75355664  0.08112976  0.80080451  1
  Se  Se219  1  0.76199967  0.42410752  0.30919027  1
  Se  Se220  1  0.75006773  0.42251819  0.82370608  1
  Se  Se221  1  0.75080839  0.75132390  0.30650814  1
  Se  Se222  1  0.75162938  0.74740504  0.80874248  1
  Se  Se223  1  0.25187375  0.08606568  0.19648303  1
  Se  Se224  1  0.26585626  0.07501887  0.70050535  1
  Se  Se225  1  0.25602183  0.41480825  0.19238603  1
  Se  Se226  1  0.24037772  0.41357339  0.68646297  1
  Se  Se227  1  0.24064498  0.75556889  0.18644076  1
  Se  Se228  1  0.25353431  0.74828041  0.69927069  1
  Se  Se229  1  0.57374694  0.09451261  0.19359188  1
  Se  Se230  1  0.58778493  0.08082141  0.69953433  1
  Se  Se231  1  0.58602823  0.42664502  0.18015970  1
  Se  Se232  1  0.57420201  0.42426382  0.69486392  1
  Se  Se233  1  0.57211274  0.76608430  0.18558696  1
  Se  Se234  1  0.59092968  0.74559897  0.70135468  1
  Se  Se235  1  0.92245748  0.07595492  0.19148103  1
  Se  Se236  1  0.92147932  0.08313279  0.69338754  1
  Se  Se237  1  0.92730827  0.40961891  0.19590873  1
  Se  Se238  1  0.91029634  0.42228166  0.70877944  1
  Se  Se239  1  0.91263278  0.74598719  0.19252452  1
  Se  Se240  1  0.91229416  0.75794516  0.69215014  1
  Se  Se241  1  0.08633617  0.25063910  0.19375011  1
  Se  Se242  1  0.07496693  0.25722298  0.69509066  1
  Se  Se243  1  0.08731457  0.57998172  0.19597250  1
  Se  Se244  1  0.08708242  0.58569920  0.69648200  1
  Se  Se245  1  0.08703675  0.91146287  0.19933653  1
  Se  Se246  1  0.08463114  0.91273392  0.70274272  1
  Se  Se247  1  0.41378750  0.25553567  0.19890925  1
  Se  Se248  1  0.41917550  0.24299286  0.69321089  1
  Se  Se249  1  0.42206631  0.58440855  0.17942070  1
  Se  Se250  1  0.41635216  0.57773825  0.69929566  1
  Se  Se251  1  0.41451181  0.92525390  0.20042868  1
  Se  Se252  1  0.42162742  0.91164337  0.69975237  1
  Se  Se253  1  0.75578302  0.24294943  0.18779076  1
  Se  Se254  1  0.75913389  0.24335119  0.69097556  1
  Se  Se255  1  0.76524260  0.57182695  0.18563467  1
  Se  Se256  1  0.75104357  0.58790685  0.70824804  1
  Se  Se257  1  0.75301912  0.91189316  0.18479862  1
  Se  Se258  1  0.75112122  0.91825332  0.69883421  1
