# generated using pymatgen
data_In86Cu29Se144
_symmetry_space_group_name_H-M   'P 1'
_cell_length_a   17.58667787
_cell_length_b   17.58557599
_cell_length_c   23.43338931
_cell_angle_alpha   90.00174317
_cell_angle_beta   90.00000180
_cell_angle_gamma   90.00945754
_symmetry_Int_Tables_number   1
_chemical_formula_structural   In86Cu29Se144
_chemical_formula_sum   'In86 Cu29 Se144'
_cell_volume   7247.28779687
_cell_formula_units_Z   1
loop_
 _symmetry_equiv_pos_site_id
 _symmetry_equiv_pos_as_xyz
  1  'x, y, z'
loop_
 _atom_site_type_symbol
 _atom_site_label
 _atom_site_symmetry_multiplicity
 _atom_site_fract_x
 _atom_site_fract_y
 _atom_site_fract_z
 _atom_site_occupancy
  In  In0  1  -0.00313307  0.16392183  0.13998195  1
  In  In1  1  -0.00074688  0.16563650  0.62448504  1
  In  In2  1  -0.00888057  0.49807294  0.12859650  1
  In  In3  1  -0.01589575  0.48606667  0.61289107  1
  In  In4  1  0.01362304  0.83155795  0.12466307  1
  In  In5  1  0.01248186  0.84181428  0.61640918  1
  In  In6  1  0.32377443  0.16253281  0.13189420  1
  In  In7  1  0.33155078  0.16496669  0.61758650  1
  In  In8  1  0.33456993  0.49585185  0.13044309  1
  In  In9  1  0.34003526  0.50477225  0.61926446  1
  In  In10  1  0.33214355  0.84691110  0.13000416  1
  In  In11  1  0.32419780  0.84377264  0.62980887  1
  In  In12  1  0.68086959  0.16675341  0.12903105  1
  In  In13  1  0.66734036  0.16976616  0.61896514  1
  In  In14  1  0.70552859  0.46755856  0.16375952  1
  In  In15  1  0.67281945  0.49658814  0.62023122  1
  In  In16  1  0.65733523  0.82795797  0.12944883  1
  In  In17  1  0.67685195  0.82486216  0.62905781  1
  In  In18  1  0.16606961  -0.00145713  0.37513156  1
  In  In19  1  0.15899584  -0.00683693  0.86808826  1
  In  In20  1  0.14915740  0.34531165  0.38059961  1
  In  In21  1  0.15335456  0.33824219  0.86932796  1
  In  In22  1  0.16551288  0.66831531  0.38168550  1
  In  In23  1  0.17899629  0.66934198  0.86981082  1
  In  In24  1  0.49675401  0.02228928  0.37437338  1
  In  In25  1  0.50107020  0.00487863  0.86081224  1
  In  In26  1  0.51354500  0.32158461  0.38975321  1
  In  In27  1  0.50735613  0.32261819  0.87068610  1
  In  In28  1  0.50411595  0.64970023  0.38306982  1
  In  In29  1  0.50328665  0.67117989  0.86392356  1
  In  In30  1  0.84415344  -0.00268573  0.38262983  1
  In  In31  1  0.83362141  -0.00138969  0.86274348  1
  In  In32  1  0.82548127  0.33522755  0.38207772  1
  In  In33  1  0.83952951  0.34396313  0.86674550  1
  In  In34  1  0.82917519  0.66785257  0.37967737  1
  In  In35  1  0.81997125  0.66128751  0.87306025  1
  In  In36  1  -0.00142229  0.16837136  0.38172593  1
  In  In37  1  -0.00105245  0.16817909  0.86386439  1
  In  In38  1  -0.00027970  0.49174671  0.37375069  1
  In  In39  1  -0.01048423  0.48531318  0.87207717  1
  In  In40  1  -0.00105544  0.83664534  0.37874093  1
  In  In41  1  0.00193615  0.84873053  0.87388149  1
  In  In42  1  0.34012332  0.15318250  0.37926025  1
  In  In43  1  0.34438583  0.16277753  0.86602114  1
  In  In44  1  0.33152621  0.50230557  0.38549725  1
  In  In45  1  0.31869999  0.50381363  0.86541993  1
  In  In46  1  0.31566299  0.84031358  0.37547609  1
  In  In47  1  0.32877204  0.83057163  0.86594366  1
  In  In48  1  0.65868877  0.18871567  0.39718158  1
  In  In49  1  0.66653295  0.16685688  0.86359443  1
  In  In50  1  0.66715485  0.49020123  0.38009003  1
  In  In51  1  0.67666700  0.50586403  0.86860001  1
  In  In52  1  0.68318293  0.83682028  0.37929451  1
  In  In53  1  0.66673702  0.83223944  0.86548002  1
  In  In54  1  0.17162079  -0.00998848  0.13752752  1
  In  In55  1  0.16726198  0.00242698  0.62277110  1
  In  In56  1  0.15979227  0.33224488  0.13702010  1
  In  In57  1  0.15412346  0.32290614  0.61529843  1
  In  In58  1  0.15738408  0.67653138  0.12593688  1
  In  In59  1  0.17188084  0.67398682  0.61768432  1
  In  In60  1  0.50239091  -0.01097092  0.12890092  1
  In  In61  1  0.49541096  0.01000345  0.62630184  1
  In  In62  1  0.50831170  0.34606137  0.12911091  1
  In  In63  1  0.52374257  0.34973445  0.60073694  1
  In  In64  1  0.51237121  0.67156428  0.12881728  1
  In  In65  1  0.51097603  0.65619697  0.63236860  1
  In  In66  1  0.83741070  0.01268334  0.12889635  1
  In  In67  1  0.83614844  0.00102230  0.62362016  1
  In  In68  1  0.83887336  0.32971165  0.13507462  1
  In  In69  1  0.83027632  0.33300535  0.62021352  1
  In  In70  1  0.83717653  0.64277076  0.12909126  1
  In  In71  1  0.82329154  0.65509030  0.61521593  1
  In  In72  1  0.33791813  0.66676702  0.25483304  1
  In  In73  1  0.33777060  0.33178216  0.74208918  1
  In  In74  1  0.15920750  0.16454678  -0.00763551  1
  In  In75  1  0.33659646  0.32493404  0.25684024  1
  In  In76  1  0.66886735  0.00431875  0.25442968  1
  In  In77  1  0.83337599  0.16885471  0.00244906  1
  In  In78  1  -0.00076522  0.66275832  0.25658062  1
  In  In79  1  0.50077867  0.16417610  -0.00731768  1
  In  In80  1  0.50239103  0.83404293  -0.00200243  1
  In  In81  1  0.15571014  0.50877006  0.01098687  1
  In  In82  1  0.50822720  0.51240997  -0.00497459  1
  In  In83  1  0.49681730  0.83528532  0.50972068  1
  In  In84  1  0.83424298  0.83030896  -0.00645195  1
  In  In85  1  -0.00026386  0.66782016  0.73834853  1
  Cu  Cu86  1  0.33053974  0.67649495  -0.00583301  1
  Cu  Cu87  1  0.67374706  0.65614093  0.00359142  1
  Cu  Cu88  1  0.50496187  0.49753962  0.74098079  1
  Cu  Cu89  1  0.16744477  0.83913585  0.74385455  1
  Cu  Cu90  1  0.83246086  0.16913587  0.26265539  1
  Cu  Cu91  1  0.33048859  0.66751300  0.50192592  1
  Cu  Cu92  1  0.50579966  0.17056642  0.73973104  1
  Cu  Cu93  1  0.00414902  0.66617281  0.00132799  1
  Cu  Cu94  1  0.67563073  0.00230374  0.50024194  1
  Cu  Cu95  1  0.49776990  0.83435599  0.25527162  1
  Cu  Cu96  1  0.82730513  0.49692572  0.74089726  1
  Cu  Cu97  1  0.16627261  0.16461994  0.74042688  1
  Cu  Cu98  1  0.16159358  0.16493667  0.25890845  1
  Cu  Cu99  1  0.83556790  0.83441398  0.74624375  1
  Cu  Cu100  1  0.16201595  0.49996076  0.74516170  1
  Cu  Cu101  1  0.49911662  0.83492400  0.74291667  1
  Cu  Cu102  1  0.66595159  0.66369722  0.50374332  1
  Cu  Cu103  1  0.83745436  0.82933550  0.25521721  1
  Cu  Cu104  1  0.32176606  0.34006766  0.00233475  1
  Cu  Cu105  1  0.32506830  0.32813585  0.49573422  1
  Cu  Cu106  1  0.32649448  -0.00404693  0.50144436  1
  Cu  Cu107  1  0.51058388  0.49432213  0.26148395  1
  Cu  Cu108  1  -0.00191812  0.66588154  0.49808614  1
  Cu  Cu109  1  0.83182306  0.16747955  0.74119817  1
  Cu  Cu110  1  0.00259823  0.00431762  0.50077363  1
  Cu  Cu111  1  0.00442099  0.00232516  -0.00026889  1
  Cu  Cu112  1  0.67407565  0.33635751  0.00609222  1
  Cu  Cu113  1  0.33039095  -0.00449554  0.00225913  1
  Cu  Cu114  1  -0.00269014  0.33298837  0.49875939  1
  Se  Se115  1  0.07956396  0.08044554  0.06412828  1
  Se  Se116  1  0.08610381  0.08730062  0.55443782  1
  Se  Se117  1  0.07478637  0.40411478  0.06036394  1
  Se  Se118  1  0.08440583  0.41885859  0.54856649  1
  Se  Se119  1  0.08790165  0.75360105  0.04780771  1
  Se  Se120  1  0.08438512  0.74976351  0.54839326  1
  Se  Se121  1  0.41125111  0.07788817  0.05959783  1
  Se  Se122  1  0.41470270  0.07963581  0.54959057  1
  Se  Se123  1  0.41357640  0.41586732  0.05394026  1
  Se  Se124  1  0.40839629  0.41183935  0.54967926  1
  Se  Se125  1  0.41227255  0.74559957  0.06060044  1
  Se  Se126  1  0.40972717  0.74187709  0.56759357  1
  Se  Se127  1  0.74039984  0.07125502  0.05362650  1
  Se  Se128  1  0.75733329  0.08665375  0.55389238  1
  Se  Se129  1  0.75354905  0.41404995  0.06650087  1
  Se  Se130  1  0.75088932  0.41479440  0.54907750  1
  Se  Se131  1  0.74899455  0.74436958  0.06153266  1
  Se  Se132  1  0.75083195  0.75232134  0.55001023  1
  Se  Se133  1  0.24759940  0.25463219  0.05960719  1
  Se  Se134  1  0.24410753  0.24382073  0.55009469  1
  Se  Se135  1  0.26168944  0.59459821  0.06170422  1
  Se  Se136  1  0.24717686  0.58008902  0.55246390  1
  Se  Se137  1  0.24624251  0.91676053  0.05691051  1
  Se  Se138  1  0.24325099  0.91187857  0.55275601  1
  Se  Se139  1  0.58876860  0.25377080  0.05909564  1
  Se  Se140  1  0.57439751  0.23377430  0.54671444  1
  Se  Se141  1  0.59729248  0.57948198  0.06776395  1
  Se  Se142  1  0.58154407  0.57986492  0.55455541  1
  Se  Se143  1  0.59623193  0.92460932  0.05449944  1
  Se  Se144  1  0.59439053  0.92394607  0.56264330  1
  Se  Se145  1  0.92768287  0.25092118  0.06217729  1
  Se  Se146  1  0.91806706  0.24891665  0.55483641  1
  Se  Se147  1  0.92190801  0.58041372  0.05148490  1
  Se  Se148  1  0.91210031  0.58063157  0.54697000  1
  Se  Se149  1  0.91928707  0.92282741  0.05787927  1
  Se  Se150  1  0.91897680  0.91885084  0.55279048  1
  Se  Se151  1  0.08501544  0.24904063  0.45025013  1
  Se  Se152  1  0.06705149  0.26023456  0.94128881  1
  Se  Se153  1  0.07828617  0.58203074  0.44236823  1
  Se  Se154  1  0.07863973  0.58823878  0.93317958  1
  Se  Se155  1  0.08375231  0.91768391  0.44716656  1
  Se  Se156  1  0.08783822  0.91779839  0.94790084  1
  Se  Se157  1  0.41309805  0.24451868  0.44799267  1
  Se  Se158  1  0.40289645  0.26185959  0.94175724  1
  Se  Se159  1  0.41656757  0.58145937  0.45499652  1
  Se  Se160  1  0.40558424  0.59202227  0.93518452  1
  Se  Se161  1  0.41416731  0.92183656  0.44101312  1
  Se  Se162  1  0.41421583  0.92506031  0.93750247  1
  Se  Se163  1  0.75180577  0.26040253  0.46169521  1
  Se  Se164  1  0.74329832  0.25461929  0.93918657  1
  Se  Se165  1  0.74722653  0.58236621  0.44667131  1
  Se  Se166  1  0.75506843  0.57412583  0.94828871  1
  Se  Se167  1  0.75911235  0.91528992  0.45221573  1
  Se  Se168  1  0.74467681  0.92243120  0.93696982  1
  Se  Se169  1  0.24662609  0.08154195  0.44680749  1
  Se  Se170  1  0.25974180  0.07872479  0.93765101  1
  Se  Se171  1  0.24366506  0.41788154  0.44803263  1
  Se  Se172  1  0.24381829  0.41879534  0.94226674  1
  Se  Se173  1  0.24937933  0.75219344  0.44898649  1
  Se  Se174  1  0.24696943  0.75845689  0.94237881  1
  Se  Se175  1  0.58479993  0.08112682  0.45100477  1
  Se  Se176  1  0.59220183  0.07409835  0.93689198  1
  Se  Se177  1  0.57001828  0.42911892  0.45042426  1
  Se  Se178  1  0.59146166  0.40890657  0.94126259  1
  Se  Se179  1  0.58739961  0.75014439  0.44489580  1
  Se  Se180  1  0.59451048  0.73778649  0.94287719  1
  Se  Se181  1  0.91456482  0.08828872  0.45269876  1
  Se  Se182  1  0.92206395  0.07730210  0.93867363  1
  Se  Se183  1  0.91554913  0.41941840  0.44710050  1
  Se  Se184  1  0.90864828  0.41702531  0.94665787  1
  Se  Se185  1  0.91578371  0.75111138  0.44502068  1
  Se  Se186  1  0.92617450  0.74022589  0.93391275  1
  Se  Se187  1  0.24138371  0.24560981  0.31912720  1
  Se  Se188  1  0.24272424  0.24560562  0.80631083  1
  Se  Se189  1  0.24466477  0.57749890  0.31020698  1
  Se  Se190  1  0.24695769  0.58684052  0.79248851  1
  Se  Se191  1  0.25065687  0.92412472  0.30166967  1
  Se  Se192  1  0.25145217  0.92131528  0.79986252  1
  Se  Se193  1  0.58177274  0.24190197  0.31267953  1
  Se  Se194  1  0.58729522  0.25366712  0.79515653  1
  Se  Se195  1  0.59087584  0.58409425  0.30989279  1
  Se  Se196  1  0.58379903  0.57998705  0.80179572  1
  Se  Se197  1  0.57862306  0.91356751  0.31646573  1
  Se  Se198  1  0.58414483  0.91588909  0.79858132  1
  Se  Se199  1  0.91511636  0.25363347  0.31468651  1
  Se  Se200  1  0.91214155  0.25039802  0.79961630  1
  Se  Se201  1  0.90318592  0.57424889  0.30841286  1
  Se  Se202  1  0.90946219  0.57915438  0.80154825  1
  Se  Se203  1  0.91687395  0.91621524  0.30653299  1
  Se  Se204  1  0.92148359  0.91710307  0.79746525  1
  Se  Se205  1  0.07618578  0.08224833  0.31067443  1
  Se  Se206  1  0.08518426  0.08399227  0.80035773  1
  Se  Se207  1  0.08046801  0.41645051  0.30009106  1
  Se  Se208  1  0.07678941  0.41840433  0.79717048  1
  Se  Se209  1  0.09186516  0.75754813  0.30773912  1
  Se  Se210  1  0.08624723  0.75658199  0.80446065  1
  Se  Se211  1  0.41531729  0.08755035  0.29822337  1
  Se  Se212  1  0.41882587  0.08668603  0.79105948  1
  Se  Se213  1  0.42127114  0.41891947  0.31722496  1
  Se  Se214  1  0.42505298  0.42336720  0.80834390  1
  Se  Se215  1  0.42408968  0.75428794  0.32027392  1
  Se  Se216  1  0.41620818  0.75138309  0.79869418  1
  Se  Se217  1  0.75125582  0.08880360  0.32169333  1
  Se  Se218  1  0.75018455  0.08307714  0.79735555  1
  Se  Se219  1  0.74650678  0.41222545  0.30690573  1
  Se  Se220  1  0.74591822  0.41421775  0.79832916  1
  Se  Se221  1  0.74992039  0.74976610  0.30581292  1
  Se  Se222  1  0.75315110  0.74936917  0.80019421  1
  Se  Se223  1  0.24650280  0.08402417  0.20336690  1
  Se  Se224  1  0.25446457  0.08401429  0.69135294  1
  Se  Se225  1  0.24583056  0.42378301  0.20086527  1
  Se  Se226  1  0.24220346  0.41810252  0.68498055  1
  Se  Se227  1  0.24643597  0.75653305  0.19561413  1
  Se  Se228  1  0.24791431  0.74903847  0.69500666  1
  Se  Se229  1  0.57871021  0.09023615  0.19055272  1
  Se  Se230  1  0.59022991  0.08287537  0.69162692  1
  Se  Se231  1  0.58777861  0.40277713  0.21063008  1
  Se  Se232  1  0.58639827  0.41316942  0.68894010  1
  Se  Se233  1  0.58329229  0.75068756  0.20541896  1
  Se  Se234  1  0.58682367  0.74889296  0.69701616  1
  Se  Se235  1  0.91198397  0.08212503  0.20771945  1
  Se  Se236  1  0.91921774  0.08145476  0.69512343  1
  Se  Se237  1  0.91625654  0.41954134  0.20103402  1
  Se  Se238  1  0.91478791  0.41292570  0.69323577  1
  Se  Se239  1  0.91222392  0.75181825  0.18818512  1
  Se  Se240  1  0.90928104  0.75621706  0.67989544  1
  Se  Se241  1  0.08015644  0.24984602  0.20549789  1
  Se  Se242  1  0.08055483  0.25185196  0.69515192  1
  Se  Se243  1  0.09230848  0.57709456  0.19237949  1
  Se  Se244  1  0.08394233  0.57403141  0.67908595  1
  Se  Se245  1  0.06733663  0.92498853  0.19741927  1
  Se  Se246  1  0.08183381  0.92194363  0.69373918  1
  Se  Se247  1  0.42534013  0.24528714  0.18742848  1
  Se  Se248  1  0.42909902  0.25267607  0.67804522  1
  Se  Se249  1  0.43239610  0.57220728  0.19636411  1
  Se  Se250  1  0.41416831  0.58117440  0.69676003  1
  Se  Se251  1  0.41739970  0.91905283  0.20229685  1
  Se  Se252  1  0.41615762  0.92138411  0.69375506  1
  Se  Se253  1  0.75181612  0.24771869  0.20284449  1
  Se  Se254  1  0.74755084  0.25168446  0.69102535  1
  Se  Se255  1  0.73356299  0.60223678  0.19932047  1
  Se  Se256  1  0.74471413  0.58602450  0.69346267  1
  Se  Se257  1  0.75727791  0.90998534  0.19192527  1
  Se  Se258  1  0.75160849  0.91897523  0.69411171  1
