# generated using pymatgen
data_In86Cu29Se144
_symmetry_space_group_name_H-M   'P 1'
_cell_length_a   17.57378044
_cell_length_b   17.57362816
_cell_length_c   23.42640257
_cell_angle_alpha   89.97418261
_cell_angle_beta   90.00438406
_cell_angle_gamma   90.01020232
_symmetry_Int_Tables_number   1
_chemical_formula_structural   In86Cu29Se144
_chemical_formula_sum   'In86 Cu29 Se144'
_cell_volume   7234.89410872
_cell_formula_units_Z   1
loop_
 _symmetry_equiv_pos_site_id
 _symmetry_equiv_pos_as_xyz
  1  'x, y, z'
loop_
 _atom_site_type_symbol
 _atom_site_label
 _atom_site_symmetry_multiplicity
 _atom_site_fract_x
 _atom_site_fract_y
 _atom_site_fract_z
 _atom_site_occupancy
  In  In0  1  0.01219695  0.17513080  0.12848767  1
  In  In1  1  0.00418558  0.16776342  0.62645961  1
  In  In2  1  0.00409040  0.50010848  0.12325718  1
  In  In3  1  0.00800422  0.49159012  0.63444983  1
  In  In4  1  -0.01136066  0.82002910  0.11020402  1
  In  In5  1  0.01168579  0.82360218  0.63602452  1
  In  In6  1  0.32805910  0.17100313  0.12649063  1
  In  In7  1  0.33893027  0.18128915  0.61422843  1
  In  In8  1  0.32858802  0.51562353  0.12275213  1
  In  In9  1  0.33238523  0.49471068  0.61873973  1
  In  In10  1  0.31574225  0.80341717  0.09660324  1
  In  In11  1  0.33195551  0.82986121  0.62929035  1
  In  In12  1  0.65962804  0.16187920  0.12508969  1
  In  In13  1  0.67010008  0.16690350  0.62781685  1
  In  In14  1  0.67158548  0.48682741  0.12440408  1
  In  In15  1  0.64564038  0.51413802  0.63107705  1
  In  In16  1  0.66196743  0.82100228  0.10946823  1
  In  In17  1  0.65729809  0.82861966  0.63638512  1
  In  In18  1  0.17409203  -0.00560371  0.38717686  1
  In  In19  1  0.15381425  -0.00208787  0.86371000  1
  In  In20  1  0.15401077  0.34742850  0.39395807  1
  In  In21  1  0.17906123  0.34342522  0.85940417  1
  In  In22  1  0.16245780  0.66880188  0.38259537  1
  In  In23  1  0.16976049  0.66613597  0.87207780  1
  In  In24  1  0.49578729  0.00394936  0.38921053  1
  In  In25  1  0.49887963  -0.02355873  0.85781859  1
  In  In26  1  0.48906971  0.34677173  0.40423859  1
  In  In27  1  0.49687604  0.33550635  0.86094800  1
  In  In28  1  0.51001344  0.66516182  0.39478936  1
  In  In29  1  0.50697667  0.68085405  0.85646308  1
  In  In30  1  0.84538771  0.00610142  0.37771306  1
  In  In31  1  0.82625013  -0.01041741  0.86568304  1
  In  In32  1  0.82901323  0.33375266  0.37955424  1
  In  In33  1  0.84605324  0.34741973  0.86545917  1
  In  In34  1  0.85059750  0.65823319  0.37801513  1
  In  In35  1  0.83414144  0.66414157  0.87354778  1
  In  In36  1  -0.01437643  0.17914486  0.38807182  1
  In  In37  1  0.01648945  0.17084538  0.85763726  1
  In  In38  1  0.00687153  0.51037859  0.36714500  1
  In  In39  1  0.00062667  0.50241082  0.87288941  1
  In  In40  1  0.00992916  0.82780222  0.37922266  1
  In  In41  1  0.00083739  0.82990717  0.87338515  1
  In  In42  1  0.32275250  0.18308846  0.40834587  1
  In  In43  1  0.31834134  0.17842905  0.86393889  1
  In  In44  1  0.32675910  0.49426157  0.39166858  1
  In  In45  1  0.32613252  0.49781352  0.86790054  1
  In  In46  1  0.33199216  0.83234619  0.38612750  1
  In  In47  1  0.34658174  0.81509332  0.88157819  1
  In  In48  1  0.66183984  0.17881378  0.39459416  1
  In  In49  1  0.66657318  0.16398733  0.85957226  1
  In  In50  1  0.67029360  0.50044607  0.37793193  1
  In  In51  1  0.67222256  0.50840634  0.86342008  1
  In  In52  1  0.65335666  0.82878772  0.37827229  1
  In  In53  1  0.66817597  0.83031114  0.86725576  1
  In  In54  1  0.17698090  -0.00452948  0.12300988  1
  In  In55  1  0.15978802  -0.00571075  0.62438920  1
  In  In56  1  0.14787669  0.33377113  0.12842125  1
  In  In57  1  0.16429060  0.33539578  0.62243718  1
  In  In58  1  0.15410638  0.64670991  0.10199124  1
  In  In59  1  0.16855449  0.66612927  0.62695087  1
  In  In60  1  0.50927794  -0.01282211  0.12703764  1
  In  In61  1  0.50666415  0.00222206  0.62653103  1
  In  In62  1  0.50939138  0.33314341  0.12595843  1
  In  In63  1  0.49516204  0.33950121  0.62323027  1
  In  In64  1  0.49063250  0.67008850  0.12238713  1
  In  In65  1  0.50038419  0.66182637  0.62457178  1
  In  In66  1  0.84279029  -0.00595195  0.12040889  1
  In  In67  1  0.82756384  0.00819219  0.63323722  1
  In  In68  1  0.84500196  0.34682078  0.11932887  1
  In  In69  1  0.84468684  0.32512288  0.63261301  1
  In  In70  1  0.83907374  0.66788470  0.11674933  1
  In  In71  1  0.82756002  0.67046658  0.63581054  1
  In  In72  1  0.33271609  0.00589561  0.74052628  1
  In  In73  1  0.82975463  0.50272536  0.50277827  1
  In  In74  1  0.49973066  0.50797040  -0.00449117  1
  In  In75  1  0.67173769  0.66264774  0.25402775  1
  In  In76  1  0.33535290  0.66536420  0.24754068  1
  In  In77  1  0.49362456  0.15539574  -0.00522668  1
  In  In78  1  0.67017287  0.33896682  0.25923537  1
  In  In79  1  0.66951192  0.00368770  0.25004836  1
  In  In80  1  0.16277531  0.16193636  -0.00735395  1
  In  In81  1  0.32719437  0.34165175  0.27261557  1
  In  In82  1  0.83207341  0.15721394  -0.00596873  1
  In  In83  1  0.33879131  -0.00339191  0.25298785  1
  In  In84  1  0.00301941  0.00191764  0.24723919  1
  In  In85  1  0.82362346  0.84100601  0.51485124  1
  Cu  Cu86  1  -0.00628803  -0.00739845  -0.00925424  1
  Cu  Cu87  1  0.32899953  0.34182979  -0.00663298  1
  Cu  Cu88  1  0.49988964  0.17014334  0.73993606  1
  Cu  Cu89  1  0.48914735  0.83264724  0.24997926  1
  Cu  Cu90  1  0.67478652  0.33649946  -0.00892799  1
  Cu  Cu91  1  0.48554680  0.17859303  0.26509047  1
  Cu  Cu92  1  0.32679290  0.66948036  0.50848964  1
  Cu  Cu93  1  0.33242862  -0.00518026  0.51175913  1
  Cu  Cu94  1  0.33579986  -0.01164397  -0.00795418  1
  Cu  Cu95  1  0.48793412  0.49583625  0.74499243  1
  Cu  Cu96  1  0.67050856  -0.00093788  0.51005568  1
  Cu  Cu97  1  0.17004390  0.49947380  0.24849102  1
  Cu  Cu98  1  0.83070734  0.17924864  0.25623339  1
  Cu  Cu99  1  0.17063150  0.83082431  0.75361363  1
  Cu  Cu100  1  0.67051987  0.66415425  -0.01158654  1
  Cu  Cu101  1  0.83948236  0.82928670  0.75199540  1
  Cu  Cu102  1  0.00193729  0.34471966  -0.00428555  1
  Cu  Cu103  1  0.00082186  0.00236838  0.50362177  1
  Cu  Cu104  1  0.66254185  -0.01487169  -0.01207357  1
  Cu  Cu105  1  0.15520933  0.16843180  0.26169538  1
  Cu  Cu106  1  0.83906216  0.16596714  0.74769187  1
  Cu  Cu107  1  0.16444604  0.50347344  0.74528807  1
  Cu  Cu108  1  0.82781272  0.49737925  0.74931315  1
  Cu  Cu109  1  0.00025236  0.33441601  0.50818940  1
  Cu  Cu110  1  0.83429719  0.82752029  0.24367938  1
  Cu  Cu111  1  0.00171145  0.66373347  -0.00831169  1
  Cu  Cu112  1  0.66929633  0.33646517  0.51325599  1
  Cu  Cu113  1  0.00369551  0.66601604  0.50737311  1
  Cu  Cu114  1  0.15909612  0.82220733  0.24901314  1
  Se  Se115  1  0.07192557  0.07187026  0.05673451  1
  Se  Se116  1  0.08565878  0.08491946  0.55518638  1
  Se  Se117  1  0.08995889  0.42027519  0.05135087  1
  Se  Se118  1  0.08317136  0.42537347  0.55337145  1
  Se  Se119  1  0.08451586  0.75176010  0.04390115  1
  Se  Se120  1  0.08684050  0.75281615  0.55665365  1
  Se  Se121  1  0.40509456  0.06943619  0.06179181  1
  Se  Se122  1  0.41892362  0.08022738  0.55836740  1
  Se  Se123  1  0.41346242  0.41107608  0.05856692  1
  Se  Se124  1  0.42981064  0.42937907  0.55048809  1
  Se  Se125  1  0.43288857  0.75328427  0.04458324  1
  Se  Se126  1  0.41462868  0.75025015  0.55857076  1
  Se  Se127  1  0.73583141  0.06711876  0.05455545  1
  Se  Se128  1  0.75467615  0.08614573  0.55647665  1
  Se  Se129  1  0.75402401  0.41681536  0.04886712  1
  Se  Se130  1  0.74892343  0.41870862  0.57227766  1
  Se  Se131  1  0.75403114  0.74577142  0.04591332  1
  Se  Se132  1  0.73738646  0.73856181  0.56127240  1
  Se  Se133  1  0.25088032  0.25749229  0.05497546  1
  Se  Se134  1  0.25534880  0.26687301  0.54888973  1
  Se  Se135  1  0.27021416  0.59745536  0.04525094  1
  Se  Se136  1  0.24275536  0.58029930  0.55456238  1
  Se  Se137  1  0.24373805  0.91465161  0.04646308  1
  Se  Se138  1  0.24682033  0.91002536  0.55976925  1
  Se  Se139  1  0.59057024  0.25356711  0.04827615  1
  Se  Se140  1  0.58480094  0.25050067  0.56119816  1
  Se  Se141  1  0.59560257  0.58962941  0.05991654  1
  Se  Se142  1  0.57580927  0.58046001  0.54930527  1
  Se  Se143  1  0.57713246  0.91078493  0.04771458  1
  Se  Se144  1  0.58836779  0.91382750  0.56054665  1
  Se  Se145  1  0.92696567  0.25018696  0.05110772  1
  Se  Se146  1  0.91577802  0.24706179  0.55557233  1
  Se  Se147  1  0.92330570  0.58216475  0.05208893  1
  Se  Se148  1  0.92059910  0.58841753  0.56619907  1
  Se  Se149  1  0.90881031  0.91164895  0.04477304  1
  Se  Se150  1  0.92589420  0.92150499  0.56841811  1
  Se  Se151  1  0.08202373  0.24693671  0.45472164  1
  Se  Se152  1  0.08103924  0.26157287  0.93609889  1
  Se  Se153  1  0.07988273  0.58120064  0.44801577  1
  Se  Se154  1  0.08784220  0.58051563  0.94181767  1
  Se  Se155  1  0.08065442  0.91528982  0.44980615  1
  Se  Se156  1  0.08541313  0.91684852  0.94065620  1
  Se  Se157  1  0.44475443  0.22759577  0.45723975  1
  Se  Se158  1  0.40891416  0.25602455  0.93862898  1
  Se  Se159  1  0.40890249  0.58789094  0.45132252  1
  Se  Se160  1  0.41932696  0.58991695  0.92644216  1
  Se  Se161  1  0.41515818  0.91501508  0.45327134  1
  Se  Se162  1  0.42679860  0.91257361  0.94170247  1
  Se  Se163  1  0.75518079  0.25823821  0.45672551  1
  Se  Se164  1  0.74903528  0.25097145  0.93192810  1
  Se  Se165  1  0.74409219  0.60074819  0.44392010  1
  Se  Se166  1  0.75239050  0.57525901  0.94181481  1
  Se  Se167  1  0.74429618  0.92540948  0.43886932  1
  Se  Se168  1  0.75491069  0.90729933  0.94046704  1
  Se  Se169  1  0.24532900  0.07907383  0.46018587  1
  Se  Se170  1  0.25899669  0.07423325  0.93482314  1
  Se  Se171  1  0.27167160  0.38578195  0.45430490  1
  Se  Se172  1  0.24319526  0.42072460  0.94145266  1
  Se  Se173  1  0.24429093  0.75127346  0.45086571  1
  Se  Se174  1  0.24084977  0.75676348  0.94239359  1
  Se  Se175  1  0.58613812  0.08146142  0.45496862  1
  Se  Se176  1  0.58652367  0.07422581  0.93181626  1
  Se  Se177  1  0.59680589  0.42349636  0.45402307  1
  Se  Se178  1  0.58462777  0.41137720  0.93559490  1
  Se  Se179  1  0.57286469  0.76841388  0.45624827  1
  Se  Se180  1  0.58586647  0.74642708  0.93732367  1
  Se  Se181  1  0.91199742  0.08503666  0.45513623  1
  Se  Se182  1  0.92662594  0.08158265  0.92902863  1
  Se  Se183  1  0.92565162  0.41702797  0.44320105  1
  Se  Se184  1  0.91366830  0.42377438  0.94520851  1
  Se  Se185  1  0.91838034  0.75057188  0.45320784  1
  Se  Se186  1  0.91619615  0.74848371  0.94221786  1
  Se  Se187  1  0.23883078  0.24183373  0.32331040  1
  Se  Se188  1  0.24257810  0.24948748  0.78877501  1
  Se  Se189  1  0.24796617  0.57693297  0.31240449  1
  Se  Se190  1  0.24945101  0.58559056  0.79881705  1
  Se  Se191  1  0.24116648  0.90416769  0.30718965  1
  Se  Se192  1  0.25490841  0.91374871  0.80936920  1
  Se  Se193  1  0.57414849  0.25491925  0.32013151  1
  Se  Se194  1  0.58322690  0.25230024  0.79648256  1
  Se  Se195  1  0.57409549  0.58024898  0.31249550  1
  Se  Se196  1  0.57599971  0.57656739  0.79715073  1
  Se  Se197  1  0.56936587  0.91719144  0.30727553  1
  Se  Se198  1  0.60361264  0.92287597  0.79446151  1
  Se  Se199  1  0.91701332  0.25809493  0.30923015  1
  Se  Se200  1  0.91954014  0.25196895  0.80076661  1
  Se  Se201  1  0.91827992  0.58611039  0.29972556  1
  Se  Se202  1  0.91334720  0.57964929  0.80298747  1
  Se  Se203  1  0.91192413  0.90843570  0.30597116  1
  Se  Se204  1  0.92299289  0.91662587  0.80206818  1
  Se  Se205  1  0.08150706  0.08253835  0.32117454  1
  Se  Se206  1  0.10130358  0.09273461  0.79073220  1
  Se  Se207  1  0.09212291  0.41669837  0.30797447  1
  Se  Se208  1  0.08068347  0.42095382  0.80071708  1
  Se  Se209  1  0.07909537  0.74146739  0.30612006  1
  Se  Se210  1  0.08281978  0.74751417  0.80376507  1
  Se  Se211  1  0.40770606  0.09276706  0.32191091  1
  Se  Se212  1  0.42347415  0.09364896  0.80783278  1
  Se  Se213  1  0.42951159  0.42959886  0.31978210  1
  Se  Se214  1  0.40377717  0.41145156  0.79757482  1
  Se  Se215  1  0.42159215  0.75066431  0.31543089  1
  Se  Se216  1  0.40871654  0.75317061  0.79451857  1
  Se  Se217  1  0.75175864  0.09632073  0.31493041  1
  Se  Se218  1  0.75320923  0.07962439  0.79672139  1
  Se  Se219  1  0.76719617  0.43447275  0.30666797  1
  Se  Se220  1  0.74354345  0.40932052  0.80002188  1
  Se  Se221  1  0.75822429  0.75877996  0.31376190  1
  Se  Se222  1  0.75294256  0.74452506  0.80159770  1
  Se  Se223  1  0.23848844  0.09293272  0.19994404  1
  Se  Se224  1  0.24632072  0.09556081  0.68108525  1
  Se  Se225  1  0.25065698  0.41759504  0.19047760  1
  Se  Se226  1  0.24689501  0.41938436  0.69214348  1
  Se  Se227  1  0.24146153  0.74826487  0.18629952  1
  Se  Se228  1  0.25063997  0.74760348  0.69843733  1
  Se  Se229  1  0.56361012  0.09581779  0.20075803  1
  Se  Se230  1  0.58777798  0.08280759  0.69729604  1
  Se  Se231  1  0.57370030  0.42625077  0.19902175  1
  Se  Se232  1  0.58003700  0.41467170  0.69724028  1
  Se  Se233  1  0.57834939  0.75563849  0.19387899  1
  Se  Se234  1  0.58383449  0.73452752  0.69973830  1
  Se  Se235  1  0.90612761  0.09671213  0.19202820  1
  Se  Se236  1  0.92402461  0.08122780  0.69704180  1
  Se  Se237  1  0.93214616  0.40788001  0.19241465  1
  Se  Se238  1  0.91734876  0.41600751  0.70104109  1
  Se  Se239  1  0.91955260  0.74689739  0.19111261  1
  Se  Se240  1  0.92252126  0.74310194  0.70107815  1
  Se  Se241  1  0.07762112  0.25474681  0.20689113  1
  Se  Se242  1  0.06892016  0.26849043  0.69077622  1
  Se  Se243  1  0.09375894  0.58342978  0.18993852  1
  Se  Se244  1  0.07891728  0.59101440  0.69701212  1
  Se  Se245  1  0.08585656  0.90675275  0.18575486  1
  Se  Se246  1  0.08694083  0.91677020  0.70257666  1
  Se  Se247  1  0.41353841  0.25537504  0.19789497  1
  Se  Se248  1  0.41310401  0.25453885  0.69313109  1
  Se  Se249  1  0.43032730  0.57074275  0.19547191  1
  Se  Se250  1  0.40924312  0.58103428  0.69032943  1
  Se  Se251  1  0.40851007  0.90179088  0.18356554  1
  Se  Se252  1  0.42833508  0.90903194  0.69525924  1
  Se  Se253  1  0.75073171  0.24874690  0.18753657  1
  Se  Se254  1  0.75144338  0.24950625  0.69811049  1
  Se  Se255  1  0.75693484  0.57762016  0.18833557  1
  Se  Se256  1  0.74342726  0.58208153  0.69857673  1
  Se  Se257  1  0.75121680  0.90766510  0.18644414  1
  Se  Se258  1  0.75597487  0.90834939  0.69495228  1
