# generated using pymatgen
data_In86Cu29Se144
_symmetry_space_group_name_H-M   'P 1'
_cell_length_a   17.57841001
_cell_length_b   17.57450542
_cell_length_c   23.43295521
_cell_angle_alpha   90.00051034
_cell_angle_beta   89.98570510
_cell_angle_gamma   90.00378623
_symmetry_Int_Tables_number   1
_chemical_formula_structural   In86Cu29Se144
_chemical_formula_sum   'In86 Cu29 Se144'
_cell_volume   7239.18624624
_cell_formula_units_Z   1
loop_
 _symmetry_equiv_pos_site_id
 _symmetry_equiv_pos_as_xyz
  1  'x, y, z'
loop_
 _atom_site_type_symbol
 _atom_site_label
 _atom_site_symmetry_multiplicity
 _atom_site_fract_x
 _atom_site_fract_y
 _atom_site_fract_z
 _atom_site_occupancy
  In  In0  1  -0.00456706  0.18017365  0.11901799  1
  In  In1  1  -0.00114892  0.16774255  0.62619065  1
  In  In2  1  0.01225071  0.52450749  0.10632550  1
  In  In3  1  0.00593810  0.50542398  0.62480198  1
  In  In4  1  0.00293463  0.80935338  0.12563805  1
  In  In5  1  -0.00500818  0.82224947  0.61881172  1
  In  In6  1  0.32228973  0.15381745  0.12855775  1
  In  In7  1  0.31749889  0.16453876  0.62587015  1
  In  In8  1  0.33720405  0.51321600  0.12298216  1
  In  In9  1  0.33810460  0.51265251  0.62101405  1
  In  In10  1  0.32769583  0.83845944  0.13003249  1
  In  In11  1  0.33287036  0.83472151  0.62330259  1
  In  In12  1  0.67040698  0.15370560  0.12120721  1
  In  In13  1  0.68367114  0.16949179  0.62646676  1
  In  In14  1  0.67803046  0.50439936  0.12522511  1
  In  In15  1  0.65848294  0.49448790  0.62260528  1
  In  In16  1  0.65964164  0.84007245  0.14201371  1
  In  In17  1  0.66649071  0.82790987  0.61154179  1
  In  In18  1  0.17960242  -0.01453147  0.38726049  1
  In  In19  1  0.16694776  -0.01852381  0.87645778  1
  In  In20  1  0.16189027  0.33712411  0.38762876  1
  In  In21  1  0.15455592  0.37385576  0.87696072  1
  In  In22  1  0.16704260  0.66557093  0.37391691  1
  In  In23  1  0.16744066  0.66169072  0.86482203  1
  In  In24  1  0.48331943  -0.02913708  0.35461052  1
  In  In25  1  0.49601705  0.00451065  0.87219443  1
  In  In26  1  0.51101566  0.34021817  0.38072230  1
  In  In27  1  0.49622706  0.32458364  0.86851840  1
  In  In28  1  0.49690526  0.67500497  0.37578474  1
  In  In29  1  0.48257148  0.67608654  0.87354930  1
  In  In30  1  0.82386037  0.00600177  0.37926355  1
  In  In31  1  0.83464543  0.00338278  0.88062386  1
  In  In32  1  0.83288792  0.33263604  0.38714371  1
  In  In33  1  0.83783902  0.33293813  0.86188382  1
  In  In34  1  0.83757670  0.66560705  0.37805451  1
  In  In35  1  0.83517831  0.65074540  0.87825038  1
  In  In36  1  -0.00328504  0.16972130  0.38713266  1
  In  In37  1  -0.01829269  0.17259091  0.86987012  1
  In  In38  1  -0.00785248  0.50526424  0.38317059  1
  In  In39  1  0.00238652  0.49635609  0.85933183  1
  In  In40  1  0.01375194  0.82151453  0.38292088  1
  In  In41  1  0.01560508  0.82898778  0.87733470  1
  In  In42  1  0.33573156  0.15187802  0.37833348  1
  In  In43  1  0.33859725  0.16723222  0.86931618  1
  In  In44  1  0.32063546  0.51685794  0.38440743  1
  In  In45  1  0.29357143  0.50948763  0.87818753  1
  In  In46  1  0.33383206  0.82436874  0.37382042  1
  In  In47  1  0.32038253  0.80831587  0.85350016  1
  In  In48  1  0.67713914  0.15953704  0.37675533  1
  In  In49  1  0.66541776  0.17311501  0.86953011  1
  In  In50  1  0.65839989  0.51287555  0.38698986  1
  In  In51  1  0.68402766  0.50170553  0.87487931  1
  In  In52  1  0.66663097  0.83336194  0.37587702  1
  In  In53  1  0.66510104  0.83618565  0.87588012  1
  In  In54  1  0.18245628  -0.00747341  0.12757893  1
  In  In55  1  0.17504741  0.00646366  0.61991931  1
  In  In56  1  0.15295069  0.33553081  0.11996803  1
  In  In57  1  0.15952092  0.33216456  0.62501573  1
  In  In58  1  0.16542736  0.67046967  0.12312688  1
  In  In59  1  0.16428692  0.66458098  0.62251068  1
  In  In60  1  0.50213577  -0.00961537  0.13676696  1
  In  In61  1  0.49484013  -0.01865627  0.62073914  1
  In  In62  1  0.50675143  0.34047080  0.12609789  1
  In  In63  1  0.49755945  0.35100278  0.62861834  1
  In  In64  1  0.48699081  0.68787424  0.15135062  1
  In  In65  1  0.49632671  0.66843722  0.61908250  1
  In  In66  1  0.82322649  0.00277950  0.12107825  1
  In  In67  1  0.83188044  -0.00105131  0.61399976  1
  In  In68  1  0.84073032  0.34491219  0.11256607  1
  In  In69  1  0.83403274  0.33339360  0.62947898  1
  In  In70  1  0.83956879  0.66067331  0.13552878  1
  In  In71  1  0.84690363  0.67329555  0.61900322  1
  In  In72  1  0.00166189  -0.00137116  0.74755347  1
  In  In73  1  0.49736052  0.83849975  0.00794581  1
  In  In74  1  0.50428241  0.16267259  -0.00711153  1
  In  In75  1  -0.00122249  0.33943162  0.24589286  1
  In  In76  1  0.83989077  0.82613979  0.00231113  1
  In  In77  1  0.50418162  0.16663916  0.49520809  1
  In  In78  1  0.67294059  0.33506862  0.25546647  1
  In  In79  1  0.16499017  0.17039757  -0.00060819  1
  In  In80  1  0.66041820  0.00006888  0.74986960  1
  In  In81  1  0.50721991  0.50288154  0.00717103  1
  In  In82  1  0.66442588  0.66276080  0.74467698  1
  In  In83  1  0.32729006  0.33895664  0.75081438  1
  In  In84  1  0.33503516  0.33421546  0.24823010  1
  In  In85  1  0.00054442  -0.00449003  0.25723984  1
  Cu  Cu86  1  0.16909821  0.82710448  0.25421099  1
  Cu  Cu87  1  0.66179518  -0.00326395  0.49544219  1
  Cu  Cu88  1  0.83535986  0.50882804  0.25316991  1
  Cu  Cu89  1  0.16459560  0.50893442  0.24854152  1
  Cu  Cu90  1  0.33180314  -0.00468600  0.49639596  1
  Cu  Cu91  1  0.49971352  0.16376461  0.74855633  1
  Cu  Cu92  1  0.17250535  0.15681588  0.25811275  1
  Cu  Cu93  1  0.83865096  0.49589859  0.74687401  1
  Cu  Cu94  1  -0.00281619  -0.00065047  0.50162056  1
  Cu  Cu95  1  -0.00073893  0.33289448  0.50962832  1
  Cu  Cu96  1  0.66615098  0.66945536  0.00892341  1
  Cu  Cu97  1  0.50034477  0.50045095  0.75009275  1
  Cu  Cu98  1  0.49657110  0.50922524  0.25997796  1
  Cu  Cu99  1  -0.00875611  0.34009337  -0.01093445  1
  Cu  Cu100  1  0.33146809  0.33862979  0.50857285  1
  Cu  Cu101  1  0.17084416  0.82821291  0.74653425  1
  Cu  Cu102  1  0.33174626  0.67162738  0.49899039  1
  Cu  Cu103  1  0.32250143  0.66521747  -0.00238002  1
  Cu  Cu104  1  0.50116394  0.15708949  0.24954859  1
  Cu  Cu105  1  0.67445999  0.33269110  -0.00782740  1
  Cu  Cu106  1  0.16540990  0.16651078  0.74970335  1
  Cu  Cu107  1  0.66995812  0.33638853  0.50410765  1
  Cu  Cu108  1  0.83164826  0.16856073  0.24812192  1
  Cu  Cu109  1  0.83289635  0.83291950  0.74721988  1
  Cu  Cu110  1  0.00568766  0.66279680  0.49983578  1
  Cu  Cu111  1  0.33576893  -0.00866686  0.00077043  1
  Cu  Cu112  1  0.67454752  0.66433634  0.49727477  1
  Cu  Cu113  1  0.00222597  -0.00157658  -0.00230270  1
  Cu  Cu114  1  0.83205617  0.83004892  0.25404880  1
  Se  Se115  1  0.08107200  0.07628862  0.06349834  1
  Se  Se116  1  0.07929189  0.08283032  0.55713997  1
  Se  Se117  1  0.07715523  0.41565375  0.04786257  1
  Se  Se118  1  0.08650683  0.42041083  0.55424510  1
  Se  Se119  1  0.07983744  0.74155832  0.04915717  1
  Se  Se120  1  0.08749645  0.75124263  0.55034423  1
  Se  Se121  1  0.41521534  0.07376063  0.05920148  1
  Se  Se122  1  0.41015699  0.08114148  0.55656002  1
  Se  Se123  1  0.41008786  0.40888499  0.05878744  1
  Se  Se124  1  0.41952003  0.42387794  0.55340873  1
  Se  Se125  1  0.40808832  0.73915787  0.05999034  1
  Se  Se126  1  0.41664256  0.75479289  0.55135356  1
  Se  Se127  1  0.76239234  0.09510005  0.04925985  1
  Se  Se128  1  0.74350413  0.08167414  0.54915638  1
  Se  Se129  1  0.74673912  0.42223738  0.04907673  1
  Se  Se130  1  0.75274024  0.41800202  0.55858618  1
  Se  Se131  1  0.74319759  0.75184884  0.06874734  1
  Se  Se132  1  0.75843378  0.74951832  0.54911967  1
  Se  Se133  1  0.25799503  0.25549705  0.06177121  1
  Se  Se134  1  0.24659450  0.25171783  0.55549542  1
  Se  Se135  1  0.24498219  0.57984888  0.05382919  1
  Se  Se136  1  0.24927220  0.58531812  0.55079589  1
  Se  Se137  1  0.24900788  0.90893255  0.05143621  1
  Se  Se138  1  0.24783162  0.91468275  0.55197624  1
  Se  Se139  1  0.59210714  0.25828137  0.05553519  1
  Se  Se140  1  0.58508314  0.25646677  0.56263239  1
  Se  Se141  1  0.57996738  0.60057749  0.07280863  1
  Se  Se142  1  0.58723091  0.58772771  0.55485689  1
  Se  Se143  1  0.59562501  0.92671106  0.06029994  1
  Se  Se144  1  0.57914729  0.91153771  0.54701915  1
  Se  Se145  1  0.91462471  0.25279552  0.04497768  1
  Se  Se146  1  0.91269830  0.24767880  0.55775834  1
  Se  Se147  1  0.89731151  0.58049593  0.05404980  1
  Se  Se148  1  0.91897373  0.58034769  0.55163966  1
  Se  Se149  1  0.92753299  0.91950035  0.06411681  1
  Se  Se150  1  0.91515374  0.91121150  0.55142075  1
  Se  Se151  1  0.08267722  0.24975282  0.45384436  1
  Se  Se152  1  0.07811126  0.25718525  0.93450846  1
  Se  Se153  1  0.08917722  0.57995322  0.44529651  1
  Se  Se154  1  0.10128700  0.55968925  0.92812016  1
  Se  Se155  1  0.08344774  0.91484700  0.45174451  1
  Se  Se156  1  0.08724419  0.91093227  0.95268802  1
  Se  Se157  1  0.40744269  0.26059127  0.44127133  1
  Se  Se158  1  0.40689507  0.25706340  0.94563189  1
  Se  Se159  1  0.41914286  0.58803477  0.44713840  1
  Se  Se160  1  0.41006778  0.58373306  0.94352458  1
  Se  Se161  1  0.41561527  0.91305141  0.44263339  1
  Se  Se162  1  0.41003140  0.91335012  0.93585143  1
  Se  Se163  1  0.74539132  0.24733284  0.44963081  1
  Se  Se164  1  0.75386515  0.25215112  0.93511457  1
  Se  Se165  1  0.76078276  0.57807697  0.44975455  1
  Se  Se166  1  0.74574144  0.58647622  0.95275908  1
  Se  Se167  1  0.75171039  0.91385759  0.44732910  1
  Se  Se168  1  0.74441304  0.91928859  0.94752302  1
  Se  Se169  1  0.24719174  0.08712818  0.45179803  1
  Se  Se170  1  0.25752611  0.07625660  0.94144233  1
  Se  Se171  1  0.25035106  0.42029215  0.45030701  1
  Se  Se172  1  0.26036729  0.40276973  0.94844343  1
  Se  Se173  1  0.24530685  0.75140399  0.44456327  1
  Se  Se174  1  0.24743106  0.74795792  0.93740844  1
  Se  Se175  1  0.57885093  0.07009774  0.43155658  1
  Se  Se176  1  0.59775806  0.07048744  0.93955784  1
  Se  Se177  1  0.58310880  0.42065757  0.45459130  1
  Se  Se178  1  0.58611580  0.41120251  0.93720151  1
  Se  Se179  1  0.58775795  0.74797388  0.44641844  1
  Se  Se180  1  0.58566822  0.74270156  0.94513137  1
  Se  Se181  1  0.91162748  0.08295620  0.44908855  1
  Se  Se182  1  0.92099928  0.08392787  0.94702221  1
  Se  Se183  1  0.91838186  0.41499466  0.45189074  1
  Se  Se184  1  0.91245046  0.42213639  0.93165549  1
  Se  Se185  1  0.92011368  0.74752405  0.44857968  1
  Se  Se186  1  0.92782230  0.73717381  0.94174126  1
  Se  Se187  1  0.24579230  0.24858320  0.31372365  1
  Se  Se188  1  0.23806429  0.25033885  0.81373456  1
  Se  Se189  1  0.25246874  0.58679147  0.30184316  1
  Se  Se190  1  0.26713078  0.59857275  0.79589102  1
  Se  Se191  1  0.24948431  0.91376809  0.30679206  1
  Se  Se192  1  0.24951135  0.91745417  0.79918326  1
  Se  Se193  1  0.57660787  0.24105238  0.30926269  1
  Se  Se194  1  0.58221535  0.25054746  0.79800228  1
  Se  Se195  1  0.58556383  0.58800402  0.31025026  1
  Se  Se196  1  0.57760769  0.57979301  0.81476127  1
  Se  Se197  1  0.60402939  0.92743352  0.30363009  1
  Se  Se198  1  0.57109220  0.90462530  0.80534879  1
  Se  Se199  1  0.91081591  0.24802304  0.30901433  1
  Se  Se200  1  0.91400744  0.24669136  0.79147085  1
  Se  Se201  1  0.92382845  0.58661310  0.30625526  1
  Se  Se202  1  0.91438409  0.58781644  0.79877148  1
  Se  Se203  1  0.91197031  0.90725292  0.31795873  1
  Se  Se204  1  0.91163680  0.90860617  0.81193093  1
  Se  Se205  1  0.08782870  0.08527877  0.31947757  1
  Se  Se206  1  0.08890510  0.08555615  0.81408866  1
  Se  Se207  1  0.09030351  0.42319509  0.30906681  1
  Se  Se208  1  0.07888902  0.40962829  0.78879373  1
  Se  Se209  1  0.08119766  0.74502494  0.30303583  1
  Se  Se210  1  0.08199037  0.74977723  0.79924172  1
  Se  Se211  1  0.41133621  0.08015566  0.30113761  1
  Se  Se212  1  0.41446663  0.08144754  0.79959720  1
  Se  Se213  1  0.41810315  0.42225788  0.31528397  1
  Se  Se214  1  0.41563221  0.42858687  0.81399473  1
  Se  Se215  1  0.42080230  0.75369860  0.30145887  1
  Se  Se216  1  0.42728313  0.75254290  0.79158518  1
  Se  Se217  1  0.75124977  0.08267555  0.30002023  1
  Se  Se218  1  0.75813943  0.08557944  0.80510043  1
  Se  Se219  1  0.75892779  0.42700133  0.31557611  1
  Se  Se220  1  0.74763332  0.41868966  0.79802902  1
  Se  Se221  1  0.75190975  0.74624333  0.30963451  1
  Se  Se222  1  0.75454465  0.75281454  0.80960031  1
  Se  Se223  1  0.25339702  0.07287198  0.20453872  1
  Se  Se224  1  0.24819097  0.08020253  0.70033005  1
  Se  Se225  1  0.23984112  0.42148127  0.18929696  1
  Se  Se226  1  0.24465895  0.42868126  0.68768619  1
  Se  Se227  1  0.24975206  0.74640726  0.19509771  1
  Se  Se228  1  0.25238400  0.74638637  0.69037039  1
  Se  Se229  1  0.58968836  0.08155280  0.19551662  1
  Se  Se230  1  0.57512469  0.08742186  0.68250824  1
  Se  Se231  1  0.57789812  0.42893676  0.19987191  1
  Se  Se232  1  0.58680089  0.41677432  0.70181508  1
  Se  Se233  1  0.58941472  0.75178155  0.21112537  1
  Se  Se234  1  0.57999251  0.75984905  0.68888613  1
  Se  Se235  1  0.91878570  0.09040320  0.19183323  1
  Se  Se236  1  0.90431357  0.08274381  0.69154672  1
  Se  Se237  1  0.91217665  0.43227958  0.18780467  1
  Se  Se238  1  0.92432438  0.41699141  0.69268968  1
  Se  Se239  1  0.91877215  0.74787003  0.20335283  1
  Se  Se240  1  0.91884323  0.74990911  0.69756248  1
  Se  Se241  1  0.09349785  0.23739609  0.19681389  1
  Se  Se242  1  0.08235852  0.24781750  0.69625819  1
  Se  Se243  1  0.07951159  0.58641099  0.19227348  1
  Se  Se244  1  0.07095831  0.60070198  0.69421286  1
  Se  Se245  1  0.08815100  0.90797982  0.19253064  1
  Se  Se246  1  0.08931454  0.90916096  0.68625698  1
  Se  Se247  1  0.42634087  0.24008060  0.18822639  1
  Se  Se248  1  0.41826891  0.24606963  0.68891245  1
  Se  Se249  1  0.40898329  0.58286026  0.20334172  1
  Se  Se250  1  0.42312611  0.58531536  0.69422094  1
  Se  Se251  1  0.41883644  0.90701754  0.19984099  1
  Se  Se252  1  0.40636890  0.92317668  0.69467162  1
  Se  Se253  1  0.75946885  0.25375195  0.18627537  1
  Se  Se254  1  0.74948113  0.25378535  0.69971806  1
  Se  Se255  1  0.74427404  0.58661170  0.20205199  1
  Se  Se256  1  0.75947766  0.57850746  0.68579136  1
  Se  Se257  1  0.75911606  0.92055049  0.19894616  1
  Se  Se258  1  0.75192401  0.91033583  0.68819088  1
