# generated using pymatgen
data_In86Cu29Se144
_symmetry_space_group_name_H-M   'P 1'
_cell_length_a   17.58335058
_cell_length_b   17.58205730
_cell_length_c   23.44612647
_cell_angle_alpha   90.02654149
_cell_angle_beta   89.99557597
_cell_angle_gamma   90.00138773
_symmetry_Int_Tables_number   1
_chemical_formula_structural   In86Cu29Se144
_chemical_formula_sum   'In86 Cu29 Se144'
_cell_volume   7248.40383736
_cell_formula_units_Z   1
loop_
 _symmetry_equiv_pos_site_id
 _symmetry_equiv_pos_as_xyz
  1  'x, y, z'
loop_
 _atom_site_type_symbol
 _atom_site_label
 _atom_site_symmetry_multiplicity
 _atom_site_fract_x
 _atom_site_fract_y
 _atom_site_fract_z
 _atom_site_occupancy
  In  In0  1  0.00820387  0.16931773  0.11156989  1
  In  In1  1  0.00987392  0.17693644  0.62215605  1
  In  In2  1  0.00374797  0.48557496  0.12727935  1
  In  In3  1  -0.01378098  0.48543127  0.63423221  1
  In  In4  1  -0.00236844  0.84827056  0.11108593  1
  In  In5  1  0.00369372  0.83313244  0.62871685  1
  In  In6  1  0.33316428  0.16653950  0.13010319  1
  In  In7  1  0.33335612  0.16076876  0.61344644  1
  In  In8  1  0.32113310  0.50214575  0.13562806  1
  In  In9  1  0.34207660  0.49459720  0.62289497  1
  In  In10  1  0.34792290  0.82658645  0.12731978  1
  In  In11  1  0.33101448  0.83644180  0.63813801  1
  In  In12  1  0.66318151  0.16550264  0.12656057  1
  In  In13  1  0.65599333  0.15813684  0.61674904  1
  In  In14  1  0.66467177  0.50275376  0.13379648  1
  In  In15  1  0.65996531  0.50773560  0.62721585  1
  In  In16  1  0.66095952  0.83725064  0.12182707  1
  In  In17  1  0.66543237  0.83561891  0.63435875  1
  In  In18  1  0.18417186  0.01117296  0.36993271  1
  In  In19  1  0.18675750  -0.00456574  0.87570203  1
  In  In20  1  0.15597646  0.32762265  0.36136047  1
  In  In21  1  0.15810177  0.34152762  0.88246036  1
  In  In22  1  0.18479418  0.65670677  0.37124687  1
  In  In23  1  0.16335379  0.65700936  0.87285153  1
  In  In24  1  0.50290725  0.00395073  0.37038778  1
  In  In25  1  0.49968678  -0.00198315  0.87611288  1
  In  In26  1  0.50056999  0.33033658  0.37379116  1
  In  In27  1  0.48636957  0.32758381  0.87998763  1
  In  In28  1  0.49282010  0.65715518  0.36695649  1
  In  In29  1  0.50811722  0.67603847  0.87112595  1
  In  In30  1  0.83753571  0.01788682  0.37268412  1
  In  In31  1  0.82721404  0.01185678  0.88719583  1
  In  In32  1  0.82178772  0.32372066  0.36493552  1
  In  In33  1  0.83507177  0.31595570  0.87800952  1
  In  In34  1  0.82598502  0.67775303  0.37308568  1
  In  In35  1  0.83950857  0.68095193  0.87927158  1
  In  In36  1  -0.00688619  0.17911995  0.37900514  1
  In  In37  1  -0.00648301  0.17283167  0.88377458  1
  In  In38  1  0.01000142  0.48029609  0.36887171  1
  In  In39  1  0.01986822  0.50610534  0.87214651  1
  In  In40  1  -0.00138157  0.83512766  0.37218684  1
  In  In41  1  -0.00631387  0.82051868  0.88534872  1
  In  In42  1  0.33107280  0.16278627  0.37554143  1
  In  In43  1  0.34237684  0.15643729  0.88377672  1
  In  In44  1  0.34028720  0.50976231  0.36492597  1
  In  In45  1  0.31110319  0.50346340  0.87580038  1
  In  In46  1  0.34438928  0.84111297  0.36582450  1
  In  In47  1  0.33953210  0.84762428  0.86516624  1
  In  In48  1  0.66637879  0.16576725  0.37198931  1
  In  In49  1  0.67261604  0.15649785  0.88312074  1
  In  In50  1  0.65376769  0.48787416  0.36690429  1
  In  In51  1  0.65283741  0.50164418  0.87292468  1
  In  In52  1  0.66171781  0.83269814  0.36436097  1
  In  In53  1  0.66494336  0.83627460  0.87719854  1
  In  In54  1  0.16823492  0.01629016  0.12063281  1
  In  In55  1  0.16965821  0.01172831  0.63030694  1
  In  In56  1  0.16809320  0.32888096  0.12800423  1
  In  In57  1  0.17201854  0.32436015  0.62741506  1
  In  In58  1  0.18093710  0.66747167  0.12234829  1
  In  In59  1  0.17852864  0.67151085  0.63512366  1
  In  In60  1  0.49977026  0.00258824  0.12742084  1
  In  In61  1  0.49655883  0.00892433  0.63032039  1
  In  In62  1  0.50427234  0.32435972  0.13409213  1
  In  In63  1  0.49331462  0.32809639  0.61137092  1
  In  In64  1  0.49219412  0.67213451  0.12611254  1
  In  In65  1  0.50221175  0.66564016  0.62823867  1
  In  In66  1  0.82333829  -0.00979898  0.11266356  1
  In  In67  1  0.82141001  0.00363609  0.62852122  1
  In  In68  1  0.84102506  0.32603149  0.13153459  1
  In  In69  1  0.84474145  0.33105970  0.62846224  1
  In  In70  1  0.82120411  0.66861191  0.11978461  1
  In  In71  1  0.82071134  0.65051112  0.63590043  1
  In  In72  1  0.16868908  0.83126813  -0.00485903  1
  In  In73  1  0.83938937  0.49963299  0.00099474  1
  In  In74  1  0.49931961  0.84135155  0.49398250  1
  In  In75  1  0.00531916  -0.00114920  0.75850793  1
  In  In76  1  0.82684686  0.49408324  0.50515488  1
  In  In77  1  0.66961050  0.33350708  0.74833776  1
  In  In78  1  -0.00333147  0.66503370  0.24322252  1
  In  In79  1  0.82906480  0.84083692  0.51325417  1
  In  In80  1  0.32977787  0.33561555  0.74727741  1
  In  In81  1  -0.00101656  0.66580229  0.75773520  1
  In  In82  1  0.49393365  0.49599437  0.00806898  1
  In  In83  1  -0.00252461  0.00242984  0.23695837  1
  In  In84  1  0.17044109  0.84670068  0.50620953  1
  In  In85  1  0.17038902  0.49497234  0.49599688  1
  Cu  Cu86  1  0.50324991  0.83509573  0.24536538  1
  Cu  Cu87  1  0.00114305  0.66328430  0.49982738  1
  Cu  Cu88  1  0.32547980  0.32343449  0.00422690  1
  Cu  Cu89  1  0.66879845  0.32437056  0.00654947  1
  Cu  Cu90  1  0.50555555  0.83230762  0.75256564  1
  Cu  Cu91  1  0.50340118  0.16176965  0.75205146  1
  Cu  Cu92  1  0.33889392  0.00078370  0.00239552  1
  Cu  Cu93  1  -0.00115118  0.32695486  0.49869790  1
  Cu  Cu94  1  0.67195182  0.00416249  0.49579054  1
  Cu  Cu95  1  0.34004020  0.67036841  0.49464853  1
  Cu  Cu96  1  0.16475592  0.16679467  0.24670370  1
  Cu  Cu97  1  0.83560067  0.16152933  0.75671115  1
  Cu  Cu98  1  0.66748668  0.67686964  -0.00305200  1
  Cu  Cu99  1  0.50371693  0.49642061  0.24927361  1
  Cu  Cu100  1  0.00888297  0.01471572  0.49913909  1
  Cu  Cu101  1  0.65593025  0.00114332  0.00121858  1
  Cu  Cu102  1  0.82530766  0.83461652  0.75635638  1
  Cu  Cu103  1  0.83482509  0.50249414  0.24712935  1
  Cu  Cu104  1  0.82845882  0.16728074  0.24689760  1
  Cu  Cu105  1  0.49456809  0.50890079  0.74810427  1
  Cu  Cu106  1  0.17048107  0.17343410  0.75066008  1
  Cu  Cu107  1  0.65837109  0.65704016  0.50107549  1
  Cu  Cu108  1  0.49897353  0.16660432  0.25254803  1
  Cu  Cu109  1  0.66446002  0.32781833  0.49138936  1
  Cu  Cu110  1  0.33498832  0.33063136  0.49296958  1
  Cu  Cu111  1  0.33635736  0.66533691  0.00032531  1
  Cu  Cu112  1  0.82156918  0.83619052  0.24247737  1
  Cu  Cu113  1  0.00645662  0.33225314  0.00286239  1
  Cu  Cu114  1  0.17606227  0.82687178  0.24715912  1
  Se  Se115  1  0.06680674  0.06184202  0.05042921  1
  Se  Se116  1  0.09334387  0.09099313  0.55624834  1
  Se  Se117  1  0.09019618  0.41505080  0.05527686  1
  Se  Se118  1  0.07512819  0.41161393  0.55857746  1
  Se  Se119  1  0.08051809  0.74303354  0.05850445  1
  Se  Se120  1  0.08224296  0.74196889  0.55844251  1
  Se  Se121  1  0.41663549  0.08615494  0.05886218  1
  Se  Se122  1  0.43584824  0.09312644  0.55336507  1
  Se  Se123  1  0.40572144  0.40447593  0.06566826  1
  Se  Se124  1  0.41438356  0.41860515  0.54595945  1
  Se  Se125  1  0.42103792  0.75103337  0.04873731  1
  Se  Se126  1  0.41206248  0.75297129  0.55885697  1
  Se  Se127  1  0.74166536  0.08492620  0.05291046  1
  Se  Se128  1  0.75464147  0.08537303  0.55169355  1
  Se  Se129  1  0.74513359  0.41369840  0.06194368  1
  Se  Se130  1  0.73642328  0.40222329  0.56318469  1
  Se  Se131  1  0.74974252  0.75895285  0.05155381  1
  Se  Se132  1  0.73995428  0.73666257  0.56112714  1
  Se  Se133  1  0.24379717  0.23931690  0.05830355  1
  Se  Se134  1  0.25153704  0.25435864  0.55191158  1
  Se  Se135  1  0.25640705  0.57962738  0.05296416  1
  Se  Se136  1  0.25601650  0.59286275  0.55497348  1
  Se  Se137  1  0.25711199  0.91774099  0.06109436  1
  Se  Se138  1  0.26572296  0.93098756  0.56296313  1
  Se  Se139  1  0.57772060  0.24736582  0.05695085  1
  Se  Se140  1  0.58109381  0.24582909  0.54756166  1
  Se  Se141  1  0.59194601  0.59046342  0.05673745  1
  Se  Se142  1  0.57345377  0.57802085  0.55450013  1
  Se  Se143  1  0.57360958  0.91641818  0.05389625  1
  Se  Se144  1  0.59451917  0.92176430  0.55738930  1
  Se  Se145  1  0.91403339  0.25385355  0.05212254  1
  Se  Se146  1  0.91470037  0.24700636  0.55392575  1
  Se  Se147  1  0.92561396  0.58739014  0.06419114  1
  Se  Se148  1  0.92092187  0.58809560  0.56150866  1
  Se  Se149  1  0.91240349  0.91973742  0.04181145  1
  Se  Se150  1  0.93183109  0.93269527  0.56155933  1
  Se  Se151  1  0.08880975  0.25312376  0.44361842  1
  Se  Se152  1  0.08853080  0.24655871  0.94967537  1
  Se  Se153  1  0.07719959  0.58752555  0.43643540  1
  Se  Se154  1  0.07834512  0.59325244  0.94777478  1
  Se  Se155  1  0.07817724  0.92702083  0.43834202  1
  Se  Se156  1  0.08015450  0.92441194  0.93753942  1
  Se  Se157  1  0.41917745  0.24588839  0.44226250  1
  Se  Se158  1  0.41723390  0.24543495  0.95442952  1
  Se  Se159  1  0.41824353  0.58125349  0.44396020  1
  Se  Se160  1  0.41504270  0.58355811  0.93810523  1
  Se  Se161  1  0.40451858  0.93301336  0.44265890  1
  Se  Se162  1  0.41580316  0.91477418  0.94573895  1
  Se  Se163  1  0.75275766  0.24577963  0.44304498  1
  Se  Se164  1  0.75222848  0.24393429  0.95127572  1
  Se  Se165  1  0.74383356  0.58463307  0.43943659  1
  Se  Se166  1  0.74161310  0.58573728  0.94163067  1
  Se  Se167  1  0.74875021  0.91822647  0.43739886  1
  Se  Se168  1  0.74364565  0.92017471  0.94815743  1
  Se  Se169  1  0.24457195  0.09002314  0.44847699  1
  Se  Se170  1  0.25061043  0.08187565  0.95189408  1
  Se  Se171  1  0.25605082  0.41014052  0.43120171  1
  Se  Se172  1  0.25044380  0.41472462  0.95118171  1
  Se  Se173  1  0.25635578  0.75352843  0.44076508  1
  Se  Se174  1  0.26176512  0.74512395  0.93520448  1
  Se  Se175  1  0.58502895  0.08221559  0.44205983  1
  Se  Se176  1  0.57472622  0.08653788  0.94720364  1
  Se  Se177  1  0.58037602  0.41658315  0.44564209  1
  Se  Se178  1  0.58783248  0.40538192  0.94700275  1
  Se  Se179  1  0.58821133  0.74335727  0.43949058  1
  Se  Se180  1  0.57811995  0.75641254  0.94725774  1
  Se  Se181  1  0.91672378  0.08959437  0.44786905  1
  Se  Se182  1  0.92039152  0.08348325  0.95184111  1
  Se  Se183  1  0.91749861  0.40880075  0.44032233  1
  Se  Se184  1  0.92604912  0.40940321  0.93918176  1
  Se  Se185  1  0.91980003  0.74981292  0.44781250  1
  Se  Se186  1  0.91356442  0.74750164  0.95846414  1
  Se  Se187  1  0.25000709  0.24428018  0.30309838  1
  Se  Se188  1  0.25127309  0.24739831  0.81615182  1
  Se  Se189  1  0.25140083  0.58109549  0.29441708  1
  Se  Se190  1  0.24692915  0.58570778  0.79980655  1
  Se  Se191  1  0.25074209  0.91694354  0.30127988  1
  Se  Se192  1  0.25437291  0.92472811  0.79548419  1
  Se  Se193  1  0.58540138  0.25075583  0.30358721  1
  Se  Se194  1  0.57870443  0.24665270  0.81224736  1
  Se  Se195  1  0.58678172  0.58550685  0.30001897  1
  Se  Se196  1  0.58263740  0.58680515  0.80063134  1
  Se  Se197  1  0.58364875  0.92139513  0.29960577  1
  Se  Se198  1  0.58554421  0.91903994  0.80605203  1
  Se  Se199  1  0.91620669  0.24827556  0.29982338  1
  Se  Se200  1  0.92121651  0.24713154  0.80383298  1
  Se  Se201  1  0.91243336  0.57880219  0.31361315  1
  Se  Se202  1  0.90711737  0.57590910  0.81451452  1
  Se  Se203  1  0.90757237  0.91192324  0.30299178  1
  Se  Se204  1  0.91009643  0.91063701  0.81545093  1
  Se  Se205  1  0.07975670  0.08735675  0.30692111  1
  Se  Se206  1  0.09388911  0.09368286  0.81446460  1
  Se  Se207  1  0.09112502  0.42157082  0.29124476  1
  Se  Se208  1  0.09069466  0.41725973  0.80336924  1
  Se  Se209  1  0.09053690  0.75327375  0.30791276  1
  Se  Se210  1  0.08912049  0.76284249  0.80972500  1
  Se  Se211  1  0.41379079  0.08206513  0.30368220  1
  Se  Se212  1  0.41674264  0.08246929  0.80586914  1
  Se  Se213  1  0.42008355  0.41519483  0.30389215  1
  Se  Se214  1  0.41977668  0.42654197  0.81061920  1
  Se  Se215  1  0.42019435  0.75073954  0.30033547  1
  Se  Se216  1  0.41806720  0.75109527  0.80354484  1
  Se  Se217  1  0.74805525  0.08164225  0.30046137  1
  Se  Se218  1  0.74945491  0.07996030  0.80708218  1
  Se  Se219  1  0.75018564  0.41912866  0.30047548  1
  Se  Se220  1  0.75314734  0.41686977  0.81700836  1
  Se  Se221  1  0.74584212  0.74793749  0.29764589  1
  Se  Se222  1  0.74671989  0.74738524  0.80916634  1
  Se  Se223  1  0.24972626  0.07984735  0.19887428  1
  Se  Se224  1  0.25597654  0.09520290  0.69545082  1
  Se  Se225  1  0.25539556  0.40225846  0.19879340  1
  Se  Se226  1  0.23940385  0.42961080  0.69108612  1
  Se  Se227  1  0.26052686  0.74502396  0.19495057  1
  Se  Se228  1  0.25246372  0.75235444  0.70562172  1
  Se  Se229  1  0.58254499  0.08380075  0.19785735  1
  Se  Se230  1  0.59014397  0.08249839  0.69813054  1
  Se  Se231  1  0.58820263  0.41187320  0.19891195  1
  Se  Se232  1  0.56669551  0.41553358  0.69109294  1
  Se  Se233  1  0.58401629  0.74921540  0.19176143  1
  Se  Se234  1  0.58587874  0.74598793  0.69777772  1
  Se  Se235  1  0.90460794  0.09043614  0.18076558  1
  Se  Se236  1  0.91845313  0.08641530  0.69262679  1
  Se  Se237  1  0.91850976  0.41487058  0.19988772  1
  Se  Se238  1  0.90263081  0.41571820  0.70590775  1
  Se  Se239  1  0.91204395  0.76318041  0.18561119  1
  Se  Se240  1  0.90499728  0.75637349  0.69296511  1
  Se  Se241  1  0.07699846  0.24374316  0.19187875  1
  Se  Se242  1  0.08341205  0.25442621  0.69940656  1
  Se  Se243  1  0.09272533  0.57902579  0.18921144  1
  Se  Se244  1  0.08127874  0.57981495  0.68793072  1
  Se  Se245  1  0.09449699  0.90659844  0.18740386  1
  Se  Se246  1  0.09471395  0.90956837  0.69527928  1
  Se  Se247  1  0.41301997  0.24973667  0.20131990  1
  Se  Se248  1  0.42420291  0.24460995  0.69183557  1
  Se  Se249  1  0.42141743  0.57926455  0.19381977  1
  Se  Se250  1  0.40945567  0.58703264  0.69284077  1
  Se  Se251  1  0.41563602  0.91950527  0.19711158  1
  Se  Se252  1  0.42449554  0.91751879  0.69836255  1
  Se  Se253  1  0.74468565  0.25271266  0.19538388  1
  Se  Se254  1  0.75472807  0.23613757  0.69071386  1
  Se  Se255  1  0.75255635  0.58838352  0.19674787  1
  Se  Se256  1  0.74395856  0.56850848  0.70424852  1
  Se  Se257  1  0.74238634  0.92374392  0.19119330  1
  Se  Se258  1  0.74802311  0.92079771  0.70094268  1
