# generated using pymatgen
data_In86Cu29Se144
_symmetry_space_group_name_H-M   'P 1'
_cell_length_a   17.59662582
_cell_length_b   17.59500096
_cell_length_c   23.45811778
_cell_angle_alpha   89.97236389
_cell_angle_beta   89.95463626
_cell_angle_gamma   89.97648205
_symmetry_Int_Tables_number   1
_chemical_formula_structural   In86Cu29Se144
_chemical_formula_sum   'In86 Cu29 Se144'
_cell_volume   7262.92623341
_cell_formula_units_Z   1
loop_
 _symmetry_equiv_pos_site_id
 _symmetry_equiv_pos_as_xyz
  1  'x, y, z'
loop_
 _atom_site_type_symbol
 _atom_site_label
 _atom_site_symmetry_multiplicity
 _atom_site_fract_x
 _atom_site_fract_y
 _atom_site_fract_z
 _atom_site_occupancy
  In  In0  1  -0.00299977  0.18773415  0.11987226  1
  In  In1  1  -0.02490198  0.16973560  0.62910102  1
  In  In2  1  -0.00790796  0.48663680  0.11554439  1
  In  In3  1  -0.00418805  0.50588235  0.62191898  1
  In  In4  1  -0.00662782  0.84248967  0.12495967  1
  In  In5  1  0.01072530  0.83141421  0.62470779  1
  In  In6  1  0.34208793  0.15814986  0.13473529  1
  In  In7  1  0.33844575  0.15586738  0.62090313  1
  In  In8  1  0.33500089  0.49904519  0.12688826  1
  In  In9  1  0.34805587  0.50138893  0.62374329  1
  In  In10  1  0.33960677  0.82953149  0.13326775  1
  In  In11  1  0.32989465  0.82424436  0.61450461  1
  In  In12  1  0.65602091  0.15779076  0.11788415  1
  In  In13  1  0.67930613  0.17695600  0.61399044  1
  In  In14  1  0.67214930  0.51000325  0.12001312  1
  In  In15  1  0.66523559  0.49274447  0.62222202  1
  In  In16  1  0.66380861  0.83418646  0.12717038  1
  In  In17  1  0.65730113  0.84333423  0.62091170  1
  In  In18  1  0.16710139  -0.02137965  0.38049151  1
  In  In19  1  0.16224298  0.01194551  0.87606778  1
  In  In20  1  0.17116092  0.35069762  0.35447740  1
  In  In21  1  0.16997024  0.33855745  0.88281607  1
  In  In22  1  0.20236959  0.66464536  0.37621828  1
  In  In23  1  0.16864942  0.65215622  0.87925187  1
  In  In24  1  0.50104703  0.00000882  0.37122113  1
  In  In25  1  0.49665548  -0.00267970  0.88673776  1
  In  In26  1  0.49503017  0.34317308  0.37615674  1
  In  In27  1  0.51198120  0.32495689  0.88235506  1
  In  In28  1  0.49473669  0.66448898  0.37375090  1
  In  In29  1  0.49546670  0.67190736  0.88003366  1
  In  In30  1  0.83857812  0.01441040  0.37554542  1
  In  In31  1  0.83475816  -0.00470621  0.87817335  1
  In  In32  1  0.83821100  0.32905434  0.37331167  1
  In  In33  1  0.82197772  0.34491282  0.88178497  1
  In  In34  1  0.81487539  0.66873192  0.37510217  1
  In  In35  1  0.83520784  0.66146901  0.88473546  1
  In  In36  1  -0.01337351  0.16972279  0.37572369  1
  In  In37  1  -0.00283047  0.15915380  0.87516737  1
  In  In38  1  0.00596420  0.48617734  0.37168961  1
  In  In39  1  -0.00762856  0.49832659  0.88947457  1
  In  In40  1  0.01460078  0.84743097  0.38327256  1
  In  In41  1  -0.00998213  0.83255369  0.87939238  1
  In  In42  1  0.34359523  0.17819501  0.36636450  1
  In  In43  1  0.33387965  0.17163488  0.88220476  1
  In  In44  1  0.34684365  0.51774963  0.35266963  1
  In  In45  1  0.33005688  0.50560230  0.88344205  1
  In  In46  1  0.33607285  0.83126562  0.37550036  1
  In  In47  1  0.34978687  0.82932345  0.87929433  1
  In  In48  1  0.67676239  0.15840935  0.37477240  1
  In  In49  1  0.65906361  0.17255123  0.87717036  1
  In  In50  1  0.65560822  0.50839758  0.37836158  1
  In  In51  1  0.67643639  0.48554051  0.88434242  1
  In  In52  1  0.65260951  0.82289989  0.36509641  1
  In  In53  1  0.66258624  0.83490062  0.88277879  1
  In  In54  1  0.17252595  0.00654223  0.13145972  1
  In  In55  1  0.16574542  -0.01157118  0.62383432  1
  In  In56  1  0.15921758  0.34745543  0.14039407  1
  In  In57  1  0.17001329  0.33827398  0.62268935  1
  In  In58  1  0.18339175  0.65766473  0.13386290  1
  In  In59  1  0.17081922  0.68065085  0.62125939  1
  In  In60  1  0.50235703  0.00319186  0.12647489  1
  In  In61  1  0.50060332  -0.00233136  0.61167866  1
  In  In62  1  0.48891312  0.32440546  0.12151584  1
  In  In63  1  0.51485181  0.34275195  0.61534596  1
  In  In64  1  0.49915432  0.66924918  0.12708942  1
  In  In65  1  0.49121952  0.65807436  0.61797718  1
  In  In66  1  0.82269664  -0.00539035  0.11711197  1
  In  In67  1  0.83061154  0.01596247  0.62683977  1
  In  In68  1  0.84094989  0.33749634  0.11012205  1
  In  In69  1  0.82192358  0.32443147  0.61938457  1
  In  In70  1  0.82320911  0.65644161  0.12016601  1
  In  In71  1  0.84096523  0.65937531  0.62040903  1
  In  In72  1  -0.00852523  0.33677111  0.75493567  1
  In  In73  1  0.33860922  0.33258398  0.75875526  1
  In  In74  1  0.33544903  -0.00136555  0.75832894  1
  In  In75  1  0.00204635  0.00540319  0.25433909  1
  In  In76  1  0.16082732  0.16413661  0.49415093  1
  In  In77  1  0.17143997  0.16902446  0.00421291  1
  In  In78  1  0.66883611  0.66145167  0.74938249  1
  In  In79  1  0.00061617  0.66184906  0.76154533  1
  In  In80  1  0.66499144  0.00523334  0.74802789  1
  In  In81  1  0.82931700  0.83333231  0.50065221  1
  In  In82  1  0.17266117  0.50391886  0.49344701  1
  In  In83  1  0.16948412  0.82882347  0.01559168  1
  In  In84  1  0.66808156  0.33172943  0.24243699  1
  In  In85  1  0.00057810  0.66342067  0.25267825  1
  Cu  Cu86  1  0.66008789  0.67210841  0.00298213  1
  Cu  Cu87  1  0.49350523  0.83089681  0.74933387  1
  Cu  Cu88  1  0.83382448  0.16619519  0.24711543  1
  Cu  Cu89  1  0.33987064  0.33280464  0.49302493  1
  Cu  Cu90  1  0.82667902  0.83343245  0.24919061  1
  Cu  Cu91  1  -0.00133583  0.66292971  0.00234511  1
  Cu  Cu92  1  0.15389114  0.16286064  0.74881195  1
  Cu  Cu93  1  0.66692617  0.00032048  0.00037885  1
  Cu  Cu94  1  0.33281824  0.33663253  0.00607311  1
  Cu  Cu95  1  0.50019665  0.50394491  0.24793803  1
  Cu  Cu96  1  0.00053386  0.66492104  0.49869768  1
  Cu  Cu97  1  -0.00665487  0.33075579  0.49380438  1
  Cu  Cu98  1  0.66356281  -0.00191666  0.49354470  1
  Cu  Cu99  1  0.33941535  0.00031550  0.49531250  1
  Cu  Cu100  1  -0.00493406  -0.00241701  -0.00006065  1
  Cu  Cu101  1  0.49939506  0.83612964  0.24929843  1
  Cu  Cu102  1  0.17026826  0.83272220  0.74524859  1
  Cu  Cu103  1  0.65894852  0.65830432  0.49727098  1
  Cu  Cu104  1  0.50664012  0.17583538  0.74737436  1
  Cu  Cu105  1  0.83886398  0.83545867  0.75561444  1
  Cu  Cu106  1  0.50600106  0.50070317  0.74669223  1
  Cu  Cu107  1  0.66119550  0.33528942  0.00403861  1
  Cu  Cu108  1  0.17634878  0.82785411  0.25635687  1
  Cu  Cu109  1  0.17255663  0.50758294  0.75574942  1
  Cu  Cu110  1  0.66892620  0.33111403  0.49320202  1
  Cu  Cu111  1  0.83036090  0.49935458  0.24292588  1
  Cu  Cu112  1  0.17057171  0.16748426  0.25043332  1
  Cu  Cu113  1  0.33672384  0.66466074  0.00787941  1
  Cu  Cu114  1  0.50574864  0.16335922  0.24812223  1
  Se  Se115  1  0.07567910  0.07553589  0.06156252  1
  Se  Se116  1  0.07937481  0.08872932  0.56823237  1
  Se  Se117  1  0.08446159  0.40349818  0.05593994  1
  Se  Se118  1  0.07658353  0.41061593  0.55253564  1
  Se  Se119  1  0.07543032  0.73629738  0.06970306  1
  Se  Se120  1  0.08285393  0.75052253  0.54962193  1
  Se  Se121  1  0.42644299  0.09408234  0.05903835  1
  Se  Se122  1  0.42086788  0.08773146  0.54607120  1
  Se  Se123  1  0.41949286  0.42074226  0.05515575  1
  Se  Se124  1  0.41769703  0.41589806  0.55147557  1
  Se  Se125  1  0.41660730  0.75371445  0.05731799  1
  Se  Se126  1  0.43298610  0.76142415  0.55391346  1
  Se  Se127  1  0.75044814  0.08713609  0.04977946  1
  Se  Se128  1  0.74806744  0.07812091  0.54830078  1
  Se  Se129  1  0.74731131  0.42120975  0.05139712  1
  Se  Se130  1  0.74912565  0.41503631  0.55053574  1
  Se  Se131  1  0.74754202  0.75146405  0.05673688  1
  Se  Se132  1  0.73777004  0.73947260  0.56012091  1
  Se  Se133  1  0.25652189  0.25491184  0.06875640  1
  Se  Se134  1  0.25770689  0.25572036  0.55466697  1
  Se  Se135  1  0.24971352  0.57979688  0.05506474  1
  Se  Se136  1  0.25903417  0.58993644  0.55820478  1
  Se  Se137  1  0.26068412  0.92682735  0.06312682  1
  Se  Se138  1  0.25470644  0.92213829  0.55237534  1
  Se  Se139  1  0.57756992  0.24837171  0.05286565  1
  Se  Se140  1  0.58441457  0.24818525  0.54784888  1
  Se  Se141  1  0.57883868  0.58617266  0.05540765  1
  Se  Se142  1  0.58028796  0.57513265  0.55501132  1
  Se  Se143  1  0.58453536  0.91872972  0.05663813  1
  Se  Se144  1  0.57999927  0.91165432  0.54300711  1
  Se  Se145  1  0.90737033  0.23971240  0.04390268  1
  Se  Se146  1  0.91216315  0.24892178  0.54932626  1
  Se  Se147  1  0.91172898  0.57946613  0.05284160  1
  Se  Se148  1  0.91612159  0.57930683  0.54648909  1
  Se  Se149  1  0.91139976  0.91215370  0.05080706  1
  Se  Se150  1  0.91580604  0.91892785  0.56445819  1
  Se  Se151  1  0.08400741  0.26383746  0.43251710  1
  Se  Se152  1  0.07724179  0.25291191  0.94305998  1
  Se  Se153  1  0.08100588  0.59236928  0.43301609  1
  Se  Se154  1  0.08446156  0.58029190  0.95115703  1
  Se  Se155  1  0.07202612  0.93663771  0.45779479  1
  Se  Se156  1  0.08416478  0.91819004  0.94656582  1
  Se  Se157  1  0.42385027  0.24727684  0.44369331  1
  Se  Se158  1  0.41421497  0.25422054  0.94877799  1
  Se  Se159  1  0.40673119  0.58187501  0.43860708  1
  Se  Se160  1  0.41870782  0.58464048  0.94955363  1
  Se  Se161  1  0.42133680  0.91609361  0.44182548  1
  Se  Se162  1  0.41430062  0.91476800  0.95214131  1
  Se  Se163  1  0.75456948  0.24745755  0.44190883  1
  Se  Se164  1  0.74201317  0.25335001  0.94666329  1
  Se  Se165  1  0.74954578  0.57933638  0.44783031  1
  Se  Se166  1  0.74305174  0.58646090  0.94941608  1
  Se  Se167  1  0.74434951  0.91759860  0.43292684  1
  Se  Se168  1  0.75042305  0.91517406  0.94736829  1
  Se  Se169  1  0.25823645  0.08120571  0.43538594  1
  Se  Se170  1  0.26101622  0.07194549  0.94744779  1
  Se  Se171  1  0.25901231  0.41214552  0.43423610  1
  Se  Se172  1  0.24983956  0.41912098  0.95159124  1
  Se  Se173  1  0.23946498  0.76732313  0.44619357  1
  Se  Se174  1  0.25338393  0.74374122  0.94651983  1
  Se  Se175  1  0.58320933  0.08460868  0.44071488  1
  Se  Se176  1  0.58337777  0.08437392  0.94670921  1
  Se  Se177  1  0.58197929  0.41769151  0.44638795  1
  Se  Se178  1  0.57742797  0.42058771  0.95139198  1
  Se  Se179  1  0.58206520  0.74539559  0.44277298  1
  Se  Se180  1  0.57666761  0.75513893  0.94917045  1
  Se  Se181  1  0.92598745  0.07869100  0.44831008  1
  Se  Se182  1  0.91467853  0.08183975  0.94669480  1
  Se  Se183  1  0.91399740  0.41950617  0.44233882  1
  Se  Se184  1  0.91530379  0.40916622  0.95266808  1
  Se  Se185  1  0.92110482  0.74592578  0.43740702  1
  Se  Se186  1  0.91658410  0.74864026  0.95080562  1
  Se  Se187  1  0.25482736  0.25462089  0.29862375  1
  Se  Se188  1  0.23655126  0.24010577  0.80903222  1
  Se  Se189  1  0.22768340  0.56535930  0.29958717  1
  Se  Se190  1  0.25922997  0.58785321  0.80611966  1
  Se  Se191  1  0.25533914  0.91904032  0.30501719  1
  Se  Se192  1  0.24289452  0.90778585  0.81553147  1
  Se  Se193  1  0.58281114  0.24696126  0.30944423  1
  Se  Se194  1  0.58784352  0.25711448  0.80187987  1
  Se  Se195  1  0.58229694  0.58629795  0.30275427  1
  Se  Se196  1  0.58044659  0.57810111  0.81376365  1
  Se  Se197  1  0.58515604  0.92076816  0.29974776  1
  Se  Se198  1  0.57381638  0.91269039  0.80760898  1
  Se  Se199  1  0.91676148  0.25032105  0.29886775  1
  Se  Se200  1  0.90543092  0.24707787  0.81443229  1
  Se  Se201  1  0.90457333  0.57643271  0.31062463  1
  Se  Se202  1  0.90568879  0.56830538  0.81068473  1
  Se  Se203  1  0.91208952  0.90743652  0.31012238  1
  Se  Se204  1  0.92171640  0.91923462  0.80630646  1
  Se  Se205  1  0.09380296  0.09019260  0.31629557  1
  Se  Se206  1  0.07528286  0.07755944  0.80217139  1
  Se  Se207  1  0.06886923  0.41244722  0.29105606  1
  Se  Se208  1  0.08931594  0.42666648  0.81141715  1
  Se  Se209  1  0.08965571  0.75306290  0.31500057  1
  Se  Se210  1  0.09407945  0.75707141  0.81398117  1
  Se  Se211  1  0.41847210  0.08357748  0.30191216  1
  Se  Se212  1  0.42756123  0.09656713  0.80956027  1
  Se  Se213  1  0.41978410  0.41277401  0.29664263  1
  Se  Se214  1  0.42796450  0.42481567  0.81431307  1
  Se  Se215  1  0.41696916  0.75117847  0.30348750  1
  Se  Se216  1  0.41469256  0.74532506  0.80290940  1
  Se  Se217  1  0.75388824  0.08006543  0.29928943  1
  Se  Se218  1  0.75265521  0.08813144  0.81154981  1
  Se  Se219  1  0.75000613  0.42209290  0.30798258  1
  Se  Se220  1  0.74588699  0.41656006  0.80386424  1
  Se  Se221  1  0.74394558  0.74579519  0.29829866  1
  Se  Se222  1  0.75637898  0.75480485  0.81209260  1
  Se  Se223  1  0.25426761  0.07930325  0.20409413  1
  Se  Se224  1  0.24435377  0.08778035  0.69435451  1
  Se  Se225  1  0.26119732  0.41452528  0.19945615  1
  Se  Se226  1  0.24809141  0.42295935  0.69549898  1
  Se  Se227  1  0.25759089  0.74520189  0.20211256  1
  Se  Se228  1  0.25551988  0.75124209  0.69462551  1
  Se  Se229  1  0.59068369  0.08006003  0.19796443  1
  Se  Se230  1  0.57574697  0.08994624  0.68394965  1
  Se  Se231  1  0.57668740  0.42268584  0.18530551  1
  Se  Se232  1  0.58638436  0.41344582  0.69625594  1
  Se  Se233  1  0.58249755  0.75091893  0.19679320  1
  Se  Se234  1  0.57925561  0.75475271  0.69140454  1
  Se  Se235  1  0.91535582  0.08570651  0.18560501  1
  Se  Se236  1  0.91222784  0.08214537  0.70230059  1
  Se  Se237  1  0.90960380  0.41290309  0.19079683  1
  Se  Se238  1  0.90914857  0.42125825  0.68661127  1
  Se  Se239  1  0.91017262  0.75404329  0.19170981  1
  Se  Se240  1  0.91426368  0.75137289  0.69464285  1
  Se  Se241  1  0.08209929  0.24564174  0.19832931  1
  Se  Se242  1  0.08536300  0.25153476  0.68946516  1
  Se  Se243  1  0.07956166  0.57429580  0.18675285  1
  Se  Se244  1  0.09165042  0.58121999  0.69129325  1
  Se  Se245  1  0.09230490  0.90674837  0.19728866  1
  Se  Se246  1  0.08286317  0.91587718  0.69828559  1
  Se  Se247  1  0.41940393  0.24981990  0.20149030  1
  Se  Se248  1  0.42011255  0.24929215  0.68708776  1
  Se  Se249  1  0.41458645  0.58732208  0.19580843  1
  Se  Se250  1  0.41904044  0.58408773  0.69829229  1
  Se  Se251  1  0.41757921  0.92195329  0.19703015  1
  Se  Se252  1  0.41980461  0.91640548  0.68909429  1
  Se  Se253  1  0.75672475  0.24293451  0.18198006  1
  Se  Se254  1  0.75546295  0.23910458  0.69400250  1
  Se  Se255  1  0.74444455  0.58677771  0.19842283  1
  Se  Se256  1  0.76106399  0.57431966  0.69081443  1
  Se  Se257  1  0.74911244  0.91984758  0.19481224  1
  Se  Se258  1  0.75578709  0.90692476  0.69240244  1
