# generated using pymatgen
data_In86Cu29Se144
_symmetry_space_group_name_H-M   'P 1'
_cell_length_a   17.56466277
_cell_length_b   17.56299916
_cell_length_c   23.41750220
_cell_angle_alpha   90.01057099
_cell_angle_beta   89.99673401
_cell_angle_gamma   90.00536715
_symmetry_Int_Tables_number   1
_chemical_formula_structural   In86Cu29Se144
_chemical_formula_sum   'In86 Cu29 Se144'
_cell_volume   7224.02194108
_cell_formula_units_Z   1
loop_
 _symmetry_equiv_pos_site_id
 _symmetry_equiv_pos_as_xyz
  1  'x, y, z'
loop_
 _atom_site_type_symbol
 _atom_site_label
 _atom_site_symmetry_multiplicity
 _atom_site_fract_x
 _atom_site_fract_y
 _atom_site_fract_z
 _atom_site_occupancy
  In  In0  1  -0.01914123  0.13791569  0.10105823  1
  In  In1  1  -0.00667048  0.18093937  0.62489436  1
  In  In2  1  0.00882388  0.50815172  0.11911528  1
  In  In3  1  0.01188400  0.51303273  0.61817179  1
  In  In4  1  0.00333496  0.83862525  0.12917057  1
  In  In5  1  -0.00954022  0.82864189  0.62214179  1
  In  In6  1  0.32437781  0.17432031  0.13525362  1
  In  In7  1  0.33109217  0.15729859  0.62589486  1
  In  In8  1  0.31232470  0.50385655  0.13196182  1
  In  In9  1  0.34279188  0.51763337  0.60404499  1
  In  In10  1  0.34271343  0.83698894  0.12304605  1
  In  In11  1  0.32798339  0.82446773  0.60755819  1
  In  In12  1  0.67492938  0.14916599  0.12064365  1
  In  In13  1  0.68171136  0.15433069  0.63317024  1
  In  In14  1  0.67524755  0.48829649  0.12358895  1
  In  In15  1  0.66308751  0.48761559  0.62446338  1
  In  In16  1  0.69619464  0.86872445  0.09395998  1
  In  In17  1  0.66892469  0.83345034  0.62362872  1
  In  In18  1  0.14314435  -0.03654063  0.33861701  1
  In  In19  1  0.15697194  0.00557029  0.90257482  1
  In  In20  1  0.17625321  0.33119636  0.37172599  1
  In  In21  1  0.13813897  0.35314577  0.90549540  1
  In  In22  1  0.15156730  0.68861250  0.38474999  1
  In  In23  1  0.15442053  0.67842345  0.88246726  1
  In  In24  1  0.49019209  -0.01125085  0.36409345  1
  In  In25  1  0.51334326  -0.01457951  0.87878067  1
  In  In26  1  0.49047306  0.34443558  0.37844603  1
  In  In27  1  0.50394994  0.32656929  0.86755149  1
  In  In28  1  0.48713036  0.67135570  0.39768058  1
  In  In29  1  0.50498751  0.67754301  0.86823566  1
  In  In30  1  0.83309103  0.00064264  0.37196192  1
  In  In31  1  0.82120269  0.00817888  0.89869114  1
  In  In32  1  0.82682882  0.33695863  0.37898653  1
  In  In33  1  0.83445542  0.33914229  0.87871882  1
  In  In34  1  0.84052055  0.66526997  0.37692636  1
  In  In35  1  0.83741114  0.65617931  0.87620819  1
  In  In36  1  -0.00221120  0.15427871  0.37169145  1
  In  In37  1  -0.01724994  0.18155128  0.91330659  1
  In  In38  1  -0.01129466  0.51046275  0.37747618  1
  In  In39  1  -0.00643504  0.51097618  0.87782961  1
  In  In40  1  -0.00314670  0.83076878  0.36966984  1
  In  In41  1  0.00142444  0.83324989  0.88542152  1
  In  In42  1  0.32394429  0.15788931  0.36215872  1
  In  In43  1  0.33154202  0.16402917  0.87860658  1
  In  In44  1  0.33093987  0.49995726  0.38360323  1
  In  In45  1  0.32727534  0.49206976  0.87300231  1
  In  In46  1  0.33107661  0.83297370  0.38060783  1
  In  In47  1  0.32659991  0.83434272  0.88110181  1
  In  In48  1  0.67981294  0.15961191  0.37353067  1
  In  In49  1  0.67223535  0.16526103  0.87097840  1
  In  In50  1  0.66123404  0.50530452  0.38522585  1
  In  In51  1  0.67736179  0.50270552  0.86647524  1
  In  In52  1  0.66028758  0.83873601  0.37797491  1
  In  In53  1  0.65862017  0.84051449  0.88236585  1
  In  In54  1  0.16501775  -0.00544704  0.12660596  1
  In  In55  1  0.17830326  -0.00514742  0.62254298  1
  In  In56  1  0.16221884  0.33818305  0.12016489  1
  In  In57  1  0.15348998  0.34665743  0.62906853  1
  In  In58  1  0.16057667  0.66468278  0.12639225  1
  In  In59  1  0.16177510  0.66477851  0.61961226  1
  In  In60  1  0.51459669  -0.00977027  0.13083176  1
  In  In61  1  0.50869363  -0.00167844  0.62490164  1
  In  In62  1  0.49783535  0.32560971  0.12850163  1
  In  In63  1  0.51203760  0.35251099  0.62929437  1
  In  In64  1  0.49182747  0.67973456  0.12573476  1
  In  In65  1  0.50343432  0.66859571  0.61689796  1
  In  In66  1  0.83751000  -0.00134432  0.12376765  1
  In  In67  1  0.82240139  -0.01212415  0.61580200  1
  In  In68  1  0.85154652  0.33390640  0.10685057  1
  In  In69  1  0.82578802  0.32317846  0.62098944  1
  In  In70  1  0.85025839  0.68419233  0.11770837  1
  In  In71  1  0.84544416  0.67735664  0.62339258  1
  In  In72  1  0.66598208  0.32498880  0.25158962  1
  In  In73  1  0.49869889  0.16495675  -0.00243100  1
  In  In74  1  0.33963066  -0.00508590  0.75745664  1
  In  In75  1  -0.00646405  0.33987399  0.76219968  1
  In  In76  1  0.00553172  0.32467894  0.23928695  1
  In  In77  1  0.66699589  0.66497678  0.74207453  1
  In  In78  1  0.49914634  0.51079817  -0.00723417  1
  In  In79  1  -0.00412753  0.00152164  0.76298548  1
  In  In80  1  0.50071092  0.16536883  0.50402659  1
  In  In81  1  0.33793655  0.67037581  0.73978289  1
  In  In82  1  0.16134363  0.16105831  0.49526892  1
  In  In83  1  0.66419431  0.67045279  0.25233851  1
  In  In84  1  0.32596520  0.66887754  0.26060461  1
  In  In85  1  0.33267704  0.33142670  0.74717077  1
  Cu  Cu86  1  0.82855343  0.83438469  0.75057430  1
  Cu  Cu87  1  0.49677567  0.16577103  0.24589861  1
  Cu  Cu88  1  0.48921124  0.49908537  0.26032134  1
  Cu  Cu89  1  0.32822569  0.33051300  0.50112803  1
  Cu  Cu90  1  0.83621061  0.51010912  0.24950719  1
  Cu  Cu91  1  0.32574306  0.67211286  0.00396979  1
  Cu  Cu92  1  0.16333136  0.49563028  0.24811197  1
  Cu  Cu93  1  0.51601077  0.16655204  0.74835366  1
  Cu  Cu94  1  0.00040303  -0.00178690  0.49164410  1
  Cu  Cu95  1  0.16359517  0.16089420  0.23997473  1
  Cu  Cu96  1  0.66757386  -0.00068202  0.49926293  1
  Cu  Cu97  1  -0.00549398  0.33983822  0.50132367  1
  Cu  Cu98  1  0.84076314  0.49366762  0.74979284  1
  Cu  Cu99  1  0.83371503  0.15461632  0.75366174  1
  Cu  Cu100  1  0.16922579  0.51437350  0.74515075  1
  Cu  Cu101  1  0.16470968  0.16995056  0.76963130  1
  Cu  Cu102  1  0.33712145  0.00299037  0.00781274  1
  Cu  Cu103  1  0.33095828  0.34997015  0.00615720  1
  Cu  Cu104  1  0.32386854  -0.01156729  0.48594844  1
  Cu  Cu105  1  0.83538337  0.84162105  0.24240328  1
  Cu  Cu106  1  -0.00056420  0.67381253  0.49866302  1
  Cu  Cu107  1  -0.00262544  0.66581383  0.00316511  1
  Cu  Cu108  1  0.66552917  0.66134623  -0.00692471  1
  Cu  Cu109  1  0.68078526  0.66720198  0.50347546  1
  Cu  Cu110  1  0.83327140  0.16405101  0.24441467  1
  Cu  Cu111  1  0.67555779  0.33396934  -0.00419882  1
  Cu  Cu112  1  0.15719625  0.83646623  0.75608526  1
  Cu  Cu113  1  0.66840302  0.33150880  0.50032180  1
  Cu  Cu114  1  0.51003976  0.83461911  0.24719122  1
  Se  Se115  1  0.10182941  0.08668805  0.05334348  1
  Se  Se116  1  0.07293515  0.07541838  0.56231254  1
  Se  Se117  1  0.07577053  0.41312665  0.05184561  1
  Se  Se118  1  0.08519728  0.42073231  0.54940928  1
  Se  Se119  1  0.07962003  0.74848381  0.05822914  1
  Se  Se120  1  0.08295623  0.75654390  0.55381483  1
  Se  Se121  1  0.41657256  0.08415576  0.06846383  1
  Se  Se122  1  0.40229054  0.06700439  0.55218046  1
  Se  Se123  1  0.41767750  0.42427916  0.06445652  1
  Se  Se124  1  0.41714258  0.40700195  0.55517301  1
  Se  Se125  1  0.41810446  0.75344949  0.04840116  1
  Se  Se126  1  0.41499020  0.74008522  0.54700205  1
  Se  Se127  1  0.76175058  0.08314859  0.04957993  1
  Se  Se128  1  0.75106252  0.08549461  0.55029900  1
  Se  Se129  1  0.75760306  0.41963639  0.04815391  1
  Se  Se130  1  0.75258027  0.41558825  0.55347512  1
  Se  Se131  1  0.74495955  0.74101608  0.05238456  1
  Se  Se132  1  0.75741431  0.75604972  0.55591180  1
  Se  Se133  1  0.25794274  0.25804689  0.05872702  1
  Se  Se134  1  0.24717252  0.25236501  0.56280699  1
  Se  Se135  1  0.24615089  0.58534243  0.05540616  1
  Se  Se136  1  0.23985715  0.58513642  0.54763656  1
  Se  Se137  1  0.25347428  0.91517533  0.05639631  1
  Se  Se138  1  0.23927952  0.91021433  0.54454827  1
  Se  Se139  1  0.59285989  0.25722110  0.05735148  1
  Se  Se140  1  0.59199800  0.25150762  0.56519204  1
  Se  Se141  1  0.58826252  0.58790133  0.06322050  1
  Se  Se142  1  0.59616898  0.58501118  0.55726225  1
  Se  Se143  1  0.57160799  0.91509082  0.04705471  1
  Se  Se144  1  0.58497002  0.91583134  0.55309553  1
  Se  Se145  1  0.91918746  0.24214880  0.03770208  1
  Se  Se146  1  0.91334270  0.24914469  0.54853353  1
  Se  Se147  1  0.91198705  0.57944176  0.05345389  1
  Se  Se148  1  0.91805986  0.58777937  0.55283272  1
  Se  Se149  1  0.90240416  0.89562069  0.06050991  1
  Se  Se150  1  0.91881589  0.91733231  0.55073540  1
  Se  Se151  1  0.07231286  0.25794305  0.43786318  1
  Se  Se152  1  0.11121495  0.22740260  0.95497436  1
  Se  Se153  1  0.07896600  0.58669096  0.44462835  1
  Se  Se154  1  0.08239182  0.58363137  0.94834045  1
  Se  Se155  1  0.08422477  0.91961592  0.43520640  1
  Se  Se156  1  0.07433474  0.91412833  0.95990782  1
  Se  Se157  1  0.40298935  0.24513789  0.44072161  1
  Se  Se158  1  0.40875171  0.26741575  0.94477009  1
  Se  Se159  1  0.43425461  0.55577862  0.45034098  1
  Se  Se160  1  0.40368402  0.59849208  0.93522355  1
  Se  Se161  1  0.42458701  0.91248515  0.44534006  1
  Se  Se162  1  0.41097845  0.92416657  0.94361226  1
  Se  Se163  1  0.74882727  0.24763303  0.44570039  1
  Se  Se164  1  0.75311871  0.24727665  0.94152926  1
  Se  Se165  1  0.75741273  0.58226444  0.44584191  1
  Se  Se166  1  0.74991085  0.57568418  0.94479819  1
  Se  Se167  1  0.75115250  0.91832280  0.44277702  1
  Se  Se168  1  0.75055832  0.90251646  0.95442058  1
  Se  Se169  1  0.24189232  0.07183473  0.43056237  1
  Se  Se170  1  0.25742005  0.09006137  0.95534105  1
  Se  Se171  1  0.24354657  0.41303513  0.44830783  1
  Se  Se172  1  0.24642602  0.43236262  0.95319547  1
  Se  Se173  1  0.27421575  0.72273422  0.43995518  1
  Se  Se174  1  0.24179302  0.75675410  0.95036497  1
  Se  Se175  1  0.58374755  0.07641919  0.43783598  1
  Se  Se176  1  0.59573414  0.07632274  0.94577587  1
  Se  Se177  1  0.58174338  0.41248697  0.44873270  1
  Se  Se178  1  0.58902931  0.41172292  0.93886377  1
  Se  Se179  1  0.59266390  0.74752222  0.44950127  1
  Se  Se180  1  0.57805271  0.74717200  0.94739135  1
  Se  Se181  1  0.91323784  0.08472070  0.44489479  1
  Se  Se182  1  0.94051442  0.05301134  0.95385131  1
  Se  Se183  1  0.91194242  0.42015501  0.44439848  1
  Se  Se184  1  0.94293071  0.39848204  0.93775085  1
  Se  Se185  1  0.91527689  0.75629523  0.44503199  1
  Se  Se186  1  0.91290883  0.74336495  0.94551857  1
  Se  Se187  1  0.24186984  0.24571074  0.29650944  1
  Se  Se188  1  0.24365677  0.26019021  0.82055237  1
  Se  Se189  1  0.23457182  0.57592922  0.31497265  1
  Se  Se190  1  0.24751993  0.59054207  0.80924356  1
  Se  Se191  1  0.27160087  0.91577266  0.30206049  1
  Se  Se192  1  0.23302972  0.92134251  0.81608760  1
  Se  Se193  1  0.57172538  0.24202860  0.31530580  1
  Se  Se194  1  0.59485015  0.25295184  0.80139787  1
  Se  Se195  1  0.57095584  0.58357744  0.31466420  1
  Se  Se196  1  0.57412505  0.57561055  0.80362234  1
  Se  Se197  1  0.59173151  0.92009130  0.30055043  1
  Se  Se198  1  0.58527979  0.91133449  0.80224909  1
  Se  Se199  1  0.90770301  0.24837495  0.30601029  1
  Se  Se200  1  0.91601939  0.23245005  0.81554322  1
  Se  Se201  1  0.92124735  0.59258813  0.30014324  1
  Se  Se202  1  0.91915797  0.58372179  0.79989639  1
  Se  Se203  1  0.91690553  0.92047809  0.30242881  1
  Se  Se204  1  0.90225900  0.91170347  0.81809465  1
  Se  Se205  1  0.07736801  0.08409581  0.29585474  1
  Se  Se206  1  0.08150587  0.09126954  0.82625971  1
  Se  Se207  1  0.07967815  0.41706550  0.30943432  1
  Se  Se208  1  0.09765439  0.42832358  0.80996947  1
  Se  Se209  1  0.09334144  0.76165656  0.30201091  1
  Se  Se210  1  0.07398822  0.75275868  0.80747676  1
  Se  Se211  1  0.41436849  0.07959281  0.29766146  1
  Se  Se212  1  0.43123571  0.09302801  0.81167997  1
  Se  Se213  1  0.40197567  0.41438512  0.30698561  1
  Se  Se214  1  0.42540693  0.42568845  0.80407574  1
  Se  Se215  1  0.43321910  0.75282002  0.30991141  1
  Se  Se216  1  0.41747808  0.76636456  0.80397069  1
  Se  Se217  1  0.75023512  0.08018964  0.29764046  1
  Se  Se218  1  0.75492053  0.07101847  0.81032460  1
  Se  Se219  1  0.75079171  0.42876580  0.30608273  1
  Se  Se220  1  0.75595115  0.41142279  0.80161775  1
  Se  Se221  1  0.75929903  0.76079684  0.30805735  1
  Se  Se222  1  0.75045978  0.75026129  0.81117786  1
  Se  Se223  1  0.25382385  0.07403715  0.19691360  1
  Se  Se224  1  0.23973252  0.09032140  0.70275899  1
  Se  Se225  1  0.24453024  0.40790084  0.19875890  1
  Se  Se226  1  0.25101568  0.43263731  0.68680652  1
  Se  Se227  1  0.24889548  0.75496006  0.19059904  1
  Se  Se228  1  0.23930320  0.76421021  0.69109793  1
  Se  Se229  1  0.58717823  0.08699092  0.19636119  1
  Se  Se230  1  0.59072425  0.07412826  0.69743188  1
  Se  Se231  1  0.57404495  0.42544183  0.19731044  1
  Se  Se232  1  0.59446942  0.41532052  0.70568415  1
  Se  Se233  1  0.58991151  0.76097292  0.18343116  1
  Se  Se234  1  0.57144134  0.75917118  0.69247601  1
  Se  Se235  1  0.92071544  0.08216115  0.19330264  1
  Se  Se236  1  0.91399781  0.08340327  0.68751531  1
  Se  Se237  1  0.91026518  0.42208617  0.18954156  1
  Se  Se238  1  0.91946498  0.41780595  0.68382738  1
  Se  Se239  1  0.92098327  0.75104375  0.19992225  1
  Se  Se240  1  0.91850964  0.75405142  0.70149952  1
  Se  Se241  1  0.08140411  0.23020990  0.17535801  1
  Se  Se242  1  0.08837841  0.24608514  0.70185613  1
  Se  Se243  1  0.08044187  0.58227554  0.19819892  1
  Se  Se244  1  0.07939261  0.59416007  0.69633241  1
  Se  Se245  1  0.08364807  0.91930842  0.20044478  1
  Se  Se246  1  0.08489072  0.91942811  0.69208822  1
  Se  Se247  1  0.41350405  0.25683016  0.20174564  1
  Se  Se248  1  0.42659374  0.23918900  0.68847137  1
  Se  Se249  1  0.41739516  0.58033812  0.19422164  1
  Se  Se250  1  0.42818011  0.57312451  0.68826289  1
  Se  Se251  1  0.42104419  0.91570268  0.19719051  1
  Se  Se252  1  0.41153572  0.90931036  0.68334404  1
  Se  Se253  1  0.76001722  0.25110512  0.18362855  1
  Se  Se254  1  0.75715020  0.24590066  0.70067849  1
  Se  Se255  1  0.75410836  0.58391441  0.18730537  1
  Se  Se256  1  0.76346584  0.57578147  0.68748740  1
  Se  Se257  1  0.74475528  0.91981595  0.19123591  1
  Se  Se258  1  0.74796611  0.91708180  0.69550988  1
