# generated using pymatgen
data_In86Cu29Se144
_symmetry_space_group_name_H-M   'P 1'
_cell_length_a   17.57997417
_cell_length_b   17.57984121
_cell_length_c   23.43689084
_cell_angle_alpha   89.98557340
_cell_angle_beta   89.96770921
_cell_angle_gamma   90.01078358
_symmetry_Int_Tables_number   1
_chemical_formula_structural   In86Cu29Se144
_chemical_formula_sum   'In86 Cu29 Se144'
_cell_volume   7243.24353067
_cell_formula_units_Z   1
loop_
 _symmetry_equiv_pos_site_id
 _symmetry_equiv_pos_as_xyz
  1  'x, y, z'
loop_
 _atom_site_type_symbol
 _atom_site_label
 _atom_site_symmetry_multiplicity
 _atom_site_fract_x
 _atom_site_fract_y
 _atom_site_fract_z
 _atom_site_occupancy
  In  In0  1  0.01153062  0.17480879  0.11844021  1
  In  In1  1  -0.00055953  0.18298358  0.62793371  1
  In  In2  1  -0.00789424  0.49233831  0.11857553  1
  In  In3  1  0.00171509  0.49757724  0.62301935  1
  In  In4  1  0.00900142  0.82190661  0.12333957  1
  In  In5  1  -0.00256769  0.81152333  0.62638020  1
  In  In6  1  0.32499390  0.17631531  0.12026850  1
  In  In7  1  0.34630889  0.15899027  0.63633709  1
  In  In8  1  0.33197083  0.50883478  0.11600290  1
  In  In9  1  0.33084220  0.50310718  0.62889237  1
  In  In10  1  0.33548433  0.83033208  0.11753955  1
  In  In11  1  0.33257014  0.83296906  0.62506738  1
  In  In12  1  0.67705115  0.17505628  0.12648930  1
  In  In13  1  0.66732666  0.16448526  0.61649466  1
  In  In14  1  0.66927139  0.49460757  0.13500006  1
  In  In15  1  0.65415721  0.48963663  0.61073401  1
  In  In16  1  0.64930590  0.82324015  0.12303115  1
  In  In17  1  0.66165645  0.84549382  0.62093666  1
  In  In18  1  0.16024052  -0.00876649  0.37800648  1
  In  In19  1  0.18365807  -0.01178869  0.87900753  1
  In  In20  1  0.17137390  0.34812882  0.37584634  1
  In  In21  1  0.16636588  0.34139623  0.87716827  1
  In  In22  1  0.16374238  0.66749442  0.37902397  1
  In  In23  1  0.16782841  0.66440125  0.86940312  1
  In  In24  1  0.51391685  -0.00736334  0.39712823  1
  In  In25  1  0.48774881  -0.00900268  0.86335271  1
  In  In26  1  0.51061115  0.32572848  0.38671959  1
  In  In27  1  0.49607801  0.32989561  0.86186590  1
  In  In28  1  0.51120781  0.66246481  0.39340232  1
  In  In29  1  0.50171046  0.68531205  0.87599741  1
  In  In30  1  0.84155475  0.00837458  0.38223478  1
  In  In31  1  0.82759229  0.01031636  0.86882481  1
  In  In32  1  0.83082645  0.34180359  0.37842116  1
  In  In33  1  0.84055568  0.33915430  0.86600880  1
  In  In34  1  0.80977448  0.65304696  0.37418194  1
  In  In35  1  0.82514479  0.64423035  0.87520755  1
  In  In36  1  -0.01491891  0.17280376  0.38059130  1
  In  In37  1  -0.00005428  0.18547951  0.87003645  1
  In  In38  1  0.00524742  0.49434670  0.37785180  1
  In  In39  1  -0.00096663  0.50067875  0.87305576  1
  In  In40  1  0.00257720  0.83567902  0.37880310  1
  In  In41  1  0.01541643  0.83126040  0.87378318  1
  In  In42  1  0.34098229  0.17932597  0.38099649  1
  In  In43  1  0.33060836  0.16716798  0.86893588  1
  In  In44  1  0.33267135  0.50439371  0.38724832  1
  In  In45  1  0.31783566  0.48887992  0.86313977  1
  In  In46  1  0.33311254  0.82980383  0.38086373  1
  In  In47  1  0.33418279  0.83038172  0.86890020  1
  In  In48  1  0.65644698  0.17696762  0.38965271  1
  In  In49  1  0.66582276  0.16752595  0.86158633  1
  In  In50  1  0.66842662  0.49777107  0.38471154  1
  In  In51  1  0.68169437  0.50277431  0.87511961  1
  In  In52  1  0.65982669  0.82136887  0.37789077  1
  In  In53  1  0.64344820  0.82524160  0.87275542  1
  In  In54  1  0.16943737  -0.00003210  0.11531365  1
  In  In55  1  0.18330209  -0.00020627  0.63234234  1
  In  In56  1  0.15890660  0.32551448  0.11407285  1
  In  In57  1  0.15660506  0.34304485  0.63556251  1
  In  In58  1  0.17193575  0.66936885  0.11440090  1
  In  In59  1  0.16610225  0.66481260  0.62565832  1
  In  In60  1  0.50784065  -0.01269567  0.12506601  1
  In  In61  1  0.50234813  -0.00162601  0.61667428  1
  In  In62  1  0.50362350  0.34160002  0.12785083  1
  In  In63  1  0.50096327  0.33648033  0.62793680  1
  In  In64  1  0.50201432  0.67259125  0.12708315  1
  In  In65  1  0.49426579  0.65557508  0.61228203  1
  In  In66  1  0.83254802  0.00654118  0.12472974  1
  In  In67  1  0.81046618  -0.00307317  0.61886249  1
  In  In68  1  0.82417775  0.35707758  0.14121125  1
  In  In69  1  0.83383412  0.33345825  0.62199059  1
  In  In70  1  0.83138786  0.64637249  0.12543405  1
  In  In71  1  0.84699834  0.66051184  0.62645664  1
  In  In72  1  0.83821794  0.17090213  -0.00200684  1
  In  In73  1  0.17157519  0.16901065  0.51186335  1
  In  In74  1  0.49127765  0.16182778  -0.01140192  1
  In  In75  1  0.66617371  0.66387225  0.74849795  1
  In  In76  1  0.49480132  0.49975000  -0.00253997  1
  In  In77  1  -0.00515514  0.66271793  0.25618688  1
  In  In78  1  0.33928336  0.66898007  0.24690411  1
  In  In79  1  0.83808172  0.83300181  0.00461821  1
  In  In80  1  0.33947360  -0.00135174  0.25337792  1
  In  In81  1  0.33610861  0.33658328  0.24580701  1
  In  In82  1  0.00119360  0.00323047  0.75220319  1
  In  In83  1  -0.00000302  0.00516158  0.24144591  1
  In  In84  1  0.83361853  0.82749344  0.49680755  1
  In  In85  1  0.67062725  -0.00253735  0.26358160  1
  Cu  Cu86  1  0.33004922  0.66740228  -0.00769940  1
  Cu  Cu87  1  -0.00196026  0.34273085  -0.00439569  1
  Cu  Cu88  1  0.50774985  0.49635975  0.26069141  1
  Cu  Cu89  1  0.16166655  0.50270120  0.74942521  1
  Cu  Cu90  1  0.66964383  0.33574232  0.50329261  1
  Cu  Cu91  1  0.82450912  0.16524596  0.74207075  1
  Cu  Cu92  1  0.66797020  0.33573283  0.00181342  1
  Cu  Cu93  1  0.00047803  0.33580475  0.50263619  1
  Cu  Cu94  1  0.82619003  0.83143518  0.25293142  1
  Cu  Cu95  1  0.16971478  0.17276731  0.75224787  1
  Cu  Cu96  1  0.00480625  0.66638457  -0.00413011  1
  Cu  Cu97  1  0.82999030  0.83123354  0.74303738  1
  Cu  Cu98  1  0.50831663  0.16146701  0.25866035  1
  Cu  Cu99  1  0.49995505  0.50406994  0.74241306  1
  Cu  Cu100  1  0.16245170  0.50161574  0.24852741  1
  Cu  Cu101  1  0.83542287  0.49231068  0.74644035  1
  Cu  Cu102  1  0.00473307  0.65793816  0.50015437  1
  Cu  Cu103  1  0.83198942  0.18630345  0.25525578  1
  Cu  Cu104  1  0.65994305  -0.01220509  -0.00518743  1
  Cu  Cu105  1  0.32815993  0.66780401  0.50445194  1
  Cu  Cu106  1  0.33832067  0.33778058  0.50789725  1
  Cu  Cu107  1  0.33901489  -0.00549535  -0.00626410  1
  Cu  Cu108  1  0.01452559  0.00425554  -0.00256924  1
  Cu  Cu109  1  0.32938622  0.00002985  0.50713235  1
  Cu  Cu110  1  0.17096703  0.82913875  0.75054440  1
  Cu  Cu111  1  0.50535782  0.16857483  0.74166024  1
  Cu  Cu112  1  0.49536702  0.83662327  0.74391803  1
  Cu  Cu113  1  0.00365938  -0.00389575  0.50286363  1
  Cu  Cu114  1  0.15820863  0.17156617  0.24560998  1
  Se  Se115  1  0.09234378  0.09219714  0.05015960  1
  Se  Se116  1  0.07831892  0.07579809  0.56808526  1
  Se  Se117  1  0.08496204  0.42188607  0.05018003  1
  Se  Se118  1  0.08866558  0.41609615  0.55408277  1
  Se  Se119  1  0.08773228  0.75324311  0.04648484  1
  Se  Se120  1  0.08377196  0.74641416  0.55212859  1
  Se  Se121  1  0.41274379  0.07342349  0.06164616  1
  Se  Se122  1  0.41361571  0.08754559  0.55424631  1
  Se  Se123  1  0.40689212  0.40311668  0.05625825  1
  Se  Se124  1  0.41984343  0.42408100  0.56018777  1
  Se  Se125  1  0.41535229  0.74070818  0.05282680  1
  Se  Se126  1  0.41391669  0.75249616  0.55350434  1
  Se  Se127  1  0.73825316  0.07500120  0.05151516  1
  Se  Se128  1  0.74929109  0.08399534  0.54518627  1
  Se  Se129  1  0.74740222  0.41734266  0.05819983  1
  Se  Se130  1  0.75785305  0.41998049  0.55102590  1
  Se  Se131  1  0.74796500  0.74252652  0.06133381  1
  Se  Se132  1  0.75027087  0.74531919  0.56540457  1
  Se  Se133  1  0.24888384  0.25020545  0.04741398  1
  Se  Se134  1  0.25890211  0.25895340  0.57142729  1
  Se  Se135  1  0.24743136  0.58201681  0.04463329  1
  Se  Se136  1  0.24694124  0.58042514  0.55617962  1
  Se  Se137  1  0.25356242  0.91497322  0.05049669  1
  Se  Se138  1  0.24456342  0.91461114  0.55548877  1
  Se  Se139  1  0.58425807  0.25051378  0.05501284  1
  Se  Se140  1  0.58159315  0.25580074  0.55583007  1
  Se  Se141  1  0.58479607  0.58005587  0.06268921  1
  Se  Se142  1  0.59934175  0.59733515  0.54839339  1
  Se  Se143  1  0.57706882  0.90697739  0.04855438  1
  Se  Se144  1  0.57839369  0.91165864  0.54600108  1
  Se  Se145  1  0.91717271  0.26520607  0.06024482  1
  Se  Se146  1  0.91724118  0.24892296  0.55155109  1
  Se  Se147  1  0.92027572  0.58503046  0.04997791  1
  Se  Se148  1  0.91764328  0.57799687  0.55168686  1
  Se  Se149  1  0.93188615  0.93007706  0.06062594  1
  Se  Se150  1  0.92144936  0.91623824  0.56327394  1
  Se  Se151  1  0.08546049  0.25448445  0.44381361  1
  Se  Se152  1  0.08030669  0.25519319  0.94516638  1
  Se  Se153  1  0.08991293  0.57656799  0.44587972  1
  Se  Se154  1  0.08526552  0.58281067  0.94007177  1
  Se  Se155  1  0.08498199  0.91081301  0.45182653  1
  Se  Se156  1  0.09031602  0.91396713  0.94569626  1
  Se  Se157  1  0.41942658  0.25059767  0.45608257  1
  Se  Se158  1  0.40680968  0.26355931  0.93923636  1
  Se  Se159  1  0.41633150  0.58320405  0.45534233  1
  Se  Se160  1  0.41029194  0.58711010  0.93197129  1
  Se  Se161  1  0.40923094  0.91684482  0.45032842  1
  Se  Se162  1  0.42021085  0.90988032  0.94072361  1
  Se  Se163  1  0.75485003  0.25331003  0.44917358  1
  Se  Se164  1  0.74274597  0.25445962  0.93786740  1
  Se  Se165  1  0.73948076  0.58876880  0.45644004  1
  Se  Se166  1  0.74585663  0.58125729  0.95355354  1
  Se  Se167  1  0.74628261  0.92139846  0.43859933  1
  Se  Se168  1  0.74893669  0.91629862  0.93652528  1
  Se  Se169  1  0.25312423  0.08003758  0.44151815  1
  Se  Se170  1  0.25774064  0.08319739  0.94374062  1
  Se  Se171  1  0.25157494  0.41562440  0.45283760  1
  Se  Se172  1  0.24711983  0.42566190  0.94581120  1
  Se  Se173  1  0.24592118  0.74961945  0.44746903  1
  Se  Se174  1  0.24800093  0.75173769  0.93841482  1
  Se  Se175  1  0.58572619  0.08777853  0.45881892  1
  Se  Se176  1  0.58873390  0.07447367  0.93365829  1
  Se  Se177  1  0.57980727  0.41898287  0.45441275  1
  Se  Se178  1  0.58558477  0.40792671  0.93741918  1
  Se  Se179  1  0.57726608  0.76436668  0.45751950  1
  Se  Se180  1  0.59393363  0.73845573  0.95203438  1
  Se  Se181  1  0.92103290  0.08481195  0.45565582  1
  Se  Se182  1  0.92851780  0.07771369  0.93794466  1
  Se  Se183  1  0.91843606  0.41964635  0.44851509  1
  Se  Se184  1  0.91004280  0.42030569  0.94204998  1
  Se  Se185  1  0.92186980  0.73376728  0.43586803  1
  Se  Se186  1  0.92024145  0.74481421  0.93677669  1
  Se  Se187  1  0.24467291  0.24437996  0.30690051  1
  Se  Se188  1  0.24968814  0.25863469  0.80615746  1
  Se  Se189  1  0.24705631  0.57738793  0.30739837  1
  Se  Se190  1  0.25081242  0.58697863  0.79698785  1
  Se  Se191  1  0.24320124  0.90902896  0.30727670  1
  Se  Se192  1  0.25498346  0.91730771  0.79850558  1
  Se  Se193  1  0.58625972  0.25136087  0.30904764  1
  Se  Se194  1  0.58699921  0.25444294  0.79521423  1
  Se  Se195  1  0.58215036  0.58298815  0.31633972  1
  Se  Se196  1  0.57576643  0.57728868  0.81197773  1
  Se  Se197  1  0.56955463  0.90993602  0.31109917  1
  Se  Se198  1  0.58256901  0.91550319  0.79833322  1
  Se  Se199  1  0.92092157  0.26176972  0.30829259  1
  Se  Se200  1  0.90997617  0.24643783  0.79611595  1
  Se  Se201  1  0.90528497  0.57029908  0.31103635  1
  Se  Se202  1  0.91316799  0.58010390  0.80143323  1
  Se  Se203  1  0.91016682  0.91406160  0.30641062  1
  Se  Se204  1  0.90973075  0.90829790  0.80902499  1
  Se  Se205  1  0.08536874  0.09111486  0.31072268  1
  Se  Se206  1  0.09278309  0.08779639  0.81416485  1
  Se  Se207  1  0.08449791  0.41577369  0.30271627  1
  Se  Se208  1  0.08078655  0.41660795  0.80420747  1
  Se  Se209  1  0.08979501  0.75931552  0.30542981  1
  Se  Se210  1  0.08236426  0.74686041  0.79919848  1
  Se  Se211  1  0.42712789  0.08516466  0.31866309  1
  Se  Se212  1  0.42029197  0.09108295  0.80067232  1
  Se  Se213  1  0.41960939  0.41879023  0.31627295  1
  Se  Se214  1  0.41712611  0.42065794  0.79795185  1
  Se  Se215  1  0.42468682  0.74728575  0.31625177  1
  Se  Se216  1  0.41787243  0.74893244  0.79851208  1
  Se  Se217  1  0.75895543  0.09787119  0.31415965  1
  Se  Se218  1  0.74401937  0.07828845  0.79438913  1
  Se  Se219  1  0.73811712  0.41207025  0.31088630  1
  Se  Se220  1  0.74687962  0.41506660  0.80073341  1
  Se  Se221  1  0.74398833  0.74835784  0.30489327  1
  Se  Se222  1  0.75449038  0.75436978  0.81166956  1
  Se  Se223  1  0.24421986  0.08897854  0.19336759  1
  Se  Se224  1  0.25359275  0.08506961  0.70437783  1
  Se  Se225  1  0.24445760  0.42488228  0.18641783  1
  Se  Se226  1  0.24993571  0.41957810  0.69957988  1
  Se  Se227  1  0.24371707  0.75690516  0.19095619  1
  Se  Se228  1  0.25176782  0.74716969  0.69373194  1
  Se  Se229  1  0.58425677  0.08559087  0.19221927  1
  Se  Se230  1  0.58375746  0.08243735  0.68704825  1
  Se  Se231  1  0.58394407  0.41041085  0.20309949  1
  Se  Se232  1  0.58813150  0.42068870  0.69491722  1
  Se  Se233  1  0.58473157  0.74376226  0.20037669  1
  Se  Se234  1  0.57711820  0.75235958  0.68701394  1
  Se  Se235  1  0.90601492  0.10442304  0.19108315  1
  Se  Se236  1  0.90985169  0.08341389  0.68584260  1
  Se  Se237  1  0.92608415  0.42357715  0.20130269  1
  Se  Se238  1  0.92075358  0.41162051  0.69223117  1
  Se  Se239  1  0.90866116  0.75612491  0.19135093  1
  Se  Se240  1  0.91717589  0.74215682  0.70315535  1
  Se  Se241  1  0.07944623  0.25858717  0.19420342  1
  Se  Se242  1  0.08007233  0.25264807  0.70362776  1
  Se  Se243  1  0.08824988  0.58527159  0.18755818  1
  Se  Se244  1  0.07874914  0.58412184  0.69369374  1
  Se  Se245  1  0.09397496  0.91139828  0.19053303  1
  Se  Se246  1  0.08526554  0.90811068  0.69096291  1
  Se  Se247  1  0.42736326  0.23585335  0.19325766  1
  Se  Se248  1  0.41659095  0.25783416  0.69957167  1
  Se  Se249  1  0.42687348  0.56694162  0.19380545  1
  Se  Se250  1  0.41722661  0.59092294  0.69365573  1
  Se  Se251  1  0.42470587  0.90282130  0.19475746  1
  Se  Se252  1  0.41577713  0.92242028  0.68945645  1
  Se  Se253  1  0.74281564  0.26024219  0.20037522  1
  Se  Se254  1  0.74568089  0.25076175  0.68757652  1
  Se  Se255  1  0.75035509  0.58132671  0.20106046  1
  Se  Se256  1  0.75221087  0.57236312  0.68750827  1
  Se  Se257  1  0.75247245  0.91393481  0.18943484  1
  Se  Se258  1  0.74389803  0.91646212  0.69723393  1
