# generated using pymatgen
data_In86Cu29Se144
_symmetry_space_group_name_H-M   'P 1'
_cell_length_a   17.57758134
_cell_length_b   17.58272617
_cell_length_c   23.44594744
_cell_angle_alpha   90.01536662
_cell_angle_beta   90.01999661
_cell_angle_gamma   89.98720576
_symmetry_Int_Tables_number   1
_chemical_formula_structural   In86Cu29Se144
_chemical_formula_sum   'In86 Cu29 Se144'
_cell_volume   7246.24582129
_cell_formula_units_Z   1
loop_
 _symmetry_equiv_pos_site_id
 _symmetry_equiv_pos_as_xyz
  1  'x, y, z'
loop_
 _atom_site_type_symbol
 _atom_site_label
 _atom_site_symmetry_multiplicity
 _atom_site_fract_x
 _atom_site_fract_y
 _atom_site_fract_z
 _atom_site_occupancy
  In  In0  1  0.01961229  0.17383775  0.11578971  1
  In  In1  1  0.00079305  0.16869580  0.63336635  1
  In  In2  1  -0.00697602  0.49863481  0.12853544  1
  In  In3  1  0.00919756  0.49580150  0.62920731  1
  In  In4  1  -0.00249647  0.83090675  0.10906998  1
  In  In5  1  -0.00499864  0.83624702  0.63375457  1
  In  In6  1  0.32382207  0.17679367  0.13742323  1
  In  In7  1  0.33227017  0.16781370  0.63185802  1
  In  In8  1  0.32027949  0.48206672  0.12477207  1
  In  In9  1  0.32896810  0.50230437  0.62605682  1
  In  In10  1  0.34476773  0.84334916  0.11228169  1
  In  In11  1  0.34284879  0.82380830  0.63288058  1
  In  In12  1  0.64956511  0.16226593  0.12697994  1
  In  In13  1  0.67097236  0.16427233  0.63570888  1
  In  In14  1  0.67571197  0.49176625  0.12207062  1
  In  In15  1  0.65897696  0.51177255  0.63354873  1
  In  In16  1  0.67650199  0.84149675  0.11626554  1
  In  In17  1  0.66479038  0.83207884  0.62769199  1
  In  In18  1  0.18049319  -0.01092978  0.36993482  1
  In  In19  1  0.16686411  0.00200993  0.87415822  1
  In  In20  1  0.16640480  0.34326338  0.37075648  1
  In  In21  1  0.16088894  0.32526099  0.87608295  1
  In  In22  1  0.15878048  0.65125468  0.37931897  1
  In  In23  1  0.17561204  0.67770798  0.86466935  1
  In  In24  1  0.49203485  -0.00862573  0.36994699  1
  In  In25  1  0.48891259  -0.00900274  0.86774058  1
  In  In26  1  0.50190335  0.34218101  0.38101937  1
  In  In27  1  0.49652066  0.32934896  0.86723276  1
  In  In28  1  0.49931632  0.66343855  0.38768839  1
  In  In29  1  0.50983887  0.67539355  0.86760330  1
  In  In30  1  0.82384201  -0.00308343  0.37478701  1
  In  In31  1  0.82290442  -0.00859756  0.86935347  1
  In  In32  1  0.83087578  0.33209597  0.36849340  1
  In  In33  1  0.84879721  0.34895674  0.87115918  1
  In  In34  1  0.85536959  0.67523999  0.38416784  1
  In  In35  1  0.83539271  0.66683120  0.87183434  1
  In  In36  1  -0.01152065  0.17641626  0.37292602  1
  In  In37  1  0.01737744  0.18164359  0.87186450  1
  In  In38  1  0.00542517  0.49683593  0.37854097  1
  In  In39  1  -0.01030081  0.48977354  0.86940507  1
  In  In40  1  -0.00351227  0.81763528  0.38134341  1
  In  In41  1  -0.00098384  0.83348122  0.87030058  1
  In  In42  1  0.33978622  0.16852559  0.36563494  1
  In  In43  1  0.32757649  0.16398444  0.87410386  1
  In  In44  1  0.33366936  0.49596766  0.38038615  1
  In  In45  1  0.32652675  0.49700504  0.86575421  1
  In  In46  1  0.33650866  0.84201236  0.37427973  1
  In  In47  1  0.33324540  0.83599038  0.87450691  1
  In  In48  1  0.67952182  0.16121202  0.37157380  1
  In  In49  1  0.66260403  0.16407669  0.86479113  1
  In  In50  1  0.66031035  0.48941711  0.38153867  1
  In  In51  1  0.67877918  0.51255168  0.86557390  1
  In  In52  1  0.66114719  0.83426660  0.38231937  1
  In  In53  1  0.66569073  0.83348547  0.87502310  1
  In  In54  1  0.17623075  0.00913978  0.11343683  1
  In  In55  1  0.16799436  -0.00149703  0.63482593  1
  In  In56  1  0.17717334  0.32749667  0.13145414  1
  In  In57  1  0.15155169  0.35355610  0.63173190  1
  In  In58  1  0.15539456  0.66590516  0.11784602  1
  In  In59  1  0.17356292  0.66138852  0.63352285  1
  In  In60  1  0.50711170  -0.00092362  0.13178301  1
  In  In61  1  0.51029989  -0.00919579  0.63314119  1
  In  In62  1  0.48369134  0.32167413  0.12378859  1
  In  In63  1  0.48808810  0.34533661  0.63242969  1
  In  In64  1  0.48817116  0.67291234  0.12267952  1
  In  In65  1  0.49884604  0.66687540  0.62530641  1
  In  In66  1  0.83413317  -0.01137729  0.12149902  1
  In  In67  1  0.84023954  -0.00749195  0.63644447  1
  In  In68  1  0.83964537  0.34987273  0.11775456  1
  In  In69  1  0.84167971  0.33031707  0.63403599  1
  In  In70  1  0.83520713  0.66635110  0.11490616  1
  In  In71  1  0.82489958  0.67277987  0.63328760  1
  In  In72  1  0.50640838  0.50717978  0.00142125  1
  In  In73  1  0.83621840  0.16460175  -0.00581565  1
  In  In74  1  0.50192162  0.16567247  0.49520403  1
  In  In75  1  0.00323753  0.00350633  0.24314694  1
  In  In76  1  0.82875180  0.50524157  0.50268120  1
  In  In77  1  0.49464040  0.16330645  0.00112497  1
  In  In78  1  0.32896741  0.66633726  0.25304127  1
  In  In79  1  0.83424598  0.16761603  0.50937971  1
  In  In80  1  0.16750792  0.82735642  0.50026775  1
  In  In81  1  0.16917547  0.17106357  0.49256347  1
  In  In82  1  0.16279640  0.49923528  -0.00384959  1
  In  In83  1  0.65845486  0.32402117  0.25020876  1
  In  In84  1  0.67129064  0.66508095  0.24977981  1
  In  In85  1  -0.00120605  0.65895421  0.25360150  1
  Cu  Cu86  1  -0.00084747  -0.00380893  0.50842002  1
  Cu  Cu87  1  0.17085861  0.16800611  0.75203657  1
  Cu  Cu88  1  0.33118989  -0.00077015  -0.00371868  1
  Cu  Cu89  1  0.00079427  0.66887773  -0.00806075  1
  Cu  Cu90  1  -0.00009975  -0.00414981  -0.00802054  1
  Cu  Cu91  1  0.34373935  -0.00818901  0.50205482  1
  Cu  Cu92  1  0.66515073  0.66928698  0.50873146  1
  Cu  Cu93  1  0.66286337  -0.00697269  -0.00119389  1
  Cu  Cu94  1  0.16631727  0.16655369  0.24811370  1
  Cu  Cu95  1  0.49785472  0.50074972  0.74806024  1
  Cu  Cu96  1  0.49271414  0.49307669  0.25376581  1
  Cu  Cu97  1  0.50077876  0.83319090  0.75049240  1
  Cu  Cu98  1  0.82742541  0.83088419  0.75296495  1
  Cu  Cu99  1  0.67207309  0.67214395  -0.00856769  1
  Cu  Cu100  1  0.50713719  0.83887735  0.24951118  1
  Cu  Cu101  1  0.33310952  0.66118724  0.50793641  1
  Cu  Cu102  1  0.33517032  0.67110533  -0.00742575  1
  Cu  Cu103  1  0.83626700  0.50005379  0.74805665  1
  Cu  Cu104  1  0.83159755  0.16780140  0.24550518  1
  Cu  Cu105  1  0.83140678  0.83671024  0.24697330  1
  Cu  Cu106  1  0.17105322  0.83469688  0.24320160  1
  Cu  Cu107  1  0.16838793  0.50086387  0.75193974  1
  Cu  Cu108  1  0.16455003  0.83814206  0.75275156  1
  Cu  Cu109  1  0.66676145  -0.01390906  0.50201459  1
  Cu  Cu110  1  0.49892181  0.16885236  0.74968289  1
  Cu  Cu111  1  0.32129716  0.34412791  0.50490826  1
  Cu  Cu112  1  0.83729788  0.16614299  0.75608402  1
  Cu  Cu113  1  0.66002483  0.33663399  0.50847837  1
  Cu  Cu114  1  0.67314054  0.34069134  -0.00782652  1
  Se  Se115  1  0.08235286  0.07951742  0.04566786  1
  Se  Se116  1  0.08340060  0.08031172  0.55938633  1
  Se  Se117  1  0.08352573  0.41249177  0.06427015  1
  Se  Se118  1  0.08342804  0.42323109  0.55067565  1
  Se  Se119  1  0.08699990  0.75069485  0.04415977  1
  Se  Se120  1  0.08093678  0.74654797  0.56631648  1
  Se  Se121  1  0.40754481  0.07605981  0.06344361  1
  Se  Se122  1  0.41616094  0.07923885  0.56110375  1
  Se  Se123  1  0.41082684  0.41108816  0.05085983  1
  Se  Se124  1  0.41372459  0.42035153  0.55552958  1
  Se  Se125  1  0.42207893  0.75246544  0.04515801  1
  Se  Se126  1  0.41626330  0.75031608  0.55439827  1
  Se  Se127  1  0.74018961  0.07959740  0.05690650  1
  Se  Se128  1  0.74295154  0.07151347  0.56135432  1
  Se  Se129  1  0.75562978  0.42428130  0.04464612  1
  Se  Se130  1  0.74578900  0.41187093  0.56687822  1
  Se  Se131  1  0.75503227  0.75367044  0.04932048  1
  Se  Se132  1  0.75091727  0.75256033  0.55770402  1
  Se  Se133  1  0.24804956  0.24286669  0.05838679  1
  Se  Se134  1  0.24891779  0.25617708  0.56317892  1
  Se  Se135  1  0.26060305  0.58901532  0.05602969  1
  Se  Se136  1  0.24250076  0.58135854  0.55531583  1
  Se  Se137  1  0.24637022  0.91236415  0.04760500  1
  Se  Se138  1  0.25528509  0.91934323  0.56071972  1
  Se  Se139  1  0.59077516  0.26276556  0.05310325  1
  Se  Se140  1  0.58422185  0.25018766  0.56531345  1
  Se  Se141  1  0.59768556  0.59817449  0.06225232  1
  Se  Se142  1  0.58110066  0.58137719  0.55547400  1
  Se  Se143  1  0.57727943  0.91635828  0.05547768  1
  Se  Se144  1  0.57829384  0.91033986  0.55583435  1
  Se  Se145  1  0.92330981  0.25646080  0.05317566  1
  Se  Se146  1  0.93112043  0.26000997  0.55760088  1
  Se  Se147  1  0.92688393  0.58504702  0.05293729  1
  Se  Se148  1  0.91634235  0.58769320  0.56743034  1
  Se  Se149  1  0.91217436  0.91686525  0.04513558  1
  Se  Se150  1  0.91462396  0.91528226  0.55968280  1
  Se  Se151  1  0.07213878  0.25996515  0.44128593  1
  Se  Se152  1  0.08661395  0.25066501  0.95317179  1
  Se  Se153  1  0.05158467  0.60632046  0.44420814  1
  Se  Se154  1  0.08143283  0.59008427  0.93108029  1
  Se  Se155  1  0.07926379  0.92484851  0.44075120  1
  Se  Se156  1  0.08502689  0.91293030  0.94021192  1
  Se  Se157  1  0.40211456  0.25978444  0.44637721  1
  Se  Se158  1  0.41005195  0.25780783  0.94281637  1
  Se  Se159  1  0.41492068  0.57783996  0.45083448  1
  Se  Se160  1  0.41366049  0.58682124  0.93543362  1
  Se  Se161  1  0.42453657  0.90863751  0.44788096  1
  Se  Se162  1  0.41792028  0.91588536  0.94647051  1
  Se  Se163  1  0.74132147  0.25832472  0.44677369  1
  Se  Se164  1  0.74567588  0.25342650  0.93356529  1
  Se  Se165  1  0.74074344  0.59553712  0.43851939  1
  Se  Se166  1  0.75468659  0.58313727  0.94432041  1
  Se  Se167  1  0.75625874  0.91025557  0.44772488  1
  Se  Se168  1  0.75037466  0.91365364  0.94637203  1
  Se  Se169  1  0.26378348  0.07269687  0.44241247  1
  Se  Se170  1  0.24778315  0.08468755  0.94621015  1
  Se  Se171  1  0.23919007  0.42295168  0.44744917  1
  Se  Se172  1  0.25821416  0.41060034  0.94172011  1
  Se  Se173  1  0.25966916  0.73779570  0.43795184  1
  Se  Se174  1  0.24762491  0.75329986  0.94336520  1
  Se  Se175  1  0.59545059  0.07315433  0.44051118  1
  Se  Se176  1  0.58607005  0.07656243  0.93930130  1
  Se  Se177  1  0.57711039  0.42063022  0.45651564  1
  Se  Se178  1  0.58761850  0.41751203  0.93434033  1
  Se  Se179  1  0.58177689  0.75035541  0.45157237  1
  Se  Se180  1  0.58059185  0.75289687  0.94565334  1
  Se  Se181  1  0.92187471  0.07604773  0.44421251  1
  Se  Se182  1  0.92264437  0.07757088  0.93078560  1
  Se  Se183  1  0.91234024  0.40892608  0.44313355  1
  Se  Se184  1  0.92050014  0.41920735  0.95055216  1
  Se  Se185  1  0.91564397  0.75961110  0.46097965  1
  Se  Se186  1  0.91534154  0.75268678  0.94128845  1
  Se  Se187  1  0.24477639  0.24905565  0.30691431  1
  Se  Se188  1  0.25187601  0.25370390  0.80547704  1
  Se  Se189  1  0.23958706  0.57130268  0.30647011  1
  Se  Se190  1  0.25468145  0.58879838  0.79806525  1
  Se  Se191  1  0.25859228  0.91324590  0.29597997  1
  Se  Se192  1  0.25144019  0.91980524  0.80499214  1
  Se  Se193  1  0.57260189  0.23810077  0.31584391  1
  Se  Se194  1  0.58517364  0.25394421  0.79890829  1
  Se  Se195  1  0.57496282  0.57609476  0.30921858  1
  Se  Se196  1  0.58331110  0.58409244  0.80010222  1
  Se  Se197  1  0.59059130  0.91661007  0.30688060  1
  Se  Se198  1  0.58487611  0.91689737  0.80409846  1
  Se  Se199  1  0.91307162  0.25284220  0.29754846  1
  Se  Se200  1  0.92102691  0.25276890  0.80575244  1
  Se  Se201  1  0.90250747  0.57371654  0.31062709  1
  Se  Se202  1  0.91895395  0.58430051  0.80226136  1
  Se  Se203  1  0.91918311  0.91001715  0.30766779  1
  Se  Se204  1  0.91398160  0.91650420  0.80174632  1
  Se  Se205  1  0.08900434  0.08795267  0.31337589  1
  Se  Se206  1  0.08464168  0.08550620  0.80384893  1
  Se  Se207  1  0.07041415  0.41230104  0.30418122  1
  Se  Se208  1  0.08739436  0.41592849  0.80658408  1
  Se  Se209  1  0.09485496  0.75630032  0.30686547  1
  Se  Se210  1  0.07956317  0.74987384  0.79948714  1
  Se  Se211  1  0.41126592  0.07364131  0.30333745  1
  Se  Se212  1  0.41512041  0.08698381  0.80476190  1
  Se  Se213  1  0.41304736  0.41158196  0.30958886  1
  Se  Se214  1  0.41528622  0.41593596  0.80083824  1
  Se  Se215  1  0.42961672  0.75280481  0.30824901  1
  Se  Se216  1  0.41506296  0.75192059  0.80429066  1
  Se  Se217  1  0.75491452  0.07980711  0.29864608  1
  Se  Se218  1  0.74797377  0.08045955  0.80002664  1
  Se  Se219  1  0.74673723  0.42457692  0.30365501  1
  Se  Se220  1  0.75286904  0.41551256  0.80225239  1
  Se  Se221  1  0.76117152  0.75371655  0.31168267  1
  Se  Se222  1  0.74441647  0.74669868  0.80597697  1
  Se  Se223  1  0.24508626  0.07711568  0.19686216  1
  Se  Se224  1  0.25351641  0.08178594  0.69983339  1
  Se  Se225  1  0.25380836  0.41027953  0.20374635  1
  Se  Se226  1  0.25212334  0.41683692  0.69793468  1
  Se  Se227  1  0.24834899  0.75261553  0.18265329  1
  Se  Se228  1  0.24887990  0.75351796  0.69980265  1
  Se  Se229  1  0.58200452  0.08431613  0.20260128  1
  Se  Se230  1  0.58391940  0.08241742  0.70049230  1
  Se  Se231  1  0.57322629  0.42089053  0.18781342  1
  Se  Se232  1  0.58484811  0.41580541  0.69787675  1
  Se  Se233  1  0.58117058  0.75453969  0.18897698  1
  Se  Se234  1  0.58184420  0.74796886  0.69578861  1
  Se  Se235  1  0.91347196  0.09285738  0.18162793  1
  Se  Se236  1  0.92013474  0.08354378  0.70017246  1
  Se  Se237  1  0.91517734  0.41408688  0.19762162  1
  Se  Se238  1  0.92379800  0.41608413  0.69939177  1
  Se  Se239  1  0.91454444  0.75585703  0.18968870  1
  Se  Se240  1  0.91470405  0.74948725  0.70122019  1
  Se  Se241  1  0.08192450  0.25010333  0.19730464  1
  Se  Se242  1  0.08756143  0.25166565  0.69744178  1
  Se  Se243  1  0.09488678  0.57488824  0.19389448  1
  Se  Se244  1  0.08284568  0.58400614  0.70022835  1
  Se  Se245  1  0.08707053  0.90935910  0.18260482  1
  Se  Se246  1  0.07882498  0.92110453  0.70053033  1
  Se  Se247  1  0.42500931  0.24108470  0.20184299  1
  Se  Se248  1  0.41378681  0.25267791  0.69863624  1
  Se  Se249  1  0.41844126  0.57399981  0.19023958  1
  Se  Se250  1  0.41471232  0.58474454  0.69389560  1
  Se  Se251  1  0.41699515  0.91202018  0.19389852  1
  Se  Se252  1  0.41530006  0.91841741  0.69912497  1
  Se  Se253  1  0.75367053  0.24739874  0.18234757  1
  Se  Se254  1  0.75497209  0.24972873  0.70018627  1
  Se  Se255  1  0.76228461  0.57631900  0.19042874  1
  Se  Se256  1  0.74771332  0.58581283  0.70247364  1
  Se  Se257  1  0.74777105  0.91943372  0.19516678  1
  Se  Se258  1  0.74508455  0.91589281  0.69868710  1
