# generated using pymatgen
data_In86Cu29Se144
_symmetry_space_group_name_H-M   'P 1'
_cell_length_a   17.57878194
_cell_length_b   17.58008255
_cell_length_c   23.43590639
_cell_angle_alpha   90.00214744
_cell_angle_beta   89.99494048
_cell_angle_gamma   89.99331670
_symmetry_Int_Tables_number   1
_chemical_formula_structural   In86Cu29Se144
_chemical_formula_sum   'In86 Cu29 Se144'
_cell_volume   7242.54894048
_cell_formula_units_Z   1
loop_
 _symmetry_equiv_pos_site_id
 _symmetry_equiv_pos_as_xyz
  1  'x, y, z'
loop_
 _atom_site_type_symbol
 _atom_site_label
 _atom_site_symmetry_multiplicity
 _atom_site_fract_x
 _atom_site_fract_y
 _atom_site_fract_z
 _atom_site_occupancy
  In  In0  1  0.01453435  0.17633562  0.10546947  1
  In  In1  1  0.01182525  0.17451625  0.63031190  1
  In  In2  1  -0.00071028  0.50204435  0.13007938  1
  In  In3  1  -0.00469009  0.50683505  0.63134849  1
  In  In4  1  -0.02610342  0.82623629  0.11760177  1
  In  In5  1  -0.01912100  0.82788575  0.62343909  1
  In  In6  1  0.33099281  0.16238620  0.09891020  1
  In  In7  1  0.33174413  0.17358073  0.63853751  1
  In  In8  1  0.32688235  0.49691993  0.11560568  1
  In  In9  1  0.33147856  0.49602138  0.62435197  1
  In  In10  1  0.34250925  0.83835820  0.12410064  1
  In  In11  1  0.35125060  0.82779982  0.62791312  1
  In  In12  1  0.66808907  0.16838422  0.10795726  1
  In  In13  1  0.66331099  0.16746230  0.63807920  1
  In  In14  1  0.69215097  0.53119680  0.09351250  1
  In  In15  1  0.67155512  0.50160627  0.62688398  1
  In  In16  1  0.67126852  0.80768316  0.12783561  1
  In  In17  1  0.66658757  0.83108982  0.63026004  1
  In  In18  1  0.17540491  0.00609818  0.37463977  1
  In  In19  1  0.17972116  0.00620762  0.87676357  1
  In  In20  1  0.16235083  0.34895224  0.37678251  1
  In  In21  1  0.16249370  0.33885129  0.87258409  1
  In  In22  1  0.15139870  0.65551151  0.37048573  1
  In  In23  1  0.14991966  0.65908418  0.86913639  1
  In  In24  1  0.50371500  -0.00192454  0.38519357  1
  In  In25  1  0.50207898  0.00242814  0.87378310  1
  In  In26  1  0.50869976  0.33748537  0.37454488  1
  In  In27  1  0.49910066  0.33474151  0.86907993  1
  In  In28  1  0.50491937  0.66435036  0.37810459  1
  In  In29  1  0.51118120  0.65096194  0.88110294  1
  In  In30  1  0.82128860  -0.01270305  0.37659165  1
  In  In31  1  0.82636237  0.00959209  0.88446619  1
  In  In32  1  0.85234398  0.33749022  0.37117609  1
  In  In33  1  0.83239054  0.33470929  0.87389019  1
  In  In34  1  0.83017522  0.66495187  0.37876714  1
  In  In35  1  0.82748935  0.65732404  0.88116978  1
  In  In36  1  -0.00740263  0.18320439  0.36815079  1
  In  In37  1  -0.01504593  0.17693858  0.88736069  1
  In  In38  1  -0.00550062  0.49891266  0.37835041  1
  In  In39  1  -0.00173742  0.49484595  0.87432178  1
  In  In40  1  -0.00570815  0.81174238  0.37230446  1
  In  In41  1  -0.00649055  0.81347211  0.87253453  1
  In  In42  1  0.33146677  0.16348763  0.37409614  1
  In  In43  1  0.33133243  0.16692434  0.88043308  1
  In  In44  1  0.33213899  0.49964934  0.38381240  1
  In  In45  1  0.33620307  0.49266550  0.87528320  1
  In  In46  1  0.33869302  0.83822843  0.38109276  1
  In  In47  1  0.33016040  0.84579144  0.87069458  1
  In  In48  1  0.65676164  0.16381225  0.37397417  1
  In  In49  1  0.66615897  0.16497891  0.87214882  1
  In  In50  1  0.65544667  0.51221886  0.38464003  1
  In  In51  1  0.67244423  0.50048918  0.87462895  1
  In  In52  1  0.67775419  0.82926001  0.38674525  1
  In  In53  1  0.66785250  0.83251075  0.87332437  1
  In  In54  1  0.15623907  0.00454293  0.11075838  1
  In  In55  1  0.16699254  0.01092417  0.63271381  1
  In  In56  1  0.16330971  0.33437802  0.11989390  1
  In  In57  1  0.14053085  0.37620385  0.66396021  1
  In  In58  1  0.15714471  0.64845653  0.12400424  1
  In  In59  1  0.16791900  0.64687202  0.63091324  1
  In  In60  1  0.49721924  0.00220736  0.11870244  1
  In  In61  1  0.51110870  -0.01211182  0.64037839  1
  In  In62  1  0.50375945  0.33639021  0.11147920  1
  In  In63  1  0.49442480  0.33896487  0.63444091  1
  In  In64  1  0.52316852  0.66857908  0.12530359  1
  In  In65  1  0.51468904  0.68052968  0.61959422  1
  In  In66  1  0.83565135  -0.01112487  0.10585073  1
  In  In67  1  0.82718736  -0.01557249  0.62276547  1
  In  In68  1  0.84526377  0.34779257  0.11520022  1
  In  In69  1  0.82136981  0.34353508  0.63643532  1
  In  In70  1  0.83641097  0.66650562  0.12699946  1
  In  In71  1  0.83201734  0.66388306  0.62970023  1
  In  In72  1  0.33426925  0.66301025  0.25757084  1
  In  In73  1  0.83038260  0.17274662  0.50339774  1
  In  In74  1  -0.00005914  -0.00113981  0.23284466  1
  In  In75  1  0.33280249  -0.00276263  0.23272330  1
  In  In76  1  0.67197960  0.34836099  0.24012608  1
  In  In77  1  0.16769923  0.83367930  -0.00324196  1
  In  In78  1  -0.00414185  0.00362252  0.75283686  1
  In  In79  1  0.50665311  0.83154082  -0.00443712  1
  In  In80  1  0.33032117  0.33435818  0.23602326  1
  In  In81  1  0.16754309  0.82638962  0.49629873  1
  In  In82  1  0.17112176  0.17380216  0.51477052  1
  In  In83  1  0.33713145  0.66662223  0.75374548  1
  In  In84  1  0.49766218  0.16873481  0.49876163  1
  In  In85  1  0.67107868  -0.00483272  0.25662286  1
  Cu  Cu86  1  0.66958083  0.33915433  0.50252037  1
  Cu  Cu87  1  0.50756365  0.50354886  0.74984588  1
  Cu  Cu88  1  0.49826619  0.16113220  0.24167240  1
  Cu  Cu89  1  0.66200401  0.32931123  -0.01233846  1
  Cu  Cu90  1  0.66688774  -0.00253559  -0.00639765  1
  Cu  Cu91  1  0.49708147  0.16443731  0.75767876  1
  Cu  Cu92  1  -0.00926197  -0.00610021  0.49401154  1
  Cu  Cu93  1  -0.00590030  0.66218326  0.50086873  1
  Cu  Cu94  1  0.15596002  0.17574797  0.24187456  1
  Cu  Cu95  1  0.33090420  0.33527032  -0.00892534  1
  Cu  Cu96  1  0.32860377  0.34220981  0.50995987  1
  Cu  Cu97  1  0.82946450  0.50814994  0.24752294  1
  Cu  Cu98  1  0.17129116  0.17056553  0.75697067  1
  Cu  Cu99  1  -0.00550142  0.65741750  -0.00193708  1
  Cu  Cu100  1  0.00486440  0.34449086  0.50797511  1
  Cu  Cu101  1  0.83863447  0.16918659  0.23898764  1
  Cu  Cu102  1  0.16868639  0.82396451  0.24430079  1
  Cu  Cu103  1  0.67133347  0.66611860  0.50526518  1
  Cu  Cu104  1  0.82825083  0.82738722  0.75143511  1
  Cu  Cu105  1  0.16389864  0.83419012  0.75372535  1
  Cu  Cu106  1  0.83507442  0.50234535  0.75485214  1
  Cu  Cu107  1  0.83468362  0.16492948  0.75710206  1
  Cu  Cu108  1  -0.00264861  0.34327517  -0.00118873  1
  Cu  Cu109  1  0.33982220  0.65982249  0.50433696  1
  Cu  Cu110  1  0.50067014  0.50291057  0.24664602  1
  Cu  Cu111  1  0.83124024  0.82527195  0.25095442  1
  Cu  Cu112  1  0.34453382  -0.00814664  0.51227117  1
  Cu  Cu113  1  0.33101948  0.66596486  -0.00346398  1
  Cu  Cu114  1  0.50388993  0.83481235  0.75129617  1
  Se  Se115  1  0.08756296  0.08604987  0.03721591  1
  Se  Se116  1  0.07070158  0.07230085  0.55628387  1
  Se  Se117  1  0.08007890  0.42277438  0.05618643  1
  Se  Se118  1  0.08753482  0.42175268  0.56628301  1
  Se  Se119  1  0.07662840  0.74230661  0.05586192  1
  Se  Se120  1  0.07905230  0.74151194  0.56118396  1
  Se  Se121  1  0.42883404  0.08301897  0.04475214  1
  Se  Se122  1  0.41634993  0.08332626  0.56919604  1
  Se  Se123  1  0.41235799  0.41678239  0.04851355  1
  Se  Se124  1  0.42381514  0.41904748  0.55715339  1
  Se  Se125  1  0.41341734  0.74126596  0.05708162  1
  Se  Se126  1  0.42037500  0.75088328  0.55020613  1
  Se  Se127  1  0.75283684  0.08136306  0.04527167  1
  Se  Se128  1  0.74187593  0.08305256  0.56292814  1
  Se  Se129  1  0.74251585  0.40672719  0.04877130  1
  Se  Se130  1  0.75501813  0.41906525  0.55532187  1
  Se  Se131  1  0.76923820  0.76079791  0.05623855  1
  Se  Se132  1  0.75108970  0.74954561  0.56123096  1
  Se  Se133  1  0.24363305  0.25644661  0.04623491  1
  Se  Se134  1  0.25094825  0.26807166  0.57472073  1
  Se  Se135  1  0.24555887  0.58453632  0.04937534  1
  Se  Se136  1  0.25130279  0.58095675  0.55459548  1
  Se  Se137  1  0.26299597  0.92359664  0.05477102  1
  Se  Se138  1  0.24994630  0.91768135  0.56488668  1
  Se  Se139  1  0.57812670  0.24640077  0.04340724  1
  Se  Se140  1  0.58959049  0.25600445  0.56087777  1
  Se  Se141  1  0.56467406  0.57238246  0.04943943  1
  Se  Se142  1  0.58673586  0.58210929  0.55671834  1
  Se  Se143  1  0.59758399  0.91685345  0.06221865  1
  Se  Se144  1  0.57390152  0.90653177  0.56367332  1
  Se  Se145  1  0.91359339  0.25224137  0.04721941  1
  Se  Se146  1  0.92379534  0.25935865  0.56450169  1
  Se  Se147  1  0.91401379  0.57843750  0.05777732  1
  Se  Se148  1  0.91232579  0.58115457  0.55742625  1
  Se  Se149  1  0.94110032  0.92861699  0.04418881  1
  Se  Se150  1  0.91031208  0.91146155  0.54868848  1
  Se  Se151  1  0.07784536  0.25408671  0.44758870  1
  Se  Se152  1  0.08022862  0.25897569  0.94546424  1
  Se  Se153  1  0.08032674  0.58054084  0.44850349  1
  Se  Se154  1  0.08206790  0.57845435  0.94570836  1
  Se  Se155  1  0.07873754  0.92088092  0.43511666  1
  Se  Se156  1  0.08069397  0.91328741  0.92910947  1
  Se  Se157  1  0.40239010  0.26276610  0.44256297  1
  Se  Se158  1  0.41969097  0.25394281  0.94231300  1
  Se  Se159  1  0.42190138  0.58033229  0.44639702  1
  Se  Se160  1  0.41377475  0.58128866  0.94438148  1
  Se  Se161  1  0.42319861  0.91261088  0.45300432  1
  Se  Se162  1  0.40968220  0.92320418  0.94573961  1
  Se  Se163  1  0.74238603  0.25973089  0.43501417  1
  Se  Se164  1  0.75146490  0.24599898  0.94083152  1
  Se  Se165  1  0.75133426  0.58138182  0.45024153  1
  Se  Se166  1  0.75395391  0.56994435  0.95205262  1
  Se  Se167  1  0.74569514  0.92388363  0.45525144  1
  Se  Se168  1  0.75044146  0.91059337  0.94516344  1
  Se  Se169  1  0.26251645  0.07541158  0.45383040  1
  Se  Se170  1  0.24989802  0.08552792  0.95173705  1
  Se  Se171  1  0.24531497  0.41970615  0.45102299  1
  Se  Se172  1  0.24462195  0.42152814  0.94430320  1
  Se  Se173  1  0.25750802  0.73354698  0.43704529  1
  Se  Se174  1  0.25405350  0.74212452  0.93306394  1
  Se  Se175  1  0.59936640  0.07424724  0.45253839  1
  Se  Se176  1  0.58390557  0.08287008  0.94375856  1
  Se  Se177  1  0.57948018  0.41670211  0.44955923  1
  Se  Se178  1  0.58078177  0.41795867  0.93878176  1
  Se  Se179  1  0.58628042  0.74599653  0.44858988  1
  Se  Se180  1  0.59972011  0.73532170  0.94778493  1
  Se  Se181  1  0.91997803  0.08471776  0.43615486  1
  Se  Se182  1  0.92615693  0.07167160  0.94953532  1
  Se  Se183  1  0.91406233  0.41638794  0.45195345  1
  Se  Se184  1  0.90955051  0.42081280  0.94516838  1
  Se  Se185  1  0.91238986  0.74957453  0.45006286  1
  Se  Se186  1  0.91209683  0.74495303  0.94861318  1
  Se  Se187  1  0.24417605  0.24486450  0.30491503  1
  Se  Se188  1  0.25316475  0.25352948  0.81016132  1
  Se  Se189  1  0.24155049  0.56638284  0.30718235  1
  Se  Se190  1  0.24410686  0.57561481  0.80667580  1
  Se  Se191  1  0.24558109  0.90851554  0.30291565  1
  Se  Se192  1  0.24725458  0.92175985  0.79952008  1
  Se  Se193  1  0.57872148  0.24673112  0.29774570  1
  Se  Se194  1  0.58489776  0.24976676  0.80368839  1
  Se  Se195  1  0.58185672  0.58224966  0.30429521  1
  Se  Se196  1  0.59084272  0.58589862  0.80291798  1
  Se  Se197  1  0.57956831  0.90952985  0.31621537  1
  Se  Se198  1  0.58562698  0.91838586  0.80680749  1
  Se  Se199  1  0.91820837  0.25719135  0.29115632  1
  Se  Se200  1  0.91875007  0.25046675  0.80548511  1
  Se  Se201  1  0.91229707  0.58363860  0.30871633  1
  Se  Se202  1  0.91650828  0.58560189  0.80940669  1
  Se  Se203  1  0.91494069  0.91356137  0.30504966  1
  Se  Se204  1  0.90806393  0.91147574  0.81096864  1
  Se  Se205  1  0.08617099  0.08718435  0.30354868  1
  Se  Se206  1  0.08374443  0.09186768  0.81386952  1
  Se  Se207  1  0.06539408  0.40591697  0.30900337  1
  Se  Se208  1  0.08190489  0.41934087  0.80112273  1
  Se  Se209  1  0.08325342  0.74626232  0.29928652  1
  Se  Se210  1  0.07878124  0.74639754  0.79710736  1
  Se  Se211  1  0.42073517  0.08210670  0.30460959  1
  Se  Se212  1  0.41132779  0.08170824  0.80872255  1
  Se  Se213  1  0.42002806  0.42037562  0.30473538  1
  Se  Se214  1  0.41963008  0.42268700  0.80002809  1
  Se  Se215  1  0.42365021  0.76002439  0.30968761  1
  Se  Se216  1  0.42824524  0.75519528  0.81621139  1
  Se  Se217  1  0.76368417  0.09689102  0.30750345  1
  Se  Se218  1  0.75072887  0.07817814  0.80478991  1
  Se  Se219  1  0.75337297  0.42707869  0.31351962  1
  Se  Se220  1  0.74983262  0.41517983  0.80290032  1
  Se  Se221  1  0.74746238  0.74972556  0.30914197  1
  Se  Se222  1  0.75024858  0.74408016  0.80868408  1
  Se  Se223  1  0.23959250  0.09522451  0.18230203  1
  Se  Se224  1  0.25085696  0.08350643  0.70383587  1
  Se  Se225  1  0.23446263  0.43114291  0.19180569  1
  Se  Se226  1  0.27241919  0.41184887  0.70230569  1
  Se  Se227  1  0.25146027  0.74818799  0.18472634  1
  Se  Se228  1  0.24476696  0.75596087  0.69038254  1
  Se  Se229  1  0.58883602  0.08555872  0.18817520  1
  Se  Se230  1  0.58397746  0.08179539  0.70563757  1
  Se  Se231  1  0.57776127  0.42939107  0.18068818  1
  Se  Se232  1  0.58932520  0.41698745  0.69636223  1
  Se  Se233  1  0.57999580  0.75441089  0.20282761  1
  Se  Se234  1  0.58612663  0.74754295  0.70216146  1
  Se  Se235  1  0.91122117  0.08980981  0.17463135  1
  Se  Se236  1  0.90760393  0.08955872  0.68589928  1
  Se  Se237  1  0.91046569  0.41973987  0.19801766  1
  Se  Se238  1  0.91680096  0.41686811  0.70055116  1
  Se  Se239  1  0.92003526  0.74561677  0.20007385  1
  Se  Se240  1  0.91665911  0.74601704  0.70066830  1
  Se  Se241  1  0.07380184  0.25606795  0.18821924  1
  Se  Se242  1  0.08227055  0.25143145  0.70691717  1
  Se  Se243  1  0.07525214  0.58787084  0.20127463  1
  Se  Se244  1  0.08511699  0.57801989  0.70330797  1
  Se  Se245  1  0.09138451  0.90192428  0.17978549  1
  Se  Se246  1  0.08222246  0.91014130  0.68898451  1
  Se  Se247  1  0.42032806  0.23946610  0.17999635  1
  Se  Se248  1  0.41870767  0.25287236  0.70467930  1
  Se  Se249  1  0.41735686  0.57985159  0.18621340  1
  Se  Se250  1  0.42790589  0.58606742  0.68858527  1
  Se  Se251  1  0.43972725  0.90497080  0.19540381  1
  Se  Se252  1  0.41148340  0.91561175  0.70408263  1
  Se  Se253  1  0.75378537  0.24781450  0.18203629  1
  Se  Se254  1  0.75012647  0.24928357  0.70305098  1
  Se  Se255  1  0.74317836  0.58306164  0.19001628  1
  Se  Se256  1  0.74965261  0.58320781  0.70015232  1
  Se  Se257  1  0.76070501  0.91403572  0.18973623  1
  Se  Se258  1  0.74853545  0.91669892  0.70054605  1
