# generated using pymatgen
data_In86Cu29Se144
_symmetry_space_group_name_H-M   'P 1'
_cell_length_a   17.57911383
_cell_length_b   17.57808840
_cell_length_c   23.44074992
_cell_angle_alpha   90.02138908
_cell_angle_beta   89.97402580
_cell_angle_gamma   89.99392692
_symmetry_Int_Tables_number   1
_chemical_formula_structural   In86Cu29Se144
_chemical_formula_sum   'In86 Cu29 Se144'
_cell_volume   7243.35960477
_cell_formula_units_Z   1
loop_
 _symmetry_equiv_pos_site_id
 _symmetry_equiv_pos_as_xyz
  1  'x, y, z'
loop_
 _atom_site_type_symbol
 _atom_site_label
 _atom_site_symmetry_multiplicity
 _atom_site_fract_x
 _atom_site_fract_y
 _atom_site_fract_z
 _atom_site_occupancy
  In  In0  1  -0.00249000  0.17174910  0.11356406  1
  In  In1  1  -0.00371540  0.16911325  0.63536577  1
  In  In2  1  0.01275778  0.50160033  0.12370437  1
  In  In3  1  -0.00397448  0.49873647  0.62194443  1
  In  In4  1  -0.00691926  0.81977486  0.12735995  1
  In  In5  1  -0.00146242  0.83153437  0.62686684  1
  In  In6  1  0.35128554  0.17420085  0.11327957  1
  In  In7  1  0.34087276  0.17963375  0.63521961  1
  In  In8  1  0.33572790  0.50228438  0.12647390  1
  In  In9  1  0.32677030  0.50548406  0.63122974  1
  In  In10  1  0.32561726  0.81898979  0.11781290  1
  In  In11  1  0.31947508  0.82580769  0.62473309  1
  In  In12  1  0.66501718  0.16787769  0.12071777  1
  In  In13  1  0.66047385  0.16914943  0.63834374  1
  In  In14  1  0.64203760  0.49534610  0.11927269  1
  In  In15  1  0.67152958  0.49699323  0.62635952  1
  In  In16  1  0.66796541  0.83941624  0.12320070  1
  In  In17  1  0.67577740  0.82425269  0.63275278  1
  In  In18  1  0.15493433  -0.00578877  0.37674227  1
  In  In19  1  0.14910299  -0.00464643  0.87976677  1
  In  In20  1  0.18427536  0.33802454  0.37319442  1
  In  In21  1  0.17909877  0.34468756  0.86811367  1
  In  In22  1  0.17029037  0.66799747  0.37647170  1
  In  In23  1  0.17692662  0.65308044  0.88263807  1
  In  In24  1  0.51261832  -0.01019552  0.36893747  1
  In  In25  1  0.50714081  -0.00696932  0.87876510  1
  In  In26  1  0.50176645  0.33775567  0.36542427  1
  In  In27  1  0.50182619  0.33285972  0.88038054  1
  In  In28  1  0.49566550  0.67417542  0.37124921  1
  In  In29  1  0.49824548  0.66755129  0.87553215  1
  In  In30  1  0.82041455  0.00250589  0.37484818  1
  In  In31  1  0.83920996  0.01252540  0.87038946  1
  In  In32  1  0.82822832  0.34532831  0.37839459  1
  In  In33  1  0.81285065  0.31749012  0.86322006  1
  In  In34  1  0.84134341  0.65200720  0.38754232  1
  In  In35  1  0.82412534  0.67550806  0.86900782  1
  In  In36  1  -0.00231135  0.16585343  0.37512073  1
  In  In37  1  -0.01289623  0.15656637  0.86904914  1
  In  In38  1  -0.00601857  0.51227818  0.38124008  1
  In  In39  1  0.01833433  0.49847720  0.87591724  1
  In  In40  1  0.01489758  0.81714637  0.38542423  1
  In  In41  1  -0.00011829  0.84668522  0.87651496  1
  In  In42  1  0.32883852  0.17937203  0.36932341  1
  In  In43  1  0.34092842  0.18588969  0.87689422  1
  In  In44  1  0.33284048  0.49907277  0.37381154  1
  In  In45  1  0.33218100  0.49560478  0.87878007  1
  In  In46  1  0.33081682  0.81848961  0.37282694  1
  In  In47  1  0.34006478  0.82103810  0.88103354  1
  In  In48  1  0.66891848  0.16568295  0.36744480  1
  In  In49  1  0.66222673  0.16926169  0.87602342  1
  In  In50  1  0.67676215  0.49467621  0.37814347  1
  In  In51  1  0.65758251  0.49407047  0.87157606  1
  In  In52  1  0.66293632  0.84168025  0.37540698  1
  In  In53  1  0.65058609  0.82458160  0.86679477  1
  In  In54  1  0.17748647  -0.00378361  0.11872715  1
  In  In55  1  0.16179526  -0.01876791  0.62905641  1
  In  In56  1  0.17020853  0.35263590  0.11807340  1
  In  In57  1  0.15992407  0.34156095  0.63322735  1
  In  In58  1  0.17031430  0.66564687  0.12858136  1
  In  In59  1  0.17946904  0.66635000  0.61907863  1
  In  In60  1  0.51010259  0.01005408  0.11211583  1
  In  In61  1  0.50688245  0.01153114  0.63705154  1
  In  In62  1  0.49966841  0.33809162  0.12257711  1
  In  In63  1  0.50332578  0.33001314  0.64147488  1
  In  In64  1  0.48481579  0.64162465  0.10652243  1
  In  In65  1  0.49774421  0.66216829  0.63423762  1
  In  In66  1  0.81866812  -0.00549157  0.12292479  1
  In  In67  1  0.83800933  -0.00511906  0.63264458  1
  In  In68  1  0.83627904  0.31934120  0.12042520  1
  In  In69  1  0.82262511  0.35166282  0.63009106  1
  In  In70  1  0.83385367  0.67585280  0.13015159  1
  In  In71  1  0.81868214  0.66020181  0.61118301  1
  In  In72  1  0.66420584  0.66730421  0.24834247  1
  In  In73  1  0.16549426  0.16543475  0.49616880  1
  In  In74  1  -0.00360723  0.66542958  0.74670482  1
  In  In75  1  0.17123176  0.16904962  -0.00451314  1
  In  In76  1  -0.00427528  0.33940686  0.25331843  1
  In  In77  1  0.50196818  0.50279512  0.50037042  1
  In  In78  1  0.83247469  0.49794744  -0.01094828  1
  In  In79  1  0.83384860  0.16852922  0.50075372  1
  In  In80  1  -0.00399826  -0.00238635  0.25079910  1
  In  In81  1  0.34243642  0.00381026  0.24184640  1
  In  In82  1  0.32831791  0.00142973  0.75663903  1
  In  In83  1  0.50269929  0.16938913  0.51377501  1
  In  In84  1  0.50171258  0.82778013  0.50285111  1
  In  In85  1  0.83284256  0.83717678  -0.00111611  1
  Cu  Cu86  1  0.33172637  -0.00807053  0.50247317  1
  Cu  Cu87  1  0.16441674  0.16556465  0.75797484  1
  Cu  Cu88  1  0.49443144  0.49720032  0.24543305  1
  Cu  Cu89  1  0.82348071  0.84082437  0.75205337  1
  Cu  Cu90  1  0.33134723  0.66413352  -0.00045702  1
  Cu  Cu91  1  0.00641604  0.66697766  0.00374057  1
  Cu  Cu92  1  0.82092837  0.16366264  0.24504152  1
  Cu  Cu93  1  0.66897786  -0.00228077  0.50201006  1
  Cu  Cu94  1  0.49594140  0.83277536  0.75383446  1
  Cu  Cu95  1  0.66429002  0.33159057  -0.00336700  1
  Cu  Cu96  1  0.67048661  0.00233289  -0.00446543  1
  Cu  Cu97  1  0.17124698  0.50797448  0.24873835  1
  Cu  Cu98  1  0.16938878  0.82901287  0.25113162  1
  Cu  Cu99  1  0.33639474  -0.00619137  -0.00382742  1
  Cu  Cu100  1  0.83132272  0.16706634  0.75094926  1
  Cu  Cu101  1  0.33492503  0.33876830  0.50190801  1
  Cu  Cu102  1  0.50081313  0.83163419  0.24404128  1
  Cu  Cu103  1  0.83697894  0.82838075  0.25415013  1
  Cu  Cu104  1  0.83559788  0.49872210  0.74454927  1
  Cu  Cu105  1  0.00030200  -0.01243787  0.50761932  1
  Cu  Cu106  1  -0.00149742  0.32781998  -0.00686072  1
  Cu  Cu107  1  0.00526632  0.66776762  0.50375447  1
  Cu  Cu108  1  0.17464955  0.49559321  0.75240434  1
  Cu  Cu109  1  0.49776435  0.50155149  0.75634781  1
  Cu  Cu110  1  0.82890942  0.50190434  0.25502316  1
  Cu  Cu111  1  0.17093526  0.17987612  0.24361851  1
  Cu  Cu112  1  0.16163140  0.82580120  0.74950601  1
  Cu  Cu113  1  0.50581859  0.16817516  0.24007759  1
  Cu  Cu114  1  0.00164243  0.34381565  0.50492593  1
  Se  Se115  1  0.08109323  0.07547943  0.05425672  1
  Se  Se116  1  0.07731003  0.07833822  0.56162362  1
  Se  Se117  1  0.07586319  0.41524348  0.04717213  1
  Se  Se118  1  0.09051194  0.42158959  0.55609452  1
  Se  Se119  1  0.08575788  0.75027627  0.05962645  1
  Se  Se120  1  0.08502879  0.75018096  0.56038953  1
  Se  Se121  1  0.41903145  0.08317865  0.04375767  1
  Se  Se122  1  0.40422085  0.07464085  0.56416885  1
  Se  Se123  1  0.43647464  0.44124798  0.05923722  1
  Se  Se124  1  0.41874358  0.40961606  0.56483098  1
  Se  Se125  1  0.41872651  0.74985977  0.04890287  1
  Se  Se126  1  0.40911427  0.73902530  0.55954581  1
  Se  Se127  1  0.75129757  0.08427448  0.05232593  1
  Se  Se128  1  0.74306806  0.08238003  0.56339262  1
  Se  Se129  1  0.74728178  0.41195291  0.05736363  1
  Se  Se130  1  0.75488337  0.42602740  0.55126816  1
  Se  Se131  1  0.74435297  0.74170433  0.05546223  1
  Se  Se132  1  0.74961071  0.76202196  0.55078994  1
  Se  Se133  1  0.25814495  0.26358689  0.05317107  1
  Se  Se134  1  0.25420516  0.25342669  0.55895182  1
  Se  Se135  1  0.24911336  0.58281135  0.05731229  1
  Se  Se136  1  0.25182594  0.57400051  0.55256618  1
  Se  Se137  1  0.25239332  0.91191330  0.04922272  1
  Se  Se138  1  0.24508700  0.91211248  0.55353189  1
  Se  Se139  1  0.58055540  0.25103838  0.05395918  1
  Se  Se140  1  0.59552581  0.26431086  0.56332486  1
  Se  Se141  1  0.59510828  0.58979537  0.04490786  1
  Se  Se142  1  0.58928558  0.59360922  0.56031404  1
  Se  Se143  1  0.58906451  0.91614100  0.04915871  1
  Se  Se144  1  0.58399940  0.92493627  0.56343106  1
  Se  Se145  1  0.91210408  0.24564365  0.04279331  1
  Se  Se146  1  0.92288183  0.25851700  0.56117882  1
  Se  Se147  1  0.91749520  0.58763126  0.05844487  1
  Se  Se148  1  0.91824439  0.58345286  0.55266786  1
  Se  Se149  1  0.92408545  0.92234323  0.06193162  1
  Se  Se150  1  0.91021148  0.91135891  0.55866376  1
  Se  Se151  1  0.07558658  0.26267686  0.43948007  1
  Se  Se152  1  0.08132194  0.25213105  0.93107660  1
  Se  Se153  1  0.08691185  0.58509531  0.44710747  1
  Se  Se154  1  0.08679613  0.57932472  0.95258548  1
  Se  Se155  1  0.08841735  0.91189934  0.45232606  1
  Se  Se156  1  0.08480137  0.90751360  0.95276800  1
  Se  Se157  1  0.41495781  0.25499635  0.44437069  1
  Se  Se158  1  0.41910607  0.25458150  0.95251263  1
  Se  Se159  1  0.41090930  0.59404861  0.44282465  1
  Se  Se160  1  0.41539301  0.58368577  0.94450059  1
  Se  Se161  1  0.41467800  0.92158222  0.43896107  1
  Se  Se162  1  0.42168558  0.91014940  0.94530816  1
  Se  Se163  1  0.73956308  0.25447899  0.44292579  1
  Se  Se164  1  0.75077780  0.24685381  0.94793142  1
  Se  Se165  1  0.74426405  0.58010687  0.45006259  1
  Se  Se166  1  0.74067540  0.59301481  0.93837662  1
  Se  Se167  1  0.74991134  0.91564451  0.44727712  1
  Se  Se168  1  0.74425869  0.91897237  0.93263371  1
  Se  Se169  1  0.26105884  0.07531594  0.43715065  1
  Se  Se170  1  0.25864725  0.07555823  0.93412101  1
  Se  Se171  1  0.25180883  0.42078249  0.44854126  1
  Se  Se172  1  0.23843750  0.42477644  0.94733707  1
  Se  Se173  1  0.24385473  0.75812735  0.44623295  1
  Se  Se174  1  0.24638932  0.74973477  0.94909769  1
  Se  Se175  1  0.58702728  0.07943654  0.44413108  1
  Se  Se176  1  0.58214276  0.08493338  0.94602964  1
  Se  Se177  1  0.58680581  0.40491708  0.44324132  1
  Se  Se178  1  0.58271914  0.42174239  0.94992417  1
  Se  Se179  1  0.59280532  0.73990658  0.44193389  1
  Se  Se180  1  0.57569186  0.75619275  0.94437884  1
  Se  Se181  1  0.92613315  0.07053547  0.44463179  1
  Se  Se182  1  0.92415329  0.07464817  0.94719286  1
  Se  Se183  1  0.91673329  0.41909961  0.44618643  1
  Se  Se184  1  0.91939300  0.40588122  0.92967337  1
  Se  Se185  1  0.91720854  0.74865226  0.45037531  1
  Se  Se186  1  0.92353145  0.74033673  0.94090105  1
  Se  Se187  1  0.25645213  0.26079639  0.29542811  1
  Se  Se188  1  0.25335177  0.25037231  0.80202413  1
  Se  Se189  1  0.25440528  0.58735883  0.30609581  1
  Se  Se190  1  0.25426043  0.58195663  0.80555222  1
  Se  Se191  1  0.24729751  0.91941043  0.30511372  1
  Se  Se192  1  0.24061825  0.90561932  0.81293917  1
  Se  Se193  1  0.58418411  0.24880817  0.30156611  1
  Se  Se194  1  0.60366297  0.27451526  0.81223714  1
  Se  Se195  1  0.57638208  0.57320736  0.30989998  1
  Se  Se196  1  0.58362358  0.58757148  0.80492444  1
  Se  Se197  1  0.58861994  0.91273538  0.29464902  1
  Se  Se198  1  0.58149147  0.92068858  0.79899813  1
  Se  Se199  1  0.90326055  0.24063590  0.30746841  1
  Se  Se200  1  0.91742354  0.25144284  0.80146451  1
  Se  Se201  1  0.91472943  0.58473351  0.30488087  1
  Se  Se202  1  0.91157093  0.57468431  0.81190674  1
  Se  Se203  1  0.91509660  0.90841835  0.31701697  1
  Se  Se204  1  0.91384520  0.91685621  0.80402852  1
  Se  Se205  1  0.09372577  0.09617121  0.30307042  1
  Se  Se206  1  0.08053615  0.07760960  0.80382019  1
  Se  Se207  1  0.09077078  0.42645626  0.31058810  1
  Se  Se208  1  0.08314080  0.41463362  0.79924232  1
  Se  Se209  1  0.08457387  0.74714579  0.30412612  1
  Se  Se210  1  0.08480843  0.74676638  0.81444738  1
  Se  Se211  1  0.42866982  0.09253108  0.30899146  1
  Se  Se212  1  0.42143226  0.08758969  0.81366635  1
  Se  Se213  1  0.41079221  0.41558505  0.30173101  1
  Se  Se214  1  0.41776902  0.41540081  0.80998229  1
  Se  Se215  1  0.41653182  0.75113195  0.29780892  1
  Se  Se216  1  0.41255213  0.74638325  0.80283921  1
  Se  Se217  1  0.74343006  0.07548292  0.29860491  1
  Se  Se218  1  0.74605615  0.08645394  0.80517360  1
  Se  Se219  1  0.74615463  0.41251247  0.30120186  1
  Se  Se220  1  0.74918013  0.42201036  0.80161906  1
  Se  Se221  1  0.75463279  0.74898637  0.31436546  1
  Se  Se222  1  0.74159357  0.74967233  0.79747726  1
  Se  Se223  1  0.24862553  0.09664115  0.18527102  1
  Se  Se224  1  0.23913448  0.08801329  0.68952891  1
  Se  Se225  1  0.24974303  0.41993259  0.19566182  1
  Se  Se226  1  0.25779321  0.40980730  0.69916965  1
  Se  Se227  1  0.25500460  0.74747973  0.19867076  1
  Se  Se228  1  0.24830284  0.74367537  0.69971029  1
  Se  Se229  1  0.58689700  0.07930035  0.19121456  1
  Se  Se230  1  0.57657186  0.09451369  0.70891279  1
  Se  Se231  1  0.58329524  0.41342428  0.19881817  1
  Se  Se232  1  0.58495767  0.42522482  0.69933204  1
  Se  Se233  1  0.57509509  0.74755316  0.18194101  1
  Se  Se234  1  0.57988480  0.75164268  0.69763243  1
  Se  Se235  1  0.91206478  0.09101513  0.18833384  1
  Se  Se236  1  0.91717445  0.08103272  0.70081238  1
  Se  Se237  1  0.90773166  0.42518486  0.18815911  1
  Se  Se238  1  0.92392726  0.41557030  0.69654697  1
  Se  Se239  1  0.92030359  0.74308450  0.20453570  1
  Se  Se240  1  0.90012473  0.75313585  0.69193943  1
  Se  Se241  1  0.08350242  0.25304041  0.18593185  1
  Se  Se242  1  0.08488218  0.24957325  0.69977937  1
  Se  Se243  1  0.08124429  0.58602266  0.19770313  1
  Se  Se244  1  0.09300113  0.57705923  0.69184576  1
  Se  Se245  1  0.09174837  0.91191988  0.19102534  1
  Se  Se246  1  0.07593499  0.91174855  0.70210854  1
  Se  Se247  1  0.41776398  0.25139834  0.19254452  1
  Se  Se248  1  0.42456262  0.24432340  0.70892347  1
  Se  Se249  1  0.41688787  0.58903546  0.19630206  1
  Se  Se250  1  0.41242664  0.58252279  0.70159746  1
  Se  Se251  1  0.42464177  0.91152412  0.18003313  1
  Se  Se252  1  0.41507159  0.91089023  0.69077862  1
  Se  Se253  1  0.74573437  0.25314047  0.19190747  1
  Se  Se254  1  0.75394686  0.25385839  0.69598792  1
  Se  Se255  1  0.75012832  0.57303568  0.18673985  1
  Se  Se256  1  0.75344055  0.58559657  0.69353116  1
  Se  Se257  1  0.75388891  0.90833226  0.19834787  1
  Se  Se258  1  0.74055878  0.92519541  0.69831248  1
