# generated using pymatgen
data_In86Cu29Se144
_symmetry_space_group_name_H-M   'P 1'
_cell_length_a   17.59339470
_cell_length_b   17.58857629
_cell_length_c   23.45290166
_cell_angle_alpha   90.00051857
_cell_angle_beta   90.04212661
_cell_angle_gamma   89.99836924
_symmetry_Int_Tables_number   1
_chemical_formula_structural   In86Cu29Se144
_chemical_formula_sum   'In86 Cu29 Se144'
_cell_volume   7257.32877149
_cell_formula_units_Z   1
loop_
 _symmetry_equiv_pos_site_id
 _symmetry_equiv_pos_as_xyz
  1  'x, y, z'
loop_
 _atom_site_type_symbol
 _atom_site_label
 _atom_site_symmetry_multiplicity
 _atom_site_fract_x
 _atom_site_fract_y
 _atom_site_fract_z
 _atom_site_occupancy
  In  In0  1  0.00218425  0.16561613  0.12844567  1
  In  In1  1  0.01122160  0.17398592  0.62168811  1
  In  In2  1  0.00168133  0.49674548  0.12741831  1
  In  In3  1  0.00091296  0.48834519  0.62084934  1
  In  In4  1  -0.00484923  0.83927742  0.13289424  1
  In  In5  1  0.00562387  0.82536663  0.62002158  1
  In  In6  1  0.33369996  0.17015081  0.13014973  1
  In  In7  1  0.33757789  0.17276359  0.61437119  1
  In  In8  1  0.32098455  0.50318281  0.13323085  1
  In  In9  1  0.32890751  0.49584807  0.61096754  1
  In  In10  1  0.33421799  0.83179212  0.13433147  1
  In  In11  1  0.33883525  0.83862642  0.61058327  1
  In  In12  1  0.66425723  0.17226832  0.12307287  1
  In  In13  1  0.65755181  0.17264767  0.62225362  1
  In  In14  1  0.66964526  0.47680405  0.12270213  1
  In  In15  1  0.67146724  0.50842762  0.62432769  1
  In  In16  1  0.68081885  0.83452265  0.12486520  1
  In  In17  1  0.64869886  0.82624595  0.62353413  1
  In  In18  1  0.17095624  0.00297457  0.37060006  1
  In  In19  1  0.17658421  0.00800601  0.87937912  1
  In  In20  1  0.16188246  0.32803308  0.37445378  1
  In  In21  1  0.15817612  0.34214748  0.88472648  1
  In  In22  1  0.16822277  0.66497108  0.37115228  1
  In  In23  1  0.15639135  0.66565141  0.87904519  1
  In  In24  1  0.49890356  0.00239475  0.37027994  1
  In  In25  1  0.50994131  0.00364475  0.87698115  1
  In  In26  1  0.49962644  0.33384459  0.37643274  1
  In  In27  1  0.49733936  0.32754392  0.87820146  1
  In  In28  1  0.48633055  0.67497184  0.38078002  1
  In  In29  1  0.50212251  0.65509943  0.87039468  1
  In  In30  1  0.83768035  0.00693837  0.36236891  1
  In  In31  1  0.82946144  0.00407632  0.88912607  1
  In  In32  1  0.83364015  0.33248323  0.36472320  1
  In  In33  1  0.83955171  0.32853450  0.88669038  1
  In  In34  1  0.83934886  0.65440377  0.37025518  1
  In  In35  1  0.82714912  0.67319447  0.88759679  1
  In  In36  1  0.01584403  0.18161433  0.36264410  1
  In  In37  1  -0.01036526  0.17909396  0.88785643  1
  In  In38  1  0.00190569  0.50092778  0.36714108  1
  In  In39  1  0.00715712  0.49266193  0.88486490  1
  In  In40  1  0.01363640  0.84483378  0.36402040  1
  In  In41  1  -0.00504198  0.82008655  0.87811526  1
  In  In42  1  0.33324446  0.16729136  0.37162653  1
  In  In43  1  0.33159034  0.16688877  0.88684111  1
  In  In44  1  0.33138917  0.49697370  0.37230512  1
  In  In45  1  0.33492711  0.48958277  0.88349407  1
  In  In46  1  0.33300601  0.83350102  0.37050727  1
  In  In47  1  0.32759822  0.83363216  0.87509683  1
  In  In48  1  0.66352156  0.16420467  0.36919283  1
  In  In49  1  0.66342257  0.17602758  0.89197959  1
  In  In50  1  0.65958344  0.48222718  0.37184478  1
  In  In51  1  0.66613796  0.50870466  0.87674372  1
  In  In52  1  0.65141863  0.83637784  0.37498483  1
  In  In53  1  0.67433959  0.83927577  0.87626926  1
  In  In54  1  0.15939925  0.00872290  0.13551395  1
  In  In55  1  0.17941362  0.01095552  0.60790521  1
  In  In56  1  0.16613435  0.33358405  0.13069167  1
  In  In57  1  0.15545566  0.32822109  0.61168922  1
  In  In58  1  0.17817459  0.64866033  0.13160772  1
  In  In59  1  0.16653889  0.66719556  0.60998258  1
  In  In60  1  0.48547560  0.01472657  0.13738270  1
  In  In61  1  0.50077962  -0.00386598  0.61523446  1
  In  In62  1  0.51190763  0.32028772  0.13644764  1
  In  In63  1  0.49629573  0.32493048  0.60971455  1
  In  In64  1  0.48584736  0.65967776  0.12860948  1
  In  In65  1  0.50707818  0.67227271  0.61871676  1
  In  In66  1  0.83375716  0.00106994  0.12816131  1
  In  In67  1  0.83883340  0.00346952  0.62654551  1
  In  In68  1  0.83367890  0.33306592  0.12175543  1
  In  In69  1  0.83771032  0.35063289  0.63176596  1
  In  In70  1  0.84225418  0.67292345  0.11894142  1
  In  In71  1  0.82732423  0.64498257  0.63130312  1
  In  In72  1  0.66820006  -0.00332372  0.75073504  1
  In  In73  1  0.83057516  0.49598456  0.50133596  1
  In  In74  1  0.00310419  0.00058645  0.75640676  1
  In  In75  1  0.50089462  0.83724249  0.00573268  1
  In  In76  1  0.83396463  0.83214716  0.50280552  1
  In  In77  1  -0.00378079  0.65856249  0.75458379  1
  In  In78  1  0.15897718  0.83443973  0.00270623  1
  In  In79  1  0.66776400  0.33306994  0.75530415  1
  In  In80  1  0.83339700  0.17141148  0.49931241  1
  In  In81  1  0.34265056  0.00810819  0.73679384  1
  In  In82  1  0.33414142  0.33009668  0.74063652  1
  In  In83  1  0.33589292  0.66606711  0.75072901  1
  In  In84  1  0.66603128  0.66667953  0.24783381  1
  In  In85  1  0.49953082  0.49350015  0.00185203  1
  Cu  Cu86  1  0.17112582  0.84015999  0.73909672  1
  Cu  Cu87  1  0.66105310  -0.00176381  0.49337863  1
  Cu  Cu88  1  0.33171508  0.00771396  0.00825606  1
  Cu  Cu89  1  0.32909442  0.33154759  0.48988615  1
  Cu  Cu90  1  0.49500260  0.49788888  0.25076858  1
  Cu  Cu91  1  0.00578107  0.33136855  0.00901982  1
  Cu  Cu92  1  0.33362414  0.66382962  0.49164850  1
  Cu  Cu93  1  0.16698025  0.82863740  0.25161305  1
  Cu  Cu94  1  0.83169120  0.16772929  0.24253302  1
  Cu  Cu95  1  0.01070863  0.00612900  0.48911567  1
  Cu  Cu96  1  0.82713934  0.82431820  0.75518606  1
  Cu  Cu97  1  0.16098789  0.18225848  0.74963363  1
  Cu  Cu98  1  -0.00154622  -0.00014955  0.01073412  1
  Cu  Cu99  1  0.83694243  0.49755809  0.24490702  1
  Cu  Cu100  1  0.00753793  0.67115584  0.49166785  1
  Cu  Cu101  1  0.49960228  0.17137000  0.25289588  1
  Cu  Cu102  1  0.33153481  0.33249611  0.00895911  1
  Cu  Cu103  1  0.83562218  0.17371636  0.76124553  1
  Cu  Cu104  1  0.83461910  0.83374236  0.24705089  1
  Cu  Cu105  1  0.65663602  0.66222637  0.49956221  1
  Cu  Cu106  1  0.66637634  0.00535448  0.00614716  1
  Cu  Cu107  1  0.50463097  0.50025124  0.74407130  1
  Cu  Cu108  1  0.00028545  0.66071427  0.00474221  1
  Cu  Cu109  1  0.16294657  0.49608557  0.75300758  1
  Cu  Cu110  1  0.17033509  0.16633610  0.25016205  1
  Cu  Cu111  1  0.33511241  -0.00139239  0.48875383  1
  Cu  Cu112  1  0.49950874  0.83876273  0.25323138  1
  Cu  Cu113  1  0.16479819  0.49482876  0.25388629  1
  Cu  Cu114  1  0.66756474  0.66497629  0.00263243  1
  Se  Se115  1  0.08639724  0.08318443  0.05754154  1
  Se  Se116  1  0.08470935  0.09174799  0.54858190  1
  Se  Se117  1  0.08937621  0.41849321  0.05836529  1
  Se  Se118  1  0.09325635  0.43196201  0.54870099  1
  Se  Se119  1  0.07884323  0.74211423  0.06642529  1
  Se  Se120  1  0.08774266  0.75842633  0.54453916  1
  Se  Se121  1  0.41840157  0.09098705  0.05728673  1
  Se  Se122  1  0.41397634  0.07853139  0.55068261  1
  Se  Se123  1  0.41378396  0.41100060  0.06901242  1
  Se  Se124  1  0.41348646  0.41242274  0.54606889  1
  Se  Se125  1  0.40520065  0.74471203  0.05638120  1
  Se  Se126  1  0.41683481  0.74458930  0.54930601  1
  Se  Se127  1  0.75245140  0.08528645  0.05917914  1
  Se  Se128  1  0.74305536  0.07264924  0.55723597  1
  Se  Se129  1  0.75199573  0.41092645  0.04854558  1
  Se  Se130  1  0.73786973  0.40367092  0.55744675  1
  Se  Se131  1  0.75184072  0.75137285  0.05182898  1
  Se  Se132  1  0.74668501  0.73517823  0.55912076  1
  Se  Se133  1  0.24746976  0.24870583  0.06060456  1
  Se  Se134  1  0.24842726  0.24963245  0.54859800  1
  Se  Se135  1  0.25514975  0.58072621  0.05352965  1
  Se  Se136  1  0.24764931  0.58171526  0.54460328  1
  Se  Se137  1  0.25272406  0.92098856  0.06284693  1
  Se  Se138  1  0.25044108  0.91543898  0.54379027  1
  Se  Se139  1  0.57936429  0.25288954  0.05454948  1
  Se  Se140  1  0.57969186  0.23881079  0.54589260  1
  Se  Se141  1  0.58776770  0.58788444  0.06381906  1
  Se  Se142  1  0.57935147  0.57515883  0.55381033  1
  Se  Se143  1  0.58532976  0.92775567  0.06786487  1
  Se  Se144  1  0.58329159  0.91116055  0.54792848  1
  Se  Se145  1  0.92021210  0.24588467  0.05749824  1
  Se  Se146  1  0.91971911  0.26358238  0.56048558  1
  Se  Se147  1  0.91592064  0.57634131  0.05614331  1
  Se  Se148  1  0.92550583  0.59446240  0.55432729  1
  Se  Se149  1  0.91419322  0.91347634  0.05835167  1
  Se  Se150  1  0.93084004  0.93027980  0.55417866  1
  Se  Se151  1  0.07917238  0.24910961  0.44625923  1
  Se  Se152  1  0.08823099  0.24812413  0.95254708  1
  Se  Se153  1  0.08238465  0.58116108  0.43887365  1
  Se  Se154  1  0.08745347  0.58156633  0.95190023  1
  Se  Se155  1  0.09045925  0.91617863  0.44130548  1
  Se  Se156  1  0.07161103  0.92669915  0.93837319  1
  Se  Se157  1  0.41649292  0.24630678  0.44310696  1
  Se  Se158  1  0.41557658  0.25354392  0.95102131  1
  Se  Se159  1  0.41749646  0.57565565  0.44393073  1
  Se  Se160  1  0.41058887  0.59188628  0.94513442  1
  Se  Se161  1  0.42030713  0.91411296  0.43894769  1
  Se  Se162  1  0.40653412  0.92655242  0.94384591  1
  Se  Se163  1  0.74446350  0.25791997  0.43812789  1
  Se  Se164  1  0.76439527  0.23869506  0.95332616  1
  Se  Se165  1  0.74036532  0.58746693  0.43909229  1
  Se  Se166  1  0.74966620  0.57879427  0.95158409  1
  Se  Se167  1  0.75071609  0.92308426  0.43755403  1
  Se  Se168  1  0.74559467  0.91663324  0.95303555  1
  Se  Se169  1  0.24942705  0.08591282  0.44230119  1
  Se  Se170  1  0.24487758  0.08850901  0.95551362  1
  Se  Se171  1  0.24489081  0.41681541  0.44074253  1
  Se  Se172  1  0.25022338  0.41603775  0.95334700  1
  Se  Se173  1  0.25089926  0.74939435  0.43987240  1
  Se  Se174  1  0.25378859  0.74402281  0.94456839  1
  Se  Se175  1  0.58200773  0.08467819  0.44090612  1
  Se  Se176  1  0.57903327  0.08395209  0.95227909  1
  Se  Se177  1  0.57915455  0.41739248  0.44758152  1
  Se  Se178  1  0.59226121  0.40695062  0.94198183  1
  Se  Se179  1  0.57986170  0.75131809  0.44685096  1
  Se  Se180  1  0.58559338  0.74367512  0.94207739  1
  Se  Se181  1  0.92239571  0.08434607  0.43607477  1
  Se  Se182  1  0.91787001  0.08331859  0.95316953  1
  Se  Se183  1  0.91948712  0.41151894  0.43832796  1
  Se  Se184  1  0.92240553  0.41389793  0.95377696  1
  Se  Se185  1  0.92129564  0.74955620  0.43518202  1
  Se  Se186  1  0.91819872  0.75047609  0.95494676  1
  Se  Se187  1  0.25014882  0.25197352  0.30431957  1
  Se  Se188  1  0.24805190  0.25119644  0.81228478  1
  Se  Se189  1  0.25065182  0.58150496  0.30236999  1
  Se  Se190  1  0.24464509  0.57511015  0.81208788  1
  Se  Se191  1  0.25028334  0.91616964  0.30161442  1
  Se  Se192  1  0.24725766  0.91973474  0.80121407  1
  Se  Se193  1  0.58433883  0.25521814  0.30441963  1
  Se  Se194  1  0.57711868  0.23705469  0.80910151  1
  Se  Se195  1  0.57559282  0.58204967  0.31048057  1
  Se  Se196  1  0.58639496  0.58078596  0.79964726  1
  Se  Se197  1  0.58720274  0.92255516  0.30022470  1
  Se  Se198  1  0.57338919  0.90572812  0.80647027  1
  Se  Se199  1  0.91587618  0.24890523  0.29794016  1
  Se  Se200  1  0.92150789  0.25703679  0.80891716  1
  Se  Se201  1  0.91966069  0.58327669  0.29603977  1
  Se  Se202  1  0.91102173  0.57885167  0.82170926  1
  Se  Se203  1  0.91936331  0.91834601  0.29868049  1
  Se  Se204  1  0.90617268  0.90943571  0.81174776  1
  Se  Se205  1  0.08392941  0.08047640  0.30020769  1
  Se  Se206  1  0.09017110  0.09700063  0.81264978  1
  Se  Se207  1  0.07930865  0.40903949  0.30214785  1
  Se  Se208  1  0.08091920  0.41458310  0.80710111  1
  Se  Se209  1  0.08096084  0.74382859  0.30105705  1
  Se  Se210  1  0.09343552  0.76107092  0.80202510  1
  Se  Se211  1  0.41503958  0.08396412  0.30159273  1
  Se  Se212  1  0.41951925  0.09072517  0.81152143  1
  Se  Se213  1  0.41488330  0.41237639  0.30478429  1
  Se  Se214  1  0.42352219  0.42238858  0.80527237  1
  Se  Se215  1  0.41695764  0.74940200  0.30106310  1
  Se  Se216  1  0.42379426  0.75931704  0.80917462  1
  Se  Se217  1  0.74783386  0.08592152  0.29845724  1
  Se  Se218  1  0.75259705  0.08975179  0.81379035  1
  Se  Se219  1  0.75036344  0.41890301  0.29896420  1
  Se  Se220  1  0.75743283  0.41865323  0.81567933  1
  Se  Se221  1  0.75498334  0.75644589  0.31115709  1
  Se  Se222  1  0.74570521  0.74413640  0.81013149  1
  Se  Se223  1  0.25555326  0.08160958  0.19946961  1
  Se  Se224  1  0.24023349  0.10055284  0.68956364  1
  Se  Se225  1  0.25086069  0.41168422  0.20248179  1
  Se  Se226  1  0.24122027  0.42289910  0.68767733  1
  Se  Se227  1  0.24997601  0.74551439  0.19779655  1
  Se  Se228  1  0.24894066  0.75444518  0.68430086  1
  Se  Se229  1  0.58408601  0.09043824  0.19689214  1
  Se  Se230  1  0.57606756  0.08368970  0.69130057  1
  Se  Se231  1  0.58465509  0.41778798  0.20127868  1
  Se  Se232  1  0.57678444  0.41159862  0.68631079  1
  Se  Se233  1  0.57469091  0.75834892  0.18792045  1
  Se  Se234  1  0.58733293  0.73839015  0.69665311  1
  Se  Se235  1  0.91945099  0.08087506  0.19704832  1
  Se  Se236  1  0.91375659  0.09465953  0.69670525  1
  Se  Se237  1  0.91873178  0.41083395  0.19402551  1
  Se  Se238  1  0.91079973  0.43894951  0.69853490  1
  Se  Se239  1  0.91635361  0.74596453  0.19767549  1
  Se  Se240  1  0.91083192  0.75360250  0.69122879  1
  Se  Se241  1  0.08346438  0.24866283  0.19858176  1
  Se  Se242  1  0.07913026  0.26258789  0.69427308  1
  Se  Se243  1  0.08330279  0.57966101  0.19863976  1
  Se  Se244  1  0.09349289  0.58349530  0.69013928  1
  Se  Se245  1  0.08404700  0.91549645  0.20018758  1
  Se  Se246  1  0.09010355  0.92238483  0.68326822  1
  Se  Se247  1  0.41254270  0.25394109  0.20167249  1
  Se  Se248  1  0.42963480  0.23779553  0.69073892  1
  Se  Se249  1  0.40966567  0.58323563  0.20222514  1
  Se  Se250  1  0.41658132  0.57359472  0.68609036  1
  Se  Se251  1  0.41165947  0.91950527  0.20158775  1
  Se  Se252  1  0.42752607  0.90366419  0.68930439  1
  Se  Se253  1  0.74833491  0.25427167  0.19279983  1
  Se  Se254  1  0.75778263  0.24217553  0.69124821  1
  Se  Se255  1  0.75355438  0.57819092  0.18556582  1
  Se  Se256  1  0.74928908  0.57170409  0.70408721  1
  Se  Se257  1  0.74884516  0.91888413  0.19895175  1
  Se  Se258  1  0.75833988  0.90587005  0.68823957  1
