# generated using pymatgen
data_In86Cu29Se144
_symmetry_space_group_name_H-M   'P 1'
_cell_length_a   17.58016054
_cell_length_b   17.58010795
_cell_length_c   23.43257410
_cell_angle_alpha   90.00304783
_cell_angle_beta   90.00583465
_cell_angle_gamma   90.00969678
_symmetry_Int_Tables_number   1
_chemical_formula_structural   In86Cu29Se144
_chemical_formula_sum   'In86 Cu29 Se144'
_cell_volume   7242.09744541
_cell_formula_units_Z   1
loop_
 _symmetry_equiv_pos_site_id
 _symmetry_equiv_pos_as_xyz
  1  'x, y, z'
loop_
 _atom_site_type_symbol
 _atom_site_label
 _atom_site_symmetry_multiplicity
 _atom_site_fract_x
 _atom_site_fract_y
 _atom_site_fract_z
 _atom_site_occupancy
  In  In0  1  -0.00664219  0.16559695  0.10884416  1
  In  In1  1  0.00107628  0.15798599  0.64571858  1
  In  In2  1  0.01226171  0.50142868  0.11768846  1
  In  In3  1  -0.01208616  0.50260622  0.62879499  1
  In  In4  1  0.01192598  0.82360516  0.12806121  1
  In  In5  1  0.01278721  0.84045445  0.63173239  1
  In  In6  1  0.33089957  0.16740725  0.11794164  1
  In  In7  1  0.32015543  0.16283121  0.63101749  1
  In  In8  1  0.33481414  0.49932682  0.12145074  1
  In  In9  1  0.35136949  0.49912280  0.62977297  1
  In  In10  1  0.33478735  0.83150253  0.12380071  1
  In  In11  1  0.34444896  0.81219600  0.64185896  1
  In  In12  1  0.67246127  0.16735910  0.11029995  1
  In  In13  1  0.67318555  0.16016661  0.64414520  1
  In  In14  1  0.66802822  0.51481311  0.12288240  1
  In  In15  1  0.63910912  0.52209646  0.65465625  1
  In  In16  1  0.65384399  0.83102318  0.12040966  1
  In  In17  1  0.64569030  0.84537230  0.62778815  1
  In  In18  1  0.16624701  -0.00176323  0.36303164  1
  In  In19  1  0.17494854  -0.00413027  0.88138826  1
  In  In20  1  0.17049555  0.31709745  0.36932600  1
  In  In21  1  0.15557056  0.34128893  0.88482427  1
  In  In22  1  0.16832897  0.66663338  0.36601053  1
  In  In23  1  0.18286555  0.65303083  0.88050891  1
  In  In24  1  0.48842824  0.00134875  0.37668777  1
  In  In25  1  0.49658453  -0.00315690  0.87296088  1
  In  In26  1  0.50485940  0.34451614  0.37197848  1
  In  In27  1  0.49838752  0.33594005  0.87956912  1
  In  In28  1  0.49953466  0.66638385  0.37496437  1
  In  In29  1  0.49921928  0.66826879  0.87540009  1
  In  In30  1  0.83745346  -0.00875481  0.37396782  1
  In  In31  1  0.84688370  0.02762645  0.85224704  1
  In  In32  1  0.83244200  0.32570869  0.37504233  1
  In  In33  1  0.82874775  0.31381269  0.86534589  1
  In  In34  1  0.83908037  0.67581219  0.36740791  1
  In  In35  1  0.82466994  0.67238761  0.87453517  1
  In  In36  1  0.01111077  0.15930300  0.37292717  1
  In  In37  1  0.00338977  0.17169059  0.88295904  1
  In  In38  1  -0.00564570  0.50624455  0.37354276  1
  In  In39  1  0.02284059  0.49128478  0.87724460  1
  In  In40  1  0.00227936  0.83803585  0.36673969  1
  In  In41  1  0.00775259  0.84576199  0.87401930  1
  In  In42  1  0.32821405  0.16013546  0.35995317  1
  In  In43  1  0.34382521  0.15707640  0.88626473  1
  In  In44  1  0.34693368  0.51291489  0.36414160  1
  In  In45  1  0.32885120  0.51317561  0.87521496  1
  In  In46  1  0.33635057  0.83750998  0.36922690  1
  In  In47  1  0.33084252  0.83386442  0.87638983  1
  In  In48  1  0.66540132  0.17264238  0.37522022  1
  In  In49  1  0.66031975  0.16589102  0.87177149  1
  In  In50  1  0.64873761  0.50502811  0.38135645  1
  In  In51  1  0.65251747  0.49188185  0.86271917  1
  In  In52  1  0.67069810  0.82199882  0.37899976  1
  In  In53  1  0.65694662  0.82731446  0.86719052  1
  In  In54  1  0.16840821  -0.00210360  0.12032354  1
  In  In55  1  0.17035932  -0.01877624  0.65271996  1
  In  In56  1  0.17138661  0.34720206  0.10399613  1
  In  In57  1  0.16681645  0.32145924  0.63173284  1
  In  In58  1  0.17276451  0.66598831  0.12262673  1
  In  In59  1  0.17421230  0.67785744  0.63396498  1
  In  In60  1  0.49306966  -0.01255639  0.11269533  1
  In  In61  1  0.50743109  -0.01505037  0.63136449  1
  In  In62  1  0.49198573  0.32391305  0.11311552  1
  In  In63  1  0.49923420  0.34734491  0.63108477  1
  In  In64  1  0.49643444  0.66537050  0.12417658  1
  In  In65  1  0.49584468  0.66665284  0.62688892  1
  In  In66  1  0.83993676  0.01487418  0.11888809  1
  In  In67  1  0.82765338  0.00429895  0.63877777  1
  In  In68  1  0.84724174  0.32315227  0.11586617  1
  In  In69  1  0.82905361  0.33021881  0.64877481  1
  In  In70  1  0.82837200  0.67392664  0.13083850  1
  In  In71  1  0.83072544  0.65283086  0.62447213  1
  In  In72  1  0.16458375  0.16159619  0.50792730  1
  In  In73  1  0.01141558  0.34003364  0.23440841  1
  In  In74  1  0.17425006  0.50352983  0.49254253  1
  In  In75  1  0.66563178  0.34017729  0.25093100  1
  In  In76  1  0.82020785  0.49939085  0.51543005  1
  In  In77  1  0.83340221  0.49397344  -0.00557692  1
  In  In78  1  0.66572587  -0.00257248  0.24766034  1
  In  In79  1  0.83201755  0.16543655  0.52358446  1
  In  In80  1  0.83091257  0.84264579  -0.01289728  1
  In  In81  1  0.00156472  0.66420832  0.75123143  1
  In  In82  1  0.82808276  0.83213340  0.49861066  1
  In  In83  1  0.49885358  0.16476886  0.50178024  1
  In  In84  1  0.16838401  0.83395506  0.50640502  1
  In  In85  1  0.33121162  0.34031026  0.76256012  1
  Cu  Cu86  1  0.00671734  0.66395372  0.00098772  1
  Cu  Cu87  1  0.16997886  0.16392848  0.24098796  1
  Cu  Cu88  1  0.33138617  -0.00657340  0.50095619  1
  Cu  Cu89  1  0.66064649  0.66252359  0.50513779  1
  Cu  Cu90  1  0.00157360  -0.00024234  -0.00403297  1
  Cu  Cu91  1  0.66584391  0.00170629  -0.01174258  1
  Cu  Cu92  1  0.82459151  0.82874095  0.75015269  1
  Cu  Cu93  1  0.34501198  0.34066342  0.49408912  1
  Cu  Cu94  1  0.65527227  0.66855333  -0.00338946  1
  Cu  Cu95  1  0.66646352  0.33452583  -0.00927879  1
  Cu  Cu96  1  0.49199544  0.83124592  0.75307284  1
  Cu  Cu97  1  0.49328189  0.16798160  0.75756276  1
  Cu  Cu98  1  -0.00236364  0.34400294  0.50878704  1
  Cu  Cu99  1  0.49786733  0.82743169  0.24655792  1
  Cu  Cu100  1  0.49187401  0.16117219  0.23615787  1
  Cu  Cu101  1  -0.00265956  0.00228419  0.50559129  1
  Cu  Cu102  1  0.83759068  0.49350591  0.75645578  1
  Cu  Cu103  1  0.49592347  0.50178421  0.24717342  1
  Cu  Cu104  1  0.84104972  0.84008057  0.24586544  1
  Cu  Cu105  1  0.17084083  0.50086818  0.24111938  1
  Cu  Cu106  1  0.84289599  0.16690212  0.24220781  1
  Cu  Cu107  1  0.34023727  0.66480888  0.50111010  1
  Cu  Cu108  1  0.33773264  -0.00261106  0.00124778  1
  Cu  Cu109  1  0.17151039  0.83456875  0.24365955  1
  Cu  Cu110  1  0.66268701  0.33577012  0.51200295  1
  Cu  Cu111  1  0.33708050  0.66899143  0.00159681  1
  Cu  Cu112  1  0.16268639  0.16363428  0.76322946  1
  Cu  Cu113  1  0.83305392  0.51154711  0.25050424  1
  Cu  Cu114  1  0.33486707  0.33718604  -0.00476127  1
  Se  Se115  1  0.08633385  0.08103233  0.04996821  1
  Se  Se116  1  0.08100302  0.07134962  0.57046420  1
  Se  Se117  1  0.06193164  0.40577961  0.04479366  1
  Se  Se118  1  0.08720914  0.41850328  0.56284894  1
  Se  Se119  1  0.08922104  0.74924074  0.05240967  1
  Se  Se120  1  0.07457181  0.74113386  0.56010784  1
  Se  Se121  1  0.42099590  0.08636124  0.05105117  1
  Se  Se122  1  0.40570197  0.07875556  0.56211361  1
  Se  Se123  1  0.41879871  0.42056960  0.04979209  1
  Se  Se124  1  0.42386370  0.42088416  0.55248131  1
  Se  Se125  1  0.42111915  0.75290589  0.05396193  1
  Se  Se126  1  0.41606995  0.75319161  0.55639413  1
  Se  Se127  1  0.75295974  0.07971479  0.04433976  1
  Se  Se128  1  0.73215210  0.06861363  0.56340642  1
  Se  Se129  1  0.74225358  0.40844539  0.05998459  1
  Se  Se130  1  0.73801568  0.41004262  0.57859805  1
  Se  Se131  1  0.74654043  0.74658480  0.05057280  1
  Se  Se132  1  0.74206569  0.74315369  0.56349858  1
  Se  Se133  1  0.25217256  0.25042649  0.04607769  1
  Se  Se134  1  0.26259236  0.26155669  0.55333621  1
  Se  Se135  1  0.25207695  0.58251283  0.05216139  1
  Se  Se136  1  0.25627956  0.59060717  0.56149136  1
  Se  Se137  1  0.25334902  0.91406156  0.05355229  1
  Se  Se138  1  0.25434718  0.92248849  0.56830106  1
  Se  Se139  1  0.58505433  0.24990495  0.04709438  1
  Se  Se140  1  0.58636372  0.24800079  0.56898466  1
  Se  Se141  1  0.57843700  0.58244512  0.05205473  1
  Se  Se142  1  0.58275973  0.57793976  0.56191224  1
  Se  Se143  1  0.58890145  0.91696526  0.04571477  1
  Se  Se144  1  0.57382812  0.91618304  0.54826269  1
  Se  Se145  1  0.91207026  0.24561959  0.03863733  1
  Se  Se146  1  0.92765357  0.25971752  0.57249459  1
  Se  Se147  1  0.91454184  0.59233570  0.05722539  1
  Se  Se148  1  0.92799913  0.59355920  0.55013675  1
  Se  Se149  1  0.92280688  0.91635669  0.05737389  1
  Se  Se150  1  0.91748774  0.92122266  0.56341741  1
  Se  Se151  1  0.07359487  0.25838356  0.44808842  1
  Se  Se152  1  0.09011241  0.24701505  0.95318037  1
  Se  Se153  1  0.07724206  0.59466926  0.44138042  1
  Se  Se154  1  0.09007912  0.57930179  0.95015429  1
  Se  Se155  1  0.07947681  0.92749295  0.44294616  1
  Se  Se156  1  0.08860449  0.91261964  0.95123023  1
  Se  Se157  1  0.41169360  0.24925066  0.43352200  1
  Se  Se158  1  0.42202097  0.25035163  0.94981725  1
  Se  Se159  1  0.42007391  0.57993500  0.44586683  1
  Se  Se160  1  0.41827167  0.58489339  0.94629518  1
  Se  Se161  1  0.41456128  0.91275879  0.44630707  1
  Se  Se162  1  0.41858275  0.91383394  0.94551418  1
  Se  Se163  1  0.74438197  0.25553757  0.45306590  1
  Se  Se164  1  0.74663839  0.24591570  0.94238946  1
  Se  Se165  1  0.74748510  0.59264378  0.44122045  1
  Se  Se166  1  0.73854117  0.58590310  0.94078919  1
  Se  Se167  1  0.73889058  0.92909337  0.44360411  1
  Se  Se168  1  0.74653721  0.92900007  0.92336700  1
  Se  Se169  1  0.25279533  0.07598892  0.44042137  1
  Se  Se170  1  0.25119394  0.08260714  0.95298265  1
  Se  Se171  1  0.25875442  0.40897796  0.43126529  1
  Se  Se172  1  0.25243871  0.42211896  0.94328355  1
  Se  Se173  1  0.25536430  0.74331168  0.44235787  1
  Se  Se174  1  0.25089193  0.74913750  0.94787581  1
  Se  Se175  1  0.59113209  0.07717776  0.44046959  1
  Se  Se176  1  0.57646137  0.08469930  0.94180421  1
  Se  Se177  1  0.58190228  0.41261304  0.45193215  1
  Se  Se178  1  0.58263921  0.42340209  0.94589997  1
  Se  Se179  1  0.58301729  0.74622150  0.44677123  1
  Se  Se180  1  0.57758887  0.75798747  0.94540383  1
  Se  Se181  1  0.91829342  0.08473471  0.44618938  1
  Se  Se182  1  0.91402376  0.07918501  0.94317769  1
  Se  Se183  1  0.91442435  0.41391983  0.44601995  1
  Se  Se184  1  0.91733722  0.40832713  0.93043666  1
  Se  Se185  1  0.92736997  0.75006793  0.44172093  1
  Se  Se186  1  0.92670034  0.74238578  0.94011661  1
  Se  Se187  1  0.25196660  0.25008891  0.29280546  1
  Se  Se188  1  0.24834043  0.24362286  0.82050992  1
  Se  Se189  1  0.25095971  0.58372426  0.29884190  1
  Se  Se190  1  0.24816397  0.58168930  0.79789778  1
  Se  Se191  1  0.25414591  0.91798909  0.29887567  1
  Se  Se192  1  0.25653223  0.92259811  0.80676905  1
  Se  Se193  1  0.57190097  0.23903827  0.30091765  1
  Se  Se194  1  0.57574835  0.25463439  0.80669365  1
  Se  Se195  1  0.58101331  0.58236736  0.30309235  1
  Se  Se196  1  0.59385505  0.60127491  0.80504435  1
  Se  Se197  1  0.57778286  0.90815126  0.30973062  1
  Se  Se198  1  0.57873937  0.91701622  0.80066040  1
  Se  Se199  1  0.92125569  0.25050796  0.30322108  1
  Se  Se200  1  0.92498083  0.24099129  0.80354872  1
  Se  Se201  1  0.92313044  0.59067517  0.30103298  1
  Se  Se202  1  0.91425204  0.57609663  0.81715034  1
  Se  Se203  1  0.92180369  0.92554684  0.29918457  1
  Se  Se204  1  0.90730590  0.90610827  0.80744427  1
  Se  Se205  1  0.08390473  0.08420101  0.29626227  1
  Se  Se206  1  0.08405954  0.07861424  0.81730871  1
  Se  Se207  1  0.09260524  0.42370764  0.30891897  1
  Se  Se208  1  0.09167062  0.41262126  0.80115842  1
  Se  Se209  1  0.08669004  0.75444847  0.30126633  1
  Se  Se210  1  0.08885336  0.74583558  0.81704045  1
  Se  Se211  1  0.41876966  0.07757333  0.29779053  1
  Se  Se212  1  0.41000954  0.08069997  0.80537086  1
  Se  Se213  1  0.41696641  0.41287276  0.29966073  1
  Se  Se214  1  0.42831376  0.43373556  0.80939565  1
  Se  Se215  1  0.41610535  0.74690592  0.30493761  1
  Se  Se216  1  0.41054972  0.74677771  0.80654696  1
  Se  Se217  1  0.75938334  0.09350391  0.30577617  1
  Se  Se218  1  0.73195033  0.08044765  0.79810101  1
  Se  Se219  1  0.75728223  0.42895937  0.31316342  1
  Se  Se220  1  0.74974039  0.41123892  0.80472614  1
  Se  Se221  1  0.75555204  0.76028866  0.30132351  1
  Se  Se222  1  0.74247081  0.74260161  0.80021648  1
  Se  Se223  1  0.25446954  0.08036121  0.18889291  1
  Se  Se224  1  0.24766133  0.08478737  0.70644680  1
  Se  Se225  1  0.24574946  0.41312756  0.18625860  1
  Se  Se226  1  0.24748112  0.42085995  0.68960700  1
  Se  Se227  1  0.25376209  0.74780821  0.19372668  1
  Se  Se228  1  0.22610770  0.77806596  0.70232762  1
  Se  Se229  1  0.58322473  0.08675393  0.18168504  1
  Se  Se230  1  0.57101365  0.08404821  0.69927919  1
  Se  Se231  1  0.57687035  0.42192084  0.18569618  1
  Se  Se232  1  0.58955626  0.40334825  0.70622781  1
  Se  Se233  1  0.58424980  0.74696286  0.19410738  1
  Se  Se234  1  0.57759895  0.75182861  0.69661149  1
  Se  Se235  1  0.92745500  0.08556617  0.19060053  1
  Se  Se236  1  0.91777486  0.07239080  0.70761293  1
  Se  Se237  1  0.90554984  0.42810500  0.18695493  1
  Se  Se238  1  0.92602028  0.41482745  0.70400100  1
  Se  Se239  1  0.92004358  0.74957242  0.19585124  1
  Se  Se240  1  0.90875675  0.75305951  0.68871654  1
  Se  Se241  1  0.09362977  0.24419604  0.17734419  1
  Se  Se242  1  0.08619408  0.24899309  0.70580840  1
  Se  Se243  1  0.08414402  0.58392539  0.19152667  1
  Se  Se244  1  0.09141264  0.57471706  0.69057170  1
  Se  Se245  1  0.08548714  0.91838434  0.19329591  1
  Se  Se246  1  0.06764332  0.91812056  0.71392703  1
  Se  Se247  1  0.41226443  0.25249071  0.18936723  1
  Se  Se248  1  0.41457491  0.24782092  0.69374289  1
  Se  Se249  1  0.41202530  0.58404306  0.19364921  1
  Se  Se250  1  0.40631998  0.59651890  0.69885693  1
  Se  Se251  1  0.42118127  0.91535294  0.19261386  1
  Se  Se252  1  0.41085194  0.91980883  0.69994977  1
  Se  Se253  1  0.75554418  0.24739428  0.18960590  1
  Se  Se254  1  0.76104415  0.23285159  0.71211071  1
  Se  Se255  1  0.74444856  0.59076357  0.19875479  1
  Se  Se256  1  0.75816063  0.58122138  0.70321253  1
  Se  Se257  1  0.75766668  0.91377814  0.18234767  1
  Se  Se258  1  0.74162179  0.91228299  0.69658755  1
