# generated using pymatgen
data_In86Cu29Se144
_symmetry_space_group_name_H-M   'P 1'
_cell_length_a   17.58245288
_cell_length_b   17.57990343
_cell_length_c   23.44146616
_cell_angle_alpha   89.96797815
_cell_angle_beta   90.00545272
_cell_angle_gamma   90.00733414
_symmetry_Int_Tables_number   1
_chemical_formula_structural   In86Cu29Se144
_chemical_formula_sum   'In86 Cu29 Se144'
_cell_volume   7245.70495092
_cell_formula_units_Z   1
loop_
 _symmetry_equiv_pos_site_id
 _symmetry_equiv_pos_as_xyz
  1  'x, y, z'
loop_
 _atom_site_type_symbol
 _atom_site_label
 _atom_site_symmetry_multiplicity
 _atom_site_fract_x
 _atom_site_fract_y
 _atom_site_fract_z
 _atom_site_occupancy
  In  In0  1  0.00623113  0.15169314  0.12634901  1
  In  In1  1  -0.00314620  0.17184586  0.61573028  1
  In  In2  1  0.00436019  0.50298222  0.11838244  1
  In  In3  1  -0.00872106  0.51884620  0.62873471  1
  In  In4  1  -0.00449053  0.82667689  0.11551826  1
  In  In5  1  -0.01038897  0.81687744  0.61439606  1
  In  In6  1  0.32607535  0.17600741  0.13258045  1
  In  In7  1  0.31696584  0.13617258  0.60344424  1
  In  In8  1  0.32601832  0.48827279  0.11993703  1
  In  In9  1  0.33046519  0.49037905  0.62549545  1
  In  In10  1  0.33890999  0.83891244  0.12177102  1
  In  In11  1  0.33079536  0.85910513  0.62611076  1
  In  In12  1  0.67553403  0.17649915  0.13034576  1
  In  In13  1  0.66876770  0.16831357  0.62374468  1
  In  In14  1  0.66952359  0.50125787  0.12137059  1
  In  In15  1  0.67986187  0.48810982  0.63599810  1
  In  In16  1  0.66458240  0.82795826  0.11963918  1
  In  In17  1  0.67898116  0.82482279  0.63550011  1
  In  In18  1  0.17003388  0.00194002  0.37913448  1
  In  In19  1  0.16969902  -0.00514418  0.87469562  1
  In  In20  1  0.16584064  0.32451058  0.37500920  1
  In  In21  1  0.16789981  0.32838344  0.88336398  1
  In  In22  1  0.16937568  0.67206132  0.37693338  1
  In  In23  1  0.15900016  0.67382466  0.88010805  1
  In  In24  1  0.49535193  0.01348177  0.37825056  1
  In  In25  1  0.49529791  -0.00639812  0.86886844  1
  In  In26  1  0.49206555  0.32516892  0.36432918  1
  In  In27  1  0.51092981  0.33735042  0.87583638  1
  In  In28  1  0.50663293  0.65757000  0.36927986  1
  In  In29  1  0.50802599  0.65837758  0.88432933  1
  In  In30  1  0.83834010  -0.00569590  0.38760654  1
  In  In31  1  0.81695900  -0.00416061  0.86761959  1
  In  In32  1  0.82862210  0.34355103  0.38826595  1
  In  In33  1  0.83765240  0.34471284  0.87374711  1
  In  In34  1  0.82316510  0.67524894  0.38634559  1
  In  In35  1  0.83406529  0.66797389  0.87426433  1
  In  In36  1  0.00990591  0.16821234  0.39681806  1
  In  In37  1  0.00163457  0.17381774  0.87091619  1
  In  In38  1  -0.00940607  0.48833959  0.37931912  1
  In  In39  1  -0.01274318  0.50582727  0.88294995  1
  In  In40  1  -0.00829915  0.83131685  0.38308710  1
  In  In41  1  0.00819927  0.82250392  0.87659267  1
  In  In42  1  0.33020950  0.16418857  0.37504858  1
  In  In43  1  0.32824233  0.15210361  0.87007805  1
  In  In44  1  0.34256172  0.50138860  0.36756872  1
  In  In45  1  0.33000747  0.50340869  0.88855828  1
  In  In46  1  0.31616668  0.84128884  0.37666013  1
  In  In47  1  0.32642810  0.84190202  0.87995035  1
  In  In48  1  0.65534199  0.17401460  0.38268343  1
  In  In49  1  0.66880362  0.16895543  0.85742825  1
  In  In50  1  0.67346074  0.50836969  0.36490793  1
  In  In51  1  0.66889976  0.50343145  0.87624069  1
  In  In52  1  0.67926191  0.82866426  0.37325216  1
  In  In53  1  0.66872143  0.83188940  0.87579566  1
  In  In54  1  0.17432112  0.00702947  0.11770657  1
  In  In55  1  0.17229075  0.00249606  0.62196127  1
  In  In56  1  0.18271992  0.34492529  0.12134528  1
  In  In57  1  0.17284689  0.32130289  0.62344747  1
  In  In58  1  0.16274794  0.66374426  0.11733658  1
  In  In59  1  0.14826337  0.66973574  0.62765214  1
  In  In60  1  0.49561718  -0.01648021  0.12267789  1
  In  In61  1  0.49354300  0.01105452  0.63089776  1
  In  In62  1  0.49447509  0.34081989  0.12790990  1
  In  In63  1  0.51772103  0.32570509  0.62986927  1
  In  In64  1  0.51286749  0.67658375  0.11740713  1
  In  In65  1  0.50803013  0.67993113  0.62915558  1
  In  In66  1  0.83937430  -0.00455012  0.12332805  1
  In  In67  1  0.83007104  -0.00387272  0.62314076  1
  In  In68  1  0.82068226  0.33548026  0.12805767  1
  In  In69  1  0.81892139  0.32179228  0.60733158  1
  In  In70  1  0.83143303  0.66326259  0.12101796  1
  In  In71  1  0.83286039  0.66262100  0.62487379  1
  In  In72  1  0.66048982  0.00160086  0.25011033  1
  In  In73  1  0.49610658  0.16590894  -0.00662145  1
  In  In74  1  0.15985195  0.49652431  0.49737057  1
  In  In75  1  -0.00034988  0.00015765  0.73814033  1
  In  In76  1  -0.00078524  -0.00496188  0.26112900  1
  In  In77  1  0.33891135  0.66517509  0.24470052  1
  In  In78  1  0.83880050  0.16471295  -0.00520269  1
  In  In79  1  -0.00249291  0.66269915  0.24260722  1
  In  In80  1  0.50442593  0.50057430  0.49477640  1
  In  In81  1  0.00151641  0.32985522  0.26016255  1
  In  In82  1  0.33660797  0.67116968  0.75820493  1
  In  In83  1  0.34042007  0.32510880  0.75518366  1
  In  In84  1  -0.00751336  0.33187562  0.74267791  1
  In  In85  1  0.50094157  0.84274763  0.49887295  1
  Cu  Cu86  1  0.00013744  -0.00403775  0.50574180  1
  Cu  Cu87  1  0.16443920  0.84087187  0.24856922  1
  Cu  Cu88  1  0.82803297  0.16987343  0.26019952  1
  Cu  Cu89  1  0.50821725  0.49763000  0.24402568  1
  Cu  Cu90  1  -0.00012449  0.66571269  -0.00192284  1
  Cu  Cu91  1  0.49678435  0.83312795  0.24576937  1
  Cu  Cu92  1  0.32905288  0.33066136  0.00486080  1
  Cu  Cu93  1  0.32388801  0.67650850  0.50349747  1
  Cu  Cu94  1  0.83024377  0.49869114  0.24973156  1
  Cu  Cu95  1  0.16894151  0.83421255  0.75232586  1
  Cu  Cu96  1  0.33044155  -0.00140670  -0.00177619  1
  Cu  Cu97  1  0.83520489  0.83163620  0.74869490  1
  Cu  Cu98  1  0.50943328  0.83830487  0.75173927  1
  Cu  Cu99  1  0.66537052  0.33303236  0.49996795  1
  Cu  Cu100  1  0.67190907  0.66120275  0.50335282  1
  Cu  Cu101  1  0.66751601  0.34043802  -0.00075775  1
  Cu  Cu102  1  0.82870984  0.50462622  0.75394523  1
  Cu  Cu103  1  0.15487574  0.49785354  0.75425183  1
  Cu  Cu104  1  0.49983586  0.16571643  0.74502197  1
  Cu  Cu105  1  0.66999395  -0.00228325  0.50439569  1
  Cu  Cu106  1  0.49714607  0.16806275  0.25370083  1
  Cu  Cu107  1  0.34267190  0.32444646  0.49577090  1
  Cu  Cu108  1  0.00294218  0.32987094  0.00128230  1
  Cu  Cu109  1  0.00421019  -0.00927286  -0.00305766  1
  Cu  Cu110  1  0.66513381  -0.00476199  -0.00345034  1
  Cu  Cu111  1  0.67353961  0.66662210  -0.00226596  1
  Cu  Cu112  1  0.17378196  0.17196904  0.24968838  1
  Cu  Cu113  1  0.50590523  0.50896554  0.75290175  1
  Cu  Cu114  1  0.33770078  0.66840959  0.00468716  1
  Se  Se115  1  0.08236774  0.08088582  0.04900886  1
  Se  Se116  1  0.08284608  0.08267890  0.55532403  1
  Se  Se117  1  0.08603826  0.41406136  0.05458381  1
  Se  Se118  1  0.08085235  0.41740998  0.57103349  1
  Se  Se119  1  0.08559618  0.75072949  0.04906129  1
  Se  Se120  1  0.08979302  0.75140548  0.54947759  1
  Se  Se121  1  0.41021212  0.07978226  0.05939202  1
  Se  Se122  1  0.42878621  0.07985576  0.54733348  1
  Se  Se123  1  0.41834983  0.41481876  0.05091371  1
  Se  Se124  1  0.41745253  0.40816452  0.55733376  1
  Se  Se125  1  0.42081120  0.75575146  0.05354234  1
  Se  Se126  1  0.41038946  0.75045319  0.56134549  1
  Se  Se127  1  0.74209174  0.07863225  0.05744562  1
  Se  Se128  1  0.75250744  0.08479360  0.55479393  1
  Se  Se129  1  0.75548053  0.41879609  0.05188920  1
  Se  Se130  1  0.74476406  0.42502998  0.54898002  1
  Se  Se131  1  0.75448883  0.75181290  0.05215137  1
  Se  Se132  1  0.74923647  0.74966564  0.55653535  1
  Se  Se133  1  0.24607312  0.24352006  0.05419048  1
  Se  Se134  1  0.25244719  0.24855995  0.54873412  1
  Se  Se135  1  0.25233059  0.58246299  0.05385022  1
  Se  Se136  1  0.25290059  0.58587440  0.56114359  1
  Se  Se137  1  0.24876391  0.91291652  0.05253042  1
  Se  Se138  1  0.24787117  0.91906914  0.54958622  1
  Se  Se139  1  0.58893069  0.25313738  0.05575667  1
  Se  Se140  1  0.58286081  0.24722750  0.55088182  1
  Se  Se141  1  0.58792681  0.58422649  0.05150096  1
  Se  Se142  1  0.58811314  0.58498428  0.56363285  1
  Se  Se143  1  0.58234376  0.91361116  0.05124798  1
  Se  Se144  1  0.59167345  0.91830859  0.56737337  1
  Se  Se145  1  0.92204502  0.25171469  0.06437791  1
  Se  Se146  1  0.92425193  0.26035621  0.54700243  1
  Se  Se147  1  0.91712213  0.58243834  0.05277750  1
  Se  Se148  1  0.91916104  0.59180004  0.55141066  1
  Se  Se149  1  0.91376269  0.91536249  0.04999872  1
  Se  Se150  1  0.91134389  0.91339653  0.55384154  1
  Se  Se151  1  0.08432562  0.26818074  0.45462461  1
  Se  Se152  1  0.08148693  0.24297522  0.94798239  1
  Se  Se153  1  0.07375728  0.59058245  0.43891278  1
  Se  Se154  1  0.08423249  0.58048212  0.94617064  1
  Se  Se155  1  0.07896303  0.92006500  0.44231031  1
  Se  Se156  1  0.08959671  0.90978361  0.94327147  1
  Se  Se157  1  0.42444324  0.24338224  0.44077312  1
  Se  Se158  1  0.40449911  0.25770992  0.93492965  1
  Se  Se159  1  0.40635440  0.59749224  0.44388507  1
  Se  Se160  1  0.41979227  0.58204225  0.95285034  1
  Se  Se161  1  0.40353161  0.92826471  0.44373257  1
  Se  Se162  1  0.41890827  0.91923961  0.94607870  1
  Se  Se163  1  0.74957951  0.24669254  0.44887384  1
  Se  Se164  1  0.74227137  0.25314120  0.93915881  1
  Se  Se165  1  0.74791220  0.57469048  0.44659202  1
  Se  Se166  1  0.75617978  0.58160927  0.94494450  1
  Se  Se167  1  0.74745085  0.91047660  0.44946208  1
  Se  Se168  1  0.75349591  0.91437083  0.94624146  1
  Se  Se169  1  0.23408202  0.10072706  0.44422054  1
  Se  Se170  1  0.24700491  0.08240896  0.94587387  1
  Se  Se171  1  0.26504238  0.41498510  0.44074110  1
  Se  Se172  1  0.24533609  0.41572856  0.95111742  1
  Se  Se173  1  0.24182725  0.75735250  0.44887725  1
  Se  Se174  1  0.25450546  0.74657326  0.94523654  1
  Se  Se175  1  0.58531598  0.07893328  0.45028871  1
  Se  Se176  1  0.59323463  0.08156817  0.93567056  1
  Se  Se177  1  0.58855165  0.40972528  0.43295726  1
  Se  Se178  1  0.58245200  0.42299518  0.94722924  1
  Se  Se179  1  0.58673868  0.73973676  0.44443709  1
  Se  Se180  1  0.58693372  0.75120399  0.94751288  1
  Se  Se181  1  0.91643120  0.08246878  0.45405773  1
  Se  Se182  1  0.92414255  0.07045824  0.93455287  1
  Se  Se183  1  0.92665594  0.40680692  0.45561656  1
  Se  Se184  1  0.91531154  0.41289178  0.95174813  1
  Se  Se185  1  0.91610249  0.74622956  0.45147237  1
  Se  Se186  1  0.91686646  0.75015526  0.94505252  1
  Se  Se187  1  0.25520387  0.25497870  0.30417528  1
  Se  Se188  1  0.23771109  0.24102701  0.80615686  1
  Se  Se189  1  0.24379288  0.58130529  0.30572831  1
  Se  Se190  1  0.24316376  0.57522271  0.81066802  1
  Se  Se191  1  0.24585606  0.92447202  0.30195353  1
  Se  Se192  1  0.25343920  0.91841710  0.80186494  1
  Se  Se193  1  0.58817812  0.24849119  0.30101385  1
  Se  Se194  1  0.57657435  0.25466925  0.79904850  1
  Se  Se195  1  0.58742500  0.58639660  0.29502461  1
  Se  Se196  1  0.58843810  0.59041174  0.80668278  1
  Se  Se197  1  0.57340350  0.91014495  0.31334601  1
  Se  Se198  1  0.59273473  0.92165953  0.80546199  1
  Se  Se199  1  0.91424535  0.24010025  0.32138272  1
  Se  Se200  1  0.90218057  0.24225628  0.80458914  1
  Se  Se201  1  0.91102976  0.57819430  0.30984616  1
  Se  Se202  1  0.91840898  0.58414557  0.80483013  1
  Se  Se203  1  0.90037497  0.90329251  0.30832874  1
  Se  Se204  1  0.91871106  0.91135050  0.80755158  1
  Se  Se205  1  0.08528215  0.09860651  0.30980153  1
  Se  Se206  1  0.08647089  0.08502293  0.80523495  1
  Se  Se207  1  0.09356177  0.42787090  0.30963825  1
  Se  Se208  1  0.07937005  0.41425104  0.81373186  1
  Se  Se209  1  0.08446079  0.75787856  0.30560273  1
  Se  Se210  1  0.08561998  0.74668019  0.80045316  1
  Se  Se211  1  0.41322456  0.08285968  0.30287204  1
  Se  Se212  1  0.41824691  0.08274589  0.80074276  1
  Se  Se213  1  0.42017400  0.41965789  0.29740703  1
  Se  Se214  1  0.42003606  0.43061866  0.81092834  1
  Se  Se215  1  0.41857196  0.75813587  0.31253145  1
  Se  Se216  1  0.42870062  0.76017126  0.81510269  1
  Se  Se217  1  0.75187464  0.08236880  0.31684902  1
  Se  Se218  1  0.75525068  0.08588462  0.79591507  1
  Se  Se219  1  0.75456432  0.41111000  0.30623493  1
  Se  Se220  1  0.74751744  0.41719532  0.80549076  1
  Se  Se221  1  0.74336164  0.73482609  0.30526101  1
  Se  Se222  1  0.75158618  0.75086741  0.80528417  1
  Se  Se223  1  0.24841165  0.08087973  0.19605760  1
  Se  Se224  1  0.25583820  0.07961859  0.69288732  1
  Se  Se225  1  0.25814401  0.41338811  0.19975594  1
  Se  Se226  1  0.24030741  0.41880249  0.69894293  1
  Se  Se227  1  0.24142383  0.75569102  0.18979426  1
  Se  Se228  1  0.25046855  0.75384426  0.69002577  1
  Se  Se229  1  0.57208132  0.09083660  0.18571464  1
  Se  Se230  1  0.58891784  0.08415788  0.69550741  1
  Se  Se231  1  0.59192233  0.41309309  0.19160618  1
  Se  Se232  1  0.58207201  0.41819105  0.70087934  1
  Se  Se233  1  0.58473983  0.75336337  0.19582831  1
  Se  Se234  1  0.58970796  0.74748435  0.70446647  1
  Se  Se235  1  0.90652383  0.08952930  0.19944899  1
  Se  Se236  1  0.90756145  0.09650051  0.68796961  1
  Se  Se237  1  0.91661998  0.42033694  0.19267597  1
  Se  Se238  1  0.90218836  0.42465769  0.68794505  1
  Se  Se239  1  0.90724806  0.75976425  0.19177281  1
  Se  Se240  1  0.91654081  0.74691031  0.69503300  1
  Se  Se241  1  0.08747269  0.24662792  0.18977946  1
  Se  Se242  1  0.08971729  0.23795040  0.69373265  1
  Se  Se243  1  0.09629447  0.57175952  0.19337529  1
  Se  Se244  1  0.07822944  0.58714634  0.70293518  1
  Se  Se245  1  0.08154982  0.91527379  0.18659026  1
  Se  Se246  1  0.08747585  0.90280343  0.68435069  1
  Se  Se247  1  0.41795563  0.25296248  0.19653237  1
  Se  Se248  1  0.41587492  0.24044436  0.68325795  1
  Se  Se249  1  0.42742009  0.57818935  0.18245019  1
  Se  Se250  1  0.42046313  0.57894456  0.69028936  1
  Se  Se251  1  0.41065588  0.91874866  0.19929117  1
  Se  Se252  1  0.42140747  0.91904377  0.70064149  1
  Se  Se253  1  0.75011010  0.25469756  0.20500707  1
  Se  Se254  1  0.74140682  0.26468497  0.68900866  1
  Se  Se255  1  0.75196681  0.58261250  0.19286526  1
  Se  Se256  1  0.74675132  0.58950357  0.69878507  1
  Se  Se257  1  0.75247460  0.91347547  0.19164372  1
  Se  Se258  1  0.75301038  0.92044544  0.69996643  1
