# generated using pymatgen
data_In86Cu29Se144
_symmetry_space_group_name_H-M   'P 1'
_cell_length_a   17.58692696
_cell_length_b   17.58464958
_cell_length_c   23.45586661
_cell_angle_alpha   89.99103390
_cell_angle_beta   89.99353804
_cell_angle_gamma   89.99432499
_symmetry_Int_Tables_number   1
_chemical_formula_structural   In86Cu29Se144
_chemical_formula_sum   'In86 Cu29 Se144'
_cell_volume   7253.95991219
_cell_formula_units_Z   1
loop_
 _symmetry_equiv_pos_site_id
 _symmetry_equiv_pos_as_xyz
  1  'x, y, z'
loop_
 _atom_site_type_symbol
 _atom_site_label
 _atom_site_symmetry_multiplicity
 _atom_site_fract_x
 _atom_site_fract_y
 _atom_site_fract_z
 _atom_site_occupancy
  In  In0  1  0.01369521  0.16848195  0.12983620  1
  In  In1  1  0.01371602  0.15492061  0.63218461  1
  In  In2  1  0.00550789  0.50122890  0.13284202  1
  In  In3  1  -0.00257167  0.50224324  0.63179105  1
  In  In4  1  0.00132153  0.82183713  0.12170212  1
  In  In5  1  0.00472812  0.83547993  0.62700506  1
  In  In6  1  0.37560169  0.12484049  0.17317561  1
  In  In7  1  0.32102016  0.15406394  0.61037888  1
  In  In8  1  0.33196799  0.49287896  0.12784012  1
  In  In9  1  0.34671245  0.50139123  0.62406102  1
  In  In10  1  0.35110756  0.84920504  0.10734735  1
  In  In11  1  0.33472740  0.83575636  0.62677551  1
  In  In12  1  0.64603908  0.15397744  0.13308451  1
  In  In13  1  0.64949064  0.16511864  0.62214367  1
  In  In14  1  0.66163451  0.51609745  0.13085909  1
  In  In15  1  0.65465863  0.51417474  0.62747230  1
  In  In16  1  0.63867374  0.84908439  0.14484018  1
  In  In17  1  0.65816004  0.84304995  0.63377784  1
  In  In18  1  0.17621496  -0.01633217  0.38764183  1
  In  In19  1  0.16342920  -0.00923048  0.86893812  1
  In  In20  1  0.16082765  0.32690172  0.37487247  1
  In  In21  1  0.16745788  0.34258997  0.87012725  1
  In  In22  1  0.16939246  0.68598657  0.37628495  1
  In  In23  1  0.19103136  0.68725956  0.85669968  1
  In  In24  1  0.49395034  0.00550101  0.37214425  1
  In  In25  1  0.49918751  -0.00097157  0.87246160  1
  In  In26  1  0.48828791  0.33116421  0.37681358  1
  In  In27  1  0.49431117  0.32992303  0.88469034  1
  In  In28  1  0.50107391  0.67073491  0.37426407  1
  In  In29  1  0.49726445  0.66530753  0.87325807  1
  In  In30  1  0.82393642  0.00786901  0.37411513  1
  In  In31  1  0.82691633  -0.00678175  0.86604231  1
  In  In32  1  0.84203450  0.31527900  0.36876987  1
  In  In33  1  0.83792219  0.32512422  0.87398216  1
  In  In34  1  0.82707822  0.66521923  0.36835344  1
  In  In35  1  0.83293436  0.66845042  0.86743199  1
  In  In36  1  -0.00422245  0.17521768  0.37704466  1
  In  In37  1  0.00089556  0.16434517  0.86623597  1
  In  In38  1  -0.00524101  0.49608661  0.37250281  1
  In  In39  1  0.00202944  0.50269907  0.86780612  1
  In  In40  1  0.01639718  0.83661644  0.37565552  1
  In  In41  1  0.00873413  0.83707517  0.86590709  1
  In  In42  1  0.33624310  0.16118710  0.37540394  1
  In  In43  1  0.35157560  0.16036875  0.87645627  1
  In  In44  1  0.34877032  0.50330246  0.37658949  1
  In  In45  1  0.33740541  0.50949364  0.87539303  1
  In  In46  1  0.33517888  0.83721514  0.37617859  1
  In  In47  1  0.33488594  0.83188201  0.87649427  1
  In  In48  1  0.65849120  0.14200092  0.36342029  1
  In  In49  1  0.65609344  0.15484969  0.87170966  1
  In  In50  1  0.64982173  0.49461125  0.37195001  1
  In  In51  1  0.64619117  0.50597181  0.87979297  1
  In  In52  1  0.65219576  0.83533352  0.36185827  1
  In  In53  1  0.65978517  0.83042812  0.87042413  1
  In  In54  1  0.17835676  0.00037098  0.12282398  1
  In  In55  1  0.16943893  0.00254499  0.62183852  1
  In  In56  1  0.17922760  0.33169453  0.13765052  1
  In  In57  1  0.16935950  0.30788257  0.61717733  1
  In  In58  1  0.16544635  0.66530180  0.12420571  1
  In  In59  1  0.15857329  0.67909976  0.63059440  1
  In  In60  1  0.50045804  -0.01231054  0.12702704  1
  In  In61  1  0.49944610  -0.00450273  0.62625782  1
  In  In62  1  0.48614050  0.32081513  0.12587187  1
  In  In63  1  0.47750594  0.32518180  0.60346980  1
  In  In64  1  0.50752307  0.68221342  0.11282485  1
  In  In65  1  0.49615198  0.67098441  0.62648869  1
  In  In66  1  0.82038786  -0.00882929  0.12251819  1
  In  In67  1  0.83491631  -0.00126038  0.63223144  1
  In  In68  1  0.83856554  0.33663918  0.13069991  1
  In  In69  1  0.83559451  0.34179128  0.62527597  1
  In  In70  1  0.83408138  0.66937329  0.12902916  1
  In  In71  1  0.83005751  0.66953494  0.63285837  1
  In  In72  1  0.82436997  0.49945679  0.50697866  1
  In  In73  1  0.66844059  0.32689210  0.25506832  1
  In  In74  1  0.17496266  0.50583100  -0.00208625  1
  In  In75  1  0.83402841  0.83612714  0.50861429  1
  In  In76  1  0.17544964  0.16976286  0.00828214  1
  In  In77  1  0.66685478  0.34064047  0.74556823  1
  In  In78  1  -0.00483631  0.00555793  0.25373562  1
  In  In79  1  0.17286517  0.50341542  0.50076469  1
  In  In80  1  0.82046697  0.83080995  -0.00660729  1
  In  In81  1  0.83094558  0.16547099  0.49322493  1
  In  In82  1  0.32733152  0.33129820  0.74174098  1
  In  In83  1  0.33762642  0.67611045  0.25091868  1
  In  In84  1  0.82946320  0.50187166  0.01151947  1
  In  In85  1  0.82351468  0.16448108  0.00814482  1
  Cu  Cu86  1  0.49815552  0.83179353  0.75092504  1
  Cu  Cu87  1  0.16594402  0.16891213  0.25724136  1
  Cu  Cu88  1  0.01421611  0.67236001  -0.00384923  1
  Cu  Cu89  1  0.65409134  0.33018364  0.49291616  1
  Cu  Cu90  1  0.49974560  0.15838863  0.74715941  1
  Cu  Cu91  1  -0.00330604  -0.00577965  -0.01100013  1
  Cu  Cu92  1  0.16397326  0.50212373  0.25481401  1
  Cu  Cu93  1  0.16826677  0.16132240  0.74595131  1
  Cu  Cu94  1  0.33915342  -0.00336607  0.50029834  1
  Cu  Cu95  1  0.50194673  0.50391256  0.25152292  1
  Cu  Cu96  1  0.16235355  0.50101739  0.74704759  1
  Cu  Cu97  1  0.83287565  0.82597774  0.24807619  1
  Cu  Cu98  1  0.84270327  0.50051929  0.24977971  1
  Cu  Cu99  1  0.00331300  0.32740287  0.50081506  1
  Cu  Cu100  1  0.17173788  0.83746514  0.74645231  1
  Cu  Cu101  1  0.33900941  0.00136256  0.00306341  1
  Cu  Cu102  1  0.33725957  0.67726732  0.50055796  1
  Cu  Cu103  1  0.34147592  0.32712537  0.00978183  1
  Cu  Cu104  1  0.83866771  0.16820499  0.75036070  1
  Cu  Cu105  1  0.65342407  0.66998173  0.49863539  1
  Cu  Cu106  1  0.83400503  0.50041720  0.75041570  1
  Cu  Cu107  1  0.65453251  0.32636317  0.00559200  1
  Cu  Cu108  1  0.00457627  0.67629767  0.50048186  1
  Cu  Cu109  1  0.00747100  0.33836244  -0.00083300  1
  Cu  Cu110  1  0.65893521  0.67104113  0.00100888  1
  Cu  Cu111  1  0.65702524  -0.00348109  0.49916418  1
  Cu  Cu112  1  0.83670180  0.83455670  0.74962736  1
  Cu  Cu113  1  0.50024161  0.50385897  0.74844627  1
  Cu  Cu114  1  0.16604303  0.83291239  0.25086000  1
  Se  Se115  1  0.07377044  0.07309089  0.05381723  1
  Se  Se116  1  0.09964195  0.09939862  0.55500747  1
  Se  Se117  1  0.08803151  0.41343095  0.06106254  1
  Se  Se118  1  0.07794796  0.41361086  0.55991280  1
  Se  Se119  1  0.09365451  0.75435186  0.05180226  1
  Se  Se120  1  0.08657466  0.75804872  0.55347271  1
  Se  Se121  1  0.41019106  0.08112048  0.06936645  1
  Se  Se122  1  0.42344683  0.07966592  0.55346815  1
  Se  Se123  1  0.42048556  0.41918606  0.05806125  1
  Se  Se124  1  0.41299933  0.42888986  0.54383345  1
  Se  Se125  1  0.41554968  0.74899352  0.04421427  1
  Se  Se126  1  0.42098501  0.75802220  0.55578653  1
  Se  Se127  1  0.72851027  0.07032664  0.05606312  1
  Se  Se128  1  0.74287434  0.07548944  0.55749870  1
  Se  Se129  1  0.73621202  0.40630498  0.06450113  1
  Se  Se130  1  0.72900451  0.40600256  0.55989185  1
  Se  Se131  1  0.74029775  0.74665957  0.06294608  1
  Se  Se132  1  0.73801809  0.74288789  0.56047075  1
  Se  Se133  1  0.26652904  0.24765121  0.07219708  1
  Se  Se134  1  0.27775818  0.27107194  0.55109174  1
  Se  Se135  1  0.26547260  0.59296791  0.05753136  1
  Se  Se136  1  0.25588394  0.59791117  0.56181231  1
  Se  Se137  1  0.24577607  0.91814778  0.04735769  1
  Se  Se138  1  0.25347112  0.91683724  0.55556216  1
  Se  Se139  1  0.57663090  0.24154191  0.06061036  1
  Se  Se140  1  0.57592602  0.24337821  0.54740452  1
  Se  Se141  1  0.58158130  0.57962600  0.05225455  1
  Se  Se142  1  0.57345204  0.58474535  0.55302656  1
  Se  Se143  1  0.57889811  0.90543392  0.05545177  1
  Se  Se144  1  0.58009429  0.91058315  0.55501676  1
  Se  Se145  1  0.92749453  0.25612892  0.05756831  1
  Se  Se146  1  0.91901389  0.25035698  0.56098096  1
  Se  Se147  1  0.93260681  0.59362086  0.05706714  1
  Se  Se148  1  0.92208448  0.59388236  0.55726142  1
  Se  Se149  1  0.91851131  0.91810956  0.05375576  1
  Se  Se150  1  0.92679344  0.93189329  0.55808297  1
  Se  Se151  1  0.08578350  0.24401735  0.44903573  1
  Se  Se152  1  0.08306370  0.25359130  0.94059099  1
  Se  Se153  1  0.07710840  0.58950007  0.44042631  1
  Se  Se154  1  0.08683885  0.59061954  0.93365395  1
  Se  Se155  1  0.08045013  0.91379809  0.45348568  1
  Se  Se156  1  0.08522917  0.91156737  0.94290560  1
  Se  Se157  1  0.41638194  0.24342261  0.44601467  1
  Se  Se158  1  0.41932532  0.24135828  0.95354197  1
  Se  Se159  1  0.41842632  0.59298478  0.44651842  1
  Se  Se160  1  0.43350636  0.56832684  0.94299862  1
  Se  Se161  1  0.42226996  0.91653797  0.44386455  1
  Se  Se162  1  0.41687124  0.91874026  0.94399786  1
  Se  Se163  1  0.73644866  0.25284800  0.43420589  1
  Se  Se164  1  0.73984466  0.25614117  0.94251930  1
  Se  Se165  1  0.73783796  0.58776590  0.44262250  1
  Se  Se166  1  0.74592086  0.59070854  0.94428028  1
  Se  Se167  1  0.74288507  0.91799500  0.44178993  1
  Se  Se168  1  0.73434057  0.92943060  0.94060263  1
  Se  Se169  1  0.25373236  0.08018724  0.44794854  1
  Se  Se170  1  0.25436430  0.07833506  0.94101487  1
  Se  Se171  1  0.25541789  0.41500264  0.43727789  1
  Se  Se172  1  0.26332782  0.40335043  0.94430394  1
  Se  Se173  1  0.25109567  0.75907938  0.44875628  1
  Se  Se174  1  0.25199702  0.74627232  0.94390915  1
  Se  Se175  1  0.57957092  0.08413790  0.44520658  1
  Se  Se176  1  0.56590289  0.09424077  0.94257796  1
  Se  Se177  1  0.57226208  0.41834629  0.44453407  1
  Se  Se178  1  0.57990988  0.41406007  0.94984866  1
  Se  Se179  1  0.58194684  0.75888164  0.44152916  1
  Se  Se180  1  0.58024557  0.75137076  0.94222068  1
  Se  Se181  1  0.92636799  0.07156208  0.44317886  1
  Se  Se182  1  0.91482529  0.08199968  0.93928308  1
  Se  Se183  1  0.91555026  0.40666004  0.44635034  1
  Se  Se184  1  0.92030167  0.41602925  0.94449928  1
  Se  Se185  1  0.91590382  0.74643835  0.44012014  1
  Se  Se186  1  0.92302359  0.74562343  0.93941717  1
  Se  Se187  1  0.25193938  0.25003502  0.30920190  1
  Se  Se188  1  0.24708763  0.23954286  0.81066376  1
  Se  Se189  1  0.24665146  0.58386861  0.31323579  1
  Se  Se190  1  0.25312396  0.57614594  0.79978923  1
  Se  Se191  1  0.24824211  0.91451103  0.30593245  1
  Se  Se192  1  0.25571402  0.91598600  0.80374739  1
  Se  Se193  1  0.57044503  0.23890962  0.30652994  1
  Se  Se194  1  0.57291970  0.25080223  0.80401880  1
  Se  Se195  1  0.58435492  0.58892329  0.30327962  1
  Se  Se196  1  0.58476246  0.58652257  0.80072356  1
  Se  Se197  1  0.59913347  0.94891214  0.30315133  1
  Se  Se198  1  0.58226382  0.91774597  0.80188390  1
  Se  Se199  1  0.92541318  0.24578905  0.29651393  1
  Se  Se200  1  0.92125632  0.25467519  0.80080266  1
  Se  Se201  1  0.92036572  0.58697393  0.30526140  1
  Se  Se202  1  0.91802849  0.58591990  0.80136724  1
  Se  Se203  1  0.90843609  0.90730296  0.31207384  1
  Se  Se204  1  0.92041137  0.91953421  0.80140256  1
  Se  Se205  1  0.09089490  0.08292029  0.31717859  1
  Se  Se206  1  0.08455085  0.07968479  0.80192018  1
  Se  Se207  1  0.08209621  0.41580920  0.30722239  1
  Se  Se208  1  0.08138304  0.41508047  0.80010119  1
  Se  Se209  1  0.08106012  0.74870738  0.30062897  1
  Se  Se210  1  0.08483328  0.75026949  0.79633477  1
  Se  Se211  1  0.40362631  0.07527164  0.29922678  1
  Se  Se212  1  0.41381838  0.07740241  0.79919516  1
  Se  Se213  1  0.41860668  0.41924012  0.30242415  1
  Se  Se214  1  0.42156218  0.41491997  0.80520273  1
  Se  Se215  1  0.43137647  0.76832400  0.30373720  1
  Se  Se216  1  0.41509551  0.74838709  0.80450147  1
  Se  Se217  1  0.77710443  0.10899608  0.30422174  1
  Se  Se218  1  0.75075913  0.08890512  0.80307907  1
  Se  Se219  1  0.76091579  0.42279109  0.31221348  1
  Se  Se220  1  0.75289208  0.42524640  0.81498884  1
  Se  Se221  1  0.74416161  0.74955090  0.30244710  1
  Se  Se222  1  0.75013473  0.75306100  0.80257776  1
  Se  Se223  1  0.23975872  0.07959383  0.20253667  1
  Se  Se224  1  0.25539430  0.08230400  0.69332048  1
  Se  Se225  1  0.25378594  0.42223500  0.20525355  1
  Se  Se226  1  0.23824815  0.42259428  0.68177883  1
  Se  Se227  1  0.24854179  0.76071459  0.18685587  1
  Se  Se228  1  0.25426793  0.74949162  0.69659536  1
  Se  Se229  1  0.58633507  0.06046369  0.20442126  1
  Se  Se230  1  0.58695820  0.07691269  0.69636435  1
  Se  Se231  1  0.58036205  0.41806906  0.19267797  1
  Se  Se232  1  0.56602970  0.41484518  0.68411014  1
  Se  Se233  1  0.58802194  0.73187289  0.19711568  1
  Se  Se234  1  0.58277442  0.74803013  0.69738112  1
  Se  Se235  1  0.90974484  0.08592905  0.18313158  1
  Se  Se236  1  0.92009827  0.08198999  0.69808330  1
  Se  Se237  1  0.92416602  0.41403428  0.19873001  1
  Se  Se238  1  0.91644928  0.41524695  0.69874260  1
  Se  Se239  1  0.92194940  0.74812140  0.19658750  1
  Se  Se240  1  0.91924075  0.75246580  0.69442585  1
  Se  Se241  1  0.08595695  0.25277384  0.20116329  1
  Se  Se242  1  0.08639848  0.25189476  0.69805869  1
  Se  Se243  1  0.08712979  0.58764594  0.19840696  1
  Se  Se244  1  0.07983118  0.58811282  0.69653482  1
  Se  Se245  1  0.08370696  0.91482812  0.19049258  1
  Se  Se246  1  0.08722617  0.92079377  0.69365951  1
  Se  Se247  1  0.40751685  0.26092876  0.20595470  1
  Se  Se248  1  0.41956418  0.23920614  0.68654119  1
  Se  Se249  1  0.42284585  0.58372671  0.18942318  1
  Se  Se250  1  0.41412491  0.58717682  0.69794893  1
  Se  Se251  1  0.40649173  0.91453259  0.19459588  1
  Se  Se252  1  0.41615933  0.91744679  0.69780035  1
  Se  Se253  1  0.75223453  0.24011711  0.18722198  1
  Se  Se254  1  0.75448990  0.24231991  0.68779632  1
  Se  Se255  1  0.75696300  0.58235999  0.19826636  1
  Se  Se256  1  0.74801350  0.58028998  0.69684580  1
  Se  Se257  1  0.75057494  0.91460784  0.19968838  1
  Se  Se258  1  0.75018003  0.91875818  0.69961167  1
