# generated using pymatgen
data_In86Cu29Se144
_symmetry_space_group_name_H-M   'P 1'
_cell_length_a   17.57704774
_cell_length_b   17.57633839
_cell_length_c   23.42934323
_cell_angle_alpha   89.98424068
_cell_angle_beta   90.03043320
_cell_angle_gamma   89.99815850
_symmetry_Int_Tables_number   1
_chemical_formula_structural   In86Cu29Se144
_chemical_formula_sum   'In86 Cu29 Se144'
_cell_volume   7238.26325423
_cell_formula_units_Z   1
loop_
 _symmetry_equiv_pos_site_id
 _symmetry_equiv_pos_as_xyz
  1  'x, y, z'
loop_
 _atom_site_type_symbol
 _atom_site_label
 _atom_site_symmetry_multiplicity
 _atom_site_fract_x
 _atom_site_fract_y
 _atom_site_fract_z
 _atom_site_occupancy
  In  In0  1  -0.00745602  0.17219353  0.12782848  1
  In  In1  1  0.01009210  0.16290992  0.62357700  1
  In  In2  1  -0.00727019  0.49272096  0.11936872  1
  In  In3  1  -0.01776913  0.51144263  0.62660209  1
  In  In4  1  0.00824010  0.84439377  0.11907600  1
  In  In5  1  0.00086508  0.83568207  0.62434229  1
  In  In6  1  0.35003890  0.16196978  0.13422902  1
  In  In7  1  0.32093705  0.16941700  0.62537060  1
  In  In8  1  0.32504190  0.48700613  0.11008735  1
  In  In9  1  0.33874777  0.48498316  0.62400492  1
  In  In10  1  0.33798599  0.83709724  0.11993221  1
  In  In11  1  0.34465947  0.83734290  0.63170705  1
  In  In12  1  0.65347527  0.15247049  0.11749286  1
  In  In13  1  0.67450736  0.16427052  0.63804108  1
  In  In14  1  0.66961506  0.50220962  0.11706477  1
  In  In15  1  0.66858399  0.50086720  0.63000400  1
  In  In16  1  0.66491444  0.83356553  0.12259809  1
  In  In17  1  0.66278991  0.83690300  0.63662818  1
  In  In18  1  0.17860778  0.01046627  0.35929277  1
  In  In19  1  0.16686251  -0.00963836  0.87911746  1
  In  In20  1  0.15726576  0.32491244  0.36726740  1
  In  In21  1  0.15975990  0.34773784  0.87729824  1
  In  In22  1  0.16176330  0.66657315  0.37318112  1
  In  In23  1  0.16882414  0.66167835  0.88539231  1
  In  In24  1  0.50236698  0.00789180  0.36146576  1
  In  In25  1  0.50213510  0.00286252  0.87939458  1
  In  In26  1  0.50726786  0.34463990  0.36968573  1
  In  In27  1  0.50708081  0.32071748  0.89023023  1
  In  In28  1  0.50240978  0.65101464  0.37320346  1
  In  In29  1  0.51243493  0.65641898  0.88302703  1
  In  In30  1  0.82897097  -0.00469061  0.36437353  1
  In  In31  1  0.81434025  0.01584287  0.88689793  1
  In  In32  1  0.84324545  0.32996603  0.37401450  1
  In  In33  1  0.83665177  0.33036003  0.87176552  1
  In  In34  1  0.82046296  0.66826253  0.37293631  1
  In  In35  1  0.82571378  0.67575078  0.88114408  1
  In  In36  1  0.00754367  0.17820967  0.36744747  1
  In  In37  1  -0.02361179  0.17218620  0.87493822  1
  In  In38  1  0.00175198  0.48589240  0.37558335  1
  In  In39  1  0.00971246  0.48415351  0.87852060  1
  In  In40  1  -0.00779284  0.83690162  0.36610468  1
  In  In41  1  0.00137979  0.82895693  0.88584042  1
  In  In42  1  0.32463811  0.15781759  0.36303345  1
  In  In43  1  0.35126607  0.17137346  0.88258479  1
  In  In44  1  0.35040661  0.50078179  0.37127463  1
  In  In45  1  0.32742658  0.49246606  0.88760640  1
  In  In46  1  0.32863164  0.85175458  0.36775899  1
  In  In47  1  0.32721773  0.84231240  0.88688952  1
  In  In48  1  0.67007470  0.16247541  0.36943728  1
  In  In49  1  0.67046998  0.16537510  0.87332102  1
  In  In50  1  0.65983204  0.50260307  0.37690724  1
  In  In51  1  0.66810508  0.50052088  0.87555933  1
  In  In52  1  0.67119977  0.83298559  0.36568227  1
  In  In53  1  0.66409674  0.83545017  0.87858618  1
  In  In54  1  0.17372229  -0.01237579  0.13560989  1
  In  In55  1  0.16126709  0.01427676  0.62540530  1
  In  In56  1  0.16214012  0.33847254  0.12919561  1
  In  In57  1  0.17564624  0.32291548  0.62759729  1
  In  In58  1  0.17039062  0.66785494  0.11682753  1
  In  In59  1  0.15765803  0.67501566  0.62669066  1
  In  In60  1  0.50614038  0.00059614  0.12605691  1
  In  In61  1  0.49953627  -0.00068159  0.63194329  1
  In  In62  1  0.48398452  0.31940881  0.10353897  1
  In  In63  1  0.50267329  0.34604705  0.62596449  1
  In  In64  1  0.50641121  0.67400698  0.11746246  1
  In  In65  1  0.51396567  0.66623422  0.63019867  1
  In  In66  1  0.83121217  -0.00097536  0.12135113  1
  In  In67  1  0.82888539  -0.00363676  0.62841293  1
  In  In68  1  0.83828712  0.33673072  0.11679436  1
  In  In69  1  0.81795028  0.34431541  0.63995881  1
  In  In70  1  0.82135548  0.65767208  0.11875308  1
  In  In71  1  0.83580056  0.65050741  0.62527883  1
  In  In72  1  0.16588658  0.49348536  0.50063615  1
  In  In73  1  0.34270298  0.67118014  0.24366190  1
  In  In74  1  -0.00559114  0.00087520  0.75077259  1
  In  In75  1  0.50209723  0.17095575  0.49246215  1
  In  In76  1  0.16720040  0.16620788  0.01232394  1
  In  In77  1  0.50412324  0.83113091  0.50392574  1
  In  In78  1  -0.00350553  0.66894457  0.25033281  1
  In  In79  1  0.66075011  0.32584841  0.24377469  1
  In  In80  1  0.33971547  0.66013793  0.76977869  1
  In  In81  1  0.83462835  0.17002430  0.50425816  1
  In  In82  1  0.83348185  0.82878576  0.49570173  1
  In  In83  1  0.33628784  0.32848726  0.75614625  1
  In  In84  1  -0.00351184  0.66529224  0.74684971  1
  In  In85  1  0.16497177  0.83600738  0.50071502  1
  Cu  Cu86  1  0.83020015  0.50217062  0.75548120  1
  Cu  Cu87  1  0.50488741  0.49940372  0.24502874  1
  Cu  Cu88  1  0.50508453  0.49731770  0.75482570  1
  Cu  Cu89  1  0.66791969  0.34201792  0.50647589  1
  Cu  Cu90  1  -0.00161541  0.33141138  0.00066790  1
  Cu  Cu91  1  -0.00263931  0.33484671  0.49991456  1
  Cu  Cu92  1  -0.00284916  -0.00437333  -0.00003382  1
  Cu  Cu93  1  0.66884440  0.65769061  0.50322300  1
  Cu  Cu94  1  0.16913334  0.49830698  0.24680027  1
  Cu  Cu95  1  0.17002791  0.16049700  0.75188353  1
  Cu  Cu96  1  0.17888296  0.83293482  0.75852613  1
  Cu  Cu97  1  0.50486415  0.16496313  0.75717835  1
  Cu  Cu98  1  0.32923545  0.00737110  0.49399660  1
  Cu  Cu99  1  -0.00603705  0.66214060  0.00280031  1
  Cu  Cu100  1  0.83045319  0.49416138  0.24190477  1
  Cu  Cu101  1  0.83204808  0.16214287  0.24604784  1
  Cu  Cu102  1  0.33223349  0.65862617  0.49599052  1
  Cu  Cu103  1  0.66770034  0.67070633  -0.00119140  1
  Cu  Cu104  1  0.33651376  0.00241693  0.00802503  1
  Cu  Cu105  1  0.83098321  0.83592694  0.24258865  1
  Cu  Cu106  1  0.67330844  0.33589027  -0.00304249  1
  Cu  Cu107  1  0.82530381  0.83853689  0.75935455  1
  Cu  Cu108  1  0.50384291  0.83446610  0.24228553  1
  Cu  Cu109  1  0.66471389  -0.00257771  0.00036727  1
  Cu  Cu110  1  0.33274359  0.66827506  0.00141774  1
  Cu  Cu111  1  0.33227832  0.33043165  0.49915726  1
  Cu  Cu112  1  0.16342513  0.16986303  0.24322375  1
  Cu  Cu113  1  0.00481478  0.00909234  0.49248087  1
  Cu  Cu114  1  0.50252622  0.84205691  0.75684697  1
  Se  Se115  1  0.07605216  0.07150384  0.06542508  1
  Se  Se116  1  0.08908448  0.08883929  0.54721992  1
  Se  Se117  1  0.08345543  0.41445697  0.05331039  1
  Se  Se118  1  0.07732307  0.40984507  0.56545478  1
  Se  Se119  1  0.07934000  0.74767695  0.05312797  1
  Se  Se120  1  0.06730224  0.74104675  0.55115706  1
  Se  Se121  1  0.42304357  0.08573601  0.05630082  1
  Se  Se122  1  0.41232714  0.08189422  0.55720842  1
  Se  Se123  1  0.43493843  0.43593586  0.04827162  1
  Se  Se124  1  0.41880090  0.41354513  0.54891780  1
  Se  Se125  1  0.41780364  0.75326311  0.05076267  1
  Se  Se126  1  0.40921346  0.73849097  0.56011007  1
  Se  Se127  1  0.75004256  0.08278269  0.05102075  1
  Se  Se128  1  0.74139341  0.07727763  0.55755587  1
  Se  Se129  1  0.75547138  0.42067061  0.04975723  1
  Se  Se130  1  0.75409024  0.42194643  0.55867723  1
  Se  Se131  1  0.75077133  0.75364463  0.05276814  1
  Se  Se132  1  0.74135259  0.74684266  0.56220113  1
  Se  Se133  1  0.25940362  0.25381070  0.06815067  1
  Se  Se134  1  0.24729008  0.24693778  0.54882356  1
  Se  Se135  1  0.24579372  0.58112181  0.04797677  1
  Se  Se136  1  0.25330156  0.58821536  0.56294874  1
  Se  Se137  1  0.24746272  0.91825052  0.05439147  1
  Se  Se138  1  0.25938972  0.92389236  0.56009048  1
  Se  Se139  1  0.58990229  0.24935399  0.04750793  1
  Se  Se140  1  0.59030506  0.25296370  0.56141414  1
  Se  Se141  1  0.58419158  0.58520073  0.04997880  1
  Se  Se142  1  0.58220575  0.57933768  0.55784535  1
  Se  Se143  1  0.57998572  0.91446919  0.05328371  1
  Se  Se144  1  0.59224884  0.92518578  0.55954200  1
  Se  Se145  1  0.91486132  0.24460736  0.05004009  1
  Se  Se146  1  0.91927245  0.26044978  0.56631176  1
  Se  Se147  1  0.90988242  0.57691209  0.05275498  1
  Se  Se148  1  0.91664760  0.58778763  0.54770007  1
  Se  Se149  1  0.91174340  0.91258511  0.05192145  1
  Se  Se150  1  0.92584859  0.92885832  0.55317083  1
  Se  Se151  1  0.08120805  0.25290921  0.44605161  1
  Se  Se152  1  0.07877233  0.24710131  0.94250306  1
  Se  Se153  1  0.07650425  0.58667696  0.44222668  1
  Se  Se154  1  0.07770829  0.58041082  0.94715657  1
  Se  Se155  1  0.08116460  0.92317667  0.43416015  1
  Se  Se156  1  0.08620659  0.91392039  0.95133993  1
  Se  Se157  1  0.40933266  0.25623584  0.43238588  1
  Se  Se158  1  0.40884387  0.25874215  0.95779581  1
  Se  Se159  1  0.42216561  0.57808546  0.44888545  1
  Se  Se160  1  0.41334835  0.58473944  0.94594480  1
  Se  Se161  1  0.41592250  0.92473458  0.44238426  1
  Se  Se162  1  0.41906404  0.92126981  0.95058063  1
  Se  Se163  1  0.73998137  0.25857475  0.44248850  1
  Se  Se164  1  0.75341405  0.24971973  0.94232184  1
  Se  Se165  1  0.75071539  0.57977541  0.44454935  1
  Se  Se166  1  0.74950825  0.58348587  0.94669113  1
  Se  Se167  1  0.74259851  0.92271815  0.44178648  1
  Se  Se168  1  0.75079560  0.91262911  0.94962233  1
  Se  Se169  1  0.24450292  0.08699169  0.44078354  1
  Se  Se170  1  0.25495163  0.08040062  0.94540416  1
  Se  Se171  1  0.25589970  0.41200725  0.43490755  1
  Se  Se172  1  0.24460540  0.40882179  0.95346165  1
  Se  Se173  1  0.25958767  0.74649025  0.43884495  1
  Se  Se174  1  0.24573117  0.75240192  0.95087064  1
  Se  Se175  1  0.59155429  0.07315945  0.44092515  1
  Se  Se176  1  0.58662863  0.08682958  0.94624028  1
  Se  Se177  1  0.58199037  0.41724072  0.44786252  1
  Se  Se178  1  0.58630748  0.42020302  0.94726996  1
  Se  Se179  1  0.59250228  0.74135847  0.44063608  1
  Se  Se180  1  0.58033281  0.75431075  0.94885891  1
  Se  Se181  1  0.91680977  0.08279238  0.43476677  1
  Se  Se182  1  0.91546362  0.08367156  0.95058129  1
  Se  Se183  1  0.91250263  0.41641194  0.44769237  1
  Se  Se184  1  0.91524638  0.41404699  0.94550901  1
  Se  Se185  1  0.92585724  0.74047071  0.43702582  1
  Se  Se186  1  0.91322777  0.75042299  0.95175604  1
  Se  Se187  1  0.24786000  0.25226497  0.29883587  1
  Se  Se188  1  0.24415937  0.24069008  0.81655855  1
  Se  Se189  1  0.24805513  0.58002299  0.30662064  1
  Se  Se190  1  0.23815533  0.56773519  0.81191983  1
  Se  Se191  1  0.24578588  0.91449046  0.29274933  1
  Se  Se192  1  0.25749002  0.92192464  0.80758539  1
  Se  Se193  1  0.57080016  0.23725773  0.30582709  1
  Se  Se194  1  0.58219406  0.25362992  0.80936275  1
  Se  Se195  1  0.58767479  0.58237040  0.29920149  1
  Se  Se196  1  0.58739159  0.58576376  0.80387547  1
  Se  Se197  1  0.58542104  0.91586944  0.30074256  1
  Se  Se198  1  0.58815478  0.92438279  0.80876384  1
  Se  Se199  1  0.91348689  0.24933240  0.29874629  1
  Se  Se200  1  0.92769645  0.26335466  0.79887943  1
  Se  Se201  1  0.90839751  0.57278123  0.30772513  1
  Se  Se202  1  0.91306610  0.58170444  0.81495635  1
  Se  Se203  1  0.91583723  0.91870188  0.29510456  1
  Se  Se204  1  0.91306618  0.91197668  0.81676399  1
  Se  Se205  1  0.08004315  0.08700414  0.29908880  1
  Se  Se206  1  0.08516483  0.08750476  0.81448013  1
  Se  Se207  1  0.08219772  0.41714210  0.29951948  1
  Se  Se208  1  0.07892695  0.41027154  0.79885345  1
  Se  Se209  1  0.09428280  0.76049839  0.30288471  1
  Se  Se210  1  0.09038074  0.75240724  0.80998352  1
  Se  Se211  1  0.40750547  0.07548134  0.29685767  1
  Se  Se212  1  0.41723574  0.08479627  0.80835259  1
  Se  Se213  1  0.41961624  0.41659143  0.29724216  1
  Se  Se214  1  0.42423028  0.41985343  0.81585435  1
  Se  Se215  1  0.42802906  0.75927857  0.31194641  1
  Se  Se216  1  0.42636955  0.76063977  0.81992633  1
  Se  Se217  1  0.74603772  0.08048077  0.29790371  1
  Se  Se218  1  0.75332185  0.08419640  0.80320678  1
  Se  Se219  1  0.75115541  0.41576450  0.30697452  1
  Se  Se220  1  0.74812907  0.41573327  0.80645351  1
  Se  Se221  1  0.75095895  0.74847938  0.29658938  1
  Se  Se222  1  0.74353313  0.74929998  0.80708705  1
  Se  Se223  1  0.25079546  0.08638123  0.19486900  1
  Se  Se224  1  0.25321043  0.07895379  0.69764067  1
  Se  Se225  1  0.25522361  0.41876039  0.19370170  1
  Se  Se226  1  0.24595073  0.42174261  0.69720432  1
  Se  Se227  1  0.24420479  0.75621584  0.19010657  1
  Se  Se228  1  0.25322688  0.74880184  0.69723590  1
  Se  Se229  1  0.58206044  0.08491122  0.19784817  1
  Se  Se230  1  0.58304209  0.08118526  0.69917239  1
  Se  Se231  1  0.57738445  0.41659322  0.18152964  1
  Se  Se232  1  0.58717508  0.41484987  0.69965424  1
  Se  Se233  1  0.58613952  0.74647553  0.19392108  1
  Se  Se234  1  0.58052994  0.75261315  0.70388146  1
  Se  Se235  1  0.91572821  0.07924264  0.19271888  1
  Se  Se236  1  0.90847809  0.09408014  0.69107992  1
  Se  Se237  1  0.91716430  0.41150933  0.19373863  1
  Se  Se238  1  0.91574817  0.42386053  0.69943617  1
  Se  Se239  1  0.91001793  0.75219156  0.18391166  1
  Se  Se240  1  0.90409549  0.76330201  0.69216734  1
  Se  Se241  1  0.07711229  0.25484917  0.19526843  1
  Se  Se242  1  0.08978364  0.24333495  0.69556235  1
  Se  Se243  1  0.08774803  0.57970799  0.18900352  1
  Se  Se244  1  0.09226337  0.57421089  0.69268176  1
  Se  Se245  1  0.07536779  0.91774080  0.19942743  1
  Se  Se246  1  0.09478922  0.90836859  0.69543590  1
  Se  Se247  1  0.42264998  0.26362950  0.19346514  1
  Se  Se248  1  0.42603427  0.24187404  0.69047858  1
  Se  Se249  1  0.42238819  0.57637128  0.18295013  1
  Se  Se250  1  0.42056568  0.57567541  0.69520384  1
  Se  Se251  1  0.41720250  0.91620611  0.19236277  1
  Se  Se252  1  0.41566903  0.92183677  0.70352188  1
  Se  Se253  1  0.75418449  0.24161930  0.18312854  1
  Se  Se254  1  0.74735385  0.25162829  0.70559578  1
  Se  Se255  1  0.74557068  0.57980738  0.19471117  1
  Se  Se256  1  0.74915157  0.58718158  0.69998743  1
  Se  Se257  1  0.74531635  0.91967281  0.19171495  1
  Se  Se258  1  0.74742679  0.92243781  0.70156515  1
