# generated using pymatgen
data_In86Cu29Se144
_symmetry_space_group_name_H-M   'P 1'
_cell_length_a   17.57884238
_cell_length_b   17.57376516
_cell_length_c   23.44137415
_cell_angle_alpha   89.99416965
_cell_angle_beta   90.01855607
_cell_angle_gamma   90.00012683
_symmetry_Int_Tables_number   1
_chemical_formula_structural   In86Cu29Se144
_chemical_formula_sum   'In86 Cu29 Se144'
_cell_volume   7241.66003168
_cell_formula_units_Z   1
loop_
 _symmetry_equiv_pos_site_id
 _symmetry_equiv_pos_as_xyz
  1  'x, y, z'
loop_
 _atom_site_type_symbol
 _atom_site_label
 _atom_site_symmetry_multiplicity
 _atom_site_fract_x
 _atom_site_fract_y
 _atom_site_fract_z
 _atom_site_occupancy
  In  In0  1  -0.00972590  0.16804666  0.12415617  1
  In  In1  1  -0.02283978  0.16945605  0.62337877  1
  In  In2  1  0.00655357  0.50708816  0.11444313  1
  In  In3  1  0.00319950  0.50400737  0.62904166  1
  In  In4  1  0.00634304  0.82913806  0.13454825  1
  In  In5  1  -0.00166018  0.83699018  0.62759710  1
  In  In6  1  0.34208801  0.16009466  0.13556228  1
  In  In7  1  0.34404872  0.17689519  0.62693738  1
  In  In8  1  0.33745071  0.49867238  0.12341195  1
  In  In9  1  0.33770529  0.49367303  0.63520116  1
  In  In10  1  0.34175590  0.82216097  0.13281473  1
  In  In11  1  0.33169813  0.81646281  0.62022560  1
  In  In12  1  0.66155313  0.16010468  0.12038508  1
  In  In13  1  0.67962374  0.16415647  0.62611808  1
  In  In14  1  0.67525415  0.51520302  0.11089066  1
  In  In15  1  0.65325082  0.50784525  0.62905032  1
  In  In16  1  0.66202367  0.83895758  0.13035267  1
  In  In17  1  0.66703937  0.82769113  0.61245144  1
  In  In18  1  0.16065603  0.00637335  0.36176151  1
  In  In19  1  0.15964427  0.00817309  0.87428013  1
  In  In20  1  0.17182985  0.32704886  0.36844399  1
  In  In21  1  0.18369425  0.33628541  0.87145033  1
  In  In22  1  0.16467359  0.65761086  0.36266255  1
  In  In23  1  0.15256715  0.64986638  0.86250955  1
  In  In24  1  0.49000932  -0.01137617  0.36429518  1
  In  In25  1  0.50559235  -0.00518824  0.88714831  1
  In  In26  1  0.49239537  0.34628948  0.37689910  1
  In  In27  1  0.50124957  0.33821020  0.87872517  1
  In  In28  1  0.50046490  0.66571281  0.36922685  1
  In  In29  1  0.49584141  0.67214802  0.88664985  1
  In  In30  1  0.83187958  -0.00395921  0.37310407  1
  In  In31  1  0.84640075  -0.00292831  0.87885045  1
  In  In32  1  0.82277295  0.33168332  0.38433992  1
  In  In33  1  0.81962830  0.34506473  0.87979370  1
  In  In34  1  0.84491246  0.68352077  0.36981821  1
  In  In35  1  0.83663983  0.63590479  0.87402622  1
  In  In36  1  -0.00023759  0.15685889  0.37643621  1
  In  In37  1  -0.00101779  0.15375645  0.87458003  1
  In  In38  1  -0.00892976  0.50734191  0.37356723  1
  In  In39  1  -0.00922726  0.50533775  0.87778292  1
  In  In40  1  -0.01373574  0.82568940  0.37300950  1
  In  In41  1  0.00100154  0.83204293  0.86716957  1
  In  In42  1  0.32534022  0.17036373  0.35491876  1
  In  In43  1  0.33643649  0.17846839  0.87762204  1
  In  In44  1  0.33888669  0.51029135  0.36004080  1
  In  In45  1  0.33145249  0.50435100  0.87849478  1
  In  In46  1  0.33670804  0.83427086  0.36682731  1
  In  In47  1  0.34636112  0.82335727  0.88176038  1
  In  In48  1  0.68161636  0.16313900  0.37603025  1
  In  In49  1  0.65510271  0.17643734  0.88472349  1
  In  In50  1  0.64983212  0.49653487  0.37495673  1
  In  In51  1  0.67978535  0.49491570  0.88799164  1
  In  In52  1  0.66516784  0.83033839  0.37091180  1
  In  In53  1  0.65814383  0.81853642  0.87909525  1
  In  In54  1  0.16878316  0.00567119  0.14119188  1
  In  In55  1  0.16213016  -0.01427412  0.62289729  1
  In  In56  1  0.16950552  0.35530939  0.12646713  1
  In  In57  1  0.17271574  0.35277834  0.63068830  1
  In  In58  1  0.18345978  0.63884007  0.14644286  1
  In  In59  1  0.17256588  0.66075335  0.63651645  1
  In  In60  1  0.50130191  -0.00070378  0.12918945  1
  In  In61  1  0.51278928  -0.00265468  0.62153989  1
  In  In62  1  0.49663069  0.33211612  0.11866982  1
  In  In63  1  0.48867505  0.34726337  0.63721639  1
  In  In64  1  0.50156099  0.66598979  0.11928677  1
  In  In65  1  0.49888581  0.65769089  0.61625812  1
  In  In66  1  0.82895356  0.00267746  0.13125924  1
  In  In67  1  0.83704429  0.00340753  0.61890674  1
  In  In68  1  0.83230200  0.33389406  0.11495581  1
  In  In69  1  0.83960567  0.31644151  0.62643398  1
  In  In70  1  0.84111375  0.66219951  0.12962561  1
  In  In71  1  0.83178971  0.67625560  0.62218829  1
  In  In72  1  0.16201757  0.16655748  0.49173966  1
  In  In73  1  0.67078923  0.00227502  0.74857170  1
  In  In74  1  0.16442312  0.82521738  0.49356668  1
  In  In75  1  0.17069031  0.82701883  0.01177084  1
  In  In76  1  -0.00027288  0.33391273  0.74835204  1
  In  In77  1  0.16318697  0.50138976  0.50145417  1
  In  In78  1  0.00496450  0.33591612  0.24968337  1
  In  In79  1  0.65979912  0.33061596  0.24948960  1
  In  In80  1  0.82784857  0.50111078  0.50497868  1
  In  In81  1  0.17154324  0.17439819  0.00033535  1
  In  In82  1  0.66873207  0.66251693  0.75524406  1
  In  In83  1  0.32924378  -0.00038113  0.75238951  1
  In  In84  1  0.82793016  0.83043592  -0.00036398  1
  In  In85  1  0.50443115  0.16858952  0.49521293  1
  Cu  Cu86  1  0.49593330  0.82726415  0.74935189  1
  Cu  Cu87  1  0.34150461  -0.00457149  0.48867404  1
  Cu  Cu88  1  -0.00751435  -0.00311327  0.49853493  1
  Cu  Cu89  1  0.66671654  0.33412432  0.00126061  1
  Cu  Cu90  1  0.49918862  0.82952273  0.24777810  1
  Cu  Cu91  1  0.83225963  0.50399048  0.24694629  1
  Cu  Cu92  1  0.34198405  0.00192487  0.00950594  1
  Cu  Cu93  1  0.84062706  0.83078421  0.74852026  1
  Cu  Cu94  1  0.83638815  0.16118981  0.25053671  1
  Cu  Cu95  1  0.66851152  -0.01116140  0.49585395  1
  Cu  Cu96  1  0.66142552  0.33023679  0.50337381  1
  Cu  Cu97  1  0.49846176  0.18067302  0.75774657  1
  Cu  Cu98  1  0.50517071  0.16470929  0.24517998  1
  Cu  Cu99  1  0.66670032  0.00418881  0.00887925  1
  Cu  Cu100  1  0.33874013  0.33745340  -0.00047348  1
  Cu  Cu101  1  0.50036783  0.50540461  0.24401553  1
  Cu  Cu102  1  0.32930577  0.66333112  0.00501423  1
  Cu  Cu103  1  -0.00170709  0.66262576  0.00019034  1
  Cu  Cu104  1  -0.00132600  -0.00046899  0.00173967  1
  Cu  Cu105  1  0.83119286  0.83660521  0.25084733  1
  Cu  Cu106  1  0.33335951  0.34158550  0.50227550  1
  Cu  Cu107  1  0.34496413  0.65911373  0.49508132  1
  Cu  Cu108  1  0.16653694  0.83069748  0.74845629  1
  Cu  Cu109  1  -0.00181245  0.33593858  -0.00170853  1
  Cu  Cu110  1  0.66615945  0.66532584  0.49345466  1
  Cu  Cu111  1  0.83178200  0.16553916  0.75057027  1
  Cu  Cu112  1  0.16245425  0.83796390  0.25364921  1
  Cu  Cu113  1  0.15995787  0.16461339  0.75077348  1
  Cu  Cu114  1  0.49646469  0.50092378  0.75561481  1
  Se  Se115  1  0.08484699  0.07785273  0.05860165  1
  Se  Se116  1  0.07637152  0.07636693  0.55790024  1
  Se  Se117  1  0.08554175  0.41764884  0.04820208  1
  Se  Se118  1  0.07252833  0.40604845  0.55720215  1
  Se  Se119  1  0.07848914  0.73462720  0.06515492  1
  Se  Se120  1  0.08531050  0.74171049  0.56434332  1
  Se  Se121  1  0.42291721  0.08913153  0.05965668  1
  Se  Se122  1  0.41104215  0.07670024  0.55581205  1
  Se  Se123  1  0.42183925  0.42279692  0.05091210  1
  Se  Se124  1  0.41696340  0.42104421  0.55759993  1
  Se  Se125  1  0.41331577  0.75173243  0.05269805  1
  Se  Se126  1  0.42128540  0.74903932  0.54913126  1
  Se  Se127  1  0.75773829  0.08494171  0.05566972  1
  Se  Se128  1  0.74463144  0.07736087  0.55155591  1
  Se  Se129  1  0.75368130  0.42078275  0.04805375  1
  Se  Se130  1  0.74010990  0.40953316  0.56595388  1
  Se  Se131  1  0.74415042  0.74457952  0.06414451  1
  Se  Se132  1  0.75229527  0.74728061  0.54533958  1
  Se  Se133  1  0.26019033  0.25884731  0.06381382  1
  Se  Se134  1  0.25177530  0.25658626  0.55772319  1
  Se  Se135  1  0.24498655  0.57959631  0.05692264  1
  Se  Se136  1  0.26096107  0.58735047  0.55883091  1
  Se  Se137  1  0.25628573  0.92619679  0.06720717  1
  Se  Se138  1  0.25927489  0.91971455  0.55118375  1
  Se  Se139  1  0.58460155  0.24921604  0.05381649  1
  Se  Se140  1  0.58116523  0.25403983  0.56747422  1
  Se  Se141  1  0.56877044  0.57239666  0.04933974  1
  Se  Se142  1  0.58525153  0.57946391  0.54717695  1
  Se  Se143  1  0.58250291  0.91792667  0.05719174  1
  Se  Se144  1  0.57911551  0.91116110  0.54813766  1
  Se  Se145  1  0.91758811  0.24870667  0.04964532  1
  Se  Se146  1  0.91130861  0.24787176  0.54612902  1
  Se  Se147  1  0.90910876  0.58142760  0.05083149  1
  Se  Se148  1  0.92544487  0.59070597  0.55711624  1
  Se  Se149  1  0.92256551  0.91522469  0.06093653  1
  Se  Se150  1  0.91484984  0.91126480  0.55419322  1
  Se  Se151  1  0.07276065  0.26330007  0.43926731  1
  Se  Se152  1  0.07879594  0.25717743  0.93607737  1
  Se  Se153  1  0.07583646  0.59471529  0.44284428  1
  Se  Se154  1  0.08346967  0.58133181  0.94564336  1
  Se  Se155  1  0.07989595  0.92551809  0.43812434  1
  Se  Se156  1  0.08068394  0.91677771  0.94537012  1
  Se  Se157  1  0.40285443  0.25254347  0.44008093  1
  Se  Se158  1  0.42146315  0.25011697  0.94902501  1
  Se  Se159  1  0.42197392  0.57489804  0.43823006  1
  Se  Se160  1  0.41475108  0.58216510  0.95109899  1
  Se  Se161  1  0.42175839  0.90646455  0.44140490  1
  Se  Se162  1  0.41535347  0.91511267  0.95121845  1
  Se  Se163  1  0.74656191  0.24602403  0.45416803  1
  Se  Se164  1  0.75177208  0.24997778  0.94833670  1
  Se  Se165  1  0.74671288  0.58448258  0.43372066  1
  Se  Se166  1  0.73076680  0.61106237  0.94506731  1
  Se  Se167  1  0.75237682  0.90883017  0.44116387  1
  Se  Se168  1  0.73855251  0.92517782  0.93998048  1
  Se  Se169  1  0.25936910  0.07881033  0.43506464  1
  Se  Se170  1  0.26063068  0.07475001  0.94395529  1
  Se  Se171  1  0.25509663  0.41710197  0.43788447  1
  Se  Se172  1  0.25027475  0.41740776  0.94839839  1
  Se  Se173  1  0.25826699  0.73537648  0.43654667  1
  Se  Se174  1  0.24811798  0.74026279  0.94164711  1
  Se  Se175  1  0.58783036  0.07172203  0.43657996  1
  Se  Se176  1  0.58164535  0.08523311  0.95261138  1
  Se  Se177  1  0.57928599  0.41394035  0.45064728  1
  Se  Se178  1  0.58316732  0.41917352  0.94959325  1
  Se  Se179  1  0.58129462  0.74799254  0.44039156  1
  Se  Se180  1  0.57310881  0.76059213  0.95485477  1
  Se  Se181  1  0.91152929  0.08186279  0.44461573  1
  Se  Se182  1  0.91607799  0.08533179  0.95125882  1
  Se  Se183  1  0.92141073  0.41263535  0.44439017  1
  Se  Se184  1  0.91276985  0.41949496  0.94655243  1
  Se  Se185  1  0.91794365  0.74927411  0.45093880  1
  Se  Se186  1  0.92179495  0.74458665  0.93878711  1
  Se  Se187  1  0.25577544  0.26664065  0.29181565  1
  Se  Se188  1  0.24967438  0.24190729  0.80172264  1
  Se  Se189  1  0.24824927  0.58262947  0.29300751  1
  Se  Se190  1  0.26721730  0.59820813  0.80726350  1
  Se  Se191  1  0.25143783  0.92049587  0.30259129  1
  Se  Se192  1  0.24375004  0.90731224  0.81491147  1
  Se  Se193  1  0.57523979  0.24185474  0.31591403  1
  Se  Se194  1  0.58833363  0.25888968  0.80784457  1
  Se  Se195  1  0.58606964  0.58302786  0.29983819  1
  Se  Se196  1  0.57678475  0.57934052  0.81702053  1
  Se  Se197  1  0.58412089  0.91387409  0.30010687  1
  Se  Se198  1  0.57772921  0.90943554  0.80605528  1
  Se  Se199  1  0.90645036  0.25062315  0.31031699  1
  Se  Se200  1  0.91114167  0.24601063  0.81233323  1
  Se  Se201  1  0.91443642  0.58703757  0.30122154  1
  Se  Se202  1  0.93049186  0.59082696  0.79890200  1
  Se  Se203  1  0.91866733  0.91897684  0.30302662  1
  Se  Se204  1  0.91816670  0.91997582  0.80184285  1
  Se  Se205  1  0.09059577  0.10587143  0.30045935  1
  Se  Se206  1  0.07747399  0.07775827  0.79902405  1
  Se  Se207  1  0.08909483  0.42987341  0.30977846  1
  Se  Se208  1  0.08693119  0.41951091  0.81194902  1
  Se  Se209  1  0.08040738  0.75292558  0.30621717  1
  Se  Se210  1  0.07996053  0.74727558  0.79894228  1
  Se  Se211  1  0.41809462  0.08363278  0.29853687  1
  Se  Se212  1  0.42632667  0.08501182  0.81210908  1
  Se  Se213  1  0.42041427  0.41693413  0.29714274  1
  Se  Se214  1  0.41434318  0.41717718  0.81030882  1
  Se  Se215  1  0.41427582  0.74520239  0.29984311  1
  Se  Se216  1  0.41865204  0.74417768  0.80600150  1
  Se  Se217  1  0.74937701  0.07932110  0.30158497  1
  Se  Se218  1  0.75387474  0.08817555  0.81554257  1
  Se  Se219  1  0.75464269  0.42159678  0.30767109  1
  Se  Se220  1  0.75429606  0.43195628  0.80621987  1
  Se  Se221  1  0.74856650  0.74818956  0.30091102  1
  Se  Se222  1  0.76197887  0.75560948  0.81238413  1
  Se  Se223  1  0.24989872  0.09249634  0.20418143  1
  Se  Se224  1  0.24320076  0.08866292  0.68596398  1
  Se  Se225  1  0.25031300  0.42933840  0.19798389  1
  Se  Se226  1  0.25129634  0.42059436  0.70596509  1
  Se  Se227  1  0.24363859  0.75455261  0.19863896  1
  Se  Se228  1  0.25652485  0.74997518  0.69994757  1
  Se  Se229  1  0.59066412  0.08047327  0.19688045  1
  Se  Se230  1  0.57315022  0.09636296  0.69541339  1
  Se  Se231  1  0.58343992  0.42471310  0.18518200  1
  Se  Se232  1  0.58373719  0.42076994  0.70231899  1
  Se  Se233  1  0.58147832  0.74690516  0.19310244  1
  Se  Se234  1  0.58198253  0.75254151  0.68960866  1
  Se  Se235  1  0.92151585  0.08077822  0.19696755  1
  Se  Se236  1  0.91205220  0.07988670  0.69664300  1
  Se  Se237  1  0.91016236  0.42011819  0.18833439  1
  Se  Se238  1  0.90549460  0.42203249  0.69094097  1
  Se  Se239  1  0.91504055  0.75119886  0.19909197  1
  Se  Se240  1  0.92018720  0.74597420  0.69431584  1
  Se  Se241  1  0.08957646  0.24931844  0.18389148  1
  Se  Se242  1  0.08724025  0.24273867  0.68386538  1
  Se  Se243  1  0.06318314  0.58754718  0.19556118  1
  Se  Se244  1  0.10194990  0.56107963  0.69655036  1
  Se  Se245  1  0.07808701  0.92221405  0.20198945  1
  Se  Se246  1  0.08258071  0.91708202  0.69896501  1
  Se  Se247  1  0.42466991  0.25453232  0.19638640  1
  Se  Se248  1  0.40970607  0.25735932  0.70422713  1
  Se  Se249  1  0.41631540  0.58883952  0.19122742  1
  Se  Se250  1  0.42297925  0.58672048  0.69498859  1
  Se  Se251  1  0.41571541  0.91755883  0.19741677  1
  Se  Se252  1  0.42111211  0.91295748  0.68888023  1
  Se  Se253  1  0.75726319  0.24551619  0.19118556  1
  Se  Se254  1  0.74834336  0.25047810  0.69964061  1
  Se  Se255  1  0.74599677  0.58381397  0.19374979  1
  Se  Se256  1  0.75860927  0.57880278  0.69073430  1
  Se  Se257  1  0.74693699  0.91972498  0.19875881  1
  Se  Se258  1  0.75365066  0.90554880  0.68872631  1
