# generated using pymatgen
data_In86Cu29Se144
_symmetry_space_group_name_H-M   'P 1'
_cell_length_a   17.57567223
_cell_length_b   17.58212827
_cell_length_c   23.44341687
_cell_angle_alpha   89.99538376
_cell_angle_beta   90.00170955
_cell_angle_gamma   89.98186731
_symmetry_Int_Tables_number   1
_chemical_formula_structural   In86Cu29Se144
_chemical_formula_sum   'In86 Cu29 Se144'
_cell_volume   7244.43092477
_cell_formula_units_Z   1
loop_
 _symmetry_equiv_pos_site_id
 _symmetry_equiv_pos_as_xyz
  1  'x, y, z'
loop_
 _atom_site_type_symbol
 _atom_site_label
 _atom_site_symmetry_multiplicity
 _atom_site_fract_x
 _atom_site_fract_y
 _atom_site_fract_z
 _atom_site_occupancy
  In  In0  1  -0.00095829  0.15431887  0.12387784  1
  In  In1  1  0.01356959  0.15988203  0.62596275  1
  In  In2  1  -0.00391039  0.51360203  0.12809690  1
  In  In3  1  0.00962900  0.51020537  0.61710673  1
  In  In4  1  -0.00267606  0.84697968  0.12505803  1
  In  In5  1  -0.00149255  0.81878491  0.62689255  1
  In  In6  1  0.32929686  0.16101807  0.11739914  1
  In  In7  1  0.32986640  0.16539280  0.63009023  1
  In  In8  1  0.34067908  0.49041535  0.12580486  1
  In  In9  1  0.32014207  0.51267631  0.63267538  1
  In  In10  1  0.34933796  0.83360950  0.12284933  1
  In  In11  1  0.32949453  0.83819569  0.62539263  1
  In  In12  1  0.65518149  0.17686440  0.12970571  1
  In  In13  1  0.64876581  0.16381309  0.62537052  1
  In  In14  1  0.66219190  0.49837188  0.12260144  1
  In  In15  1  0.67613393  0.50693288  0.62066447  1
  In  In16  1  0.66816367  0.83456317  0.12616547  1
  In  In17  1  0.65925899  0.83719764  0.63097140  1
  In  In18  1  0.17248411  -0.00005745  0.37426186  1
  In  In19  1  0.18478444  0.00738706  0.86867266  1
  In  In20  1  0.16592822  0.33237630  0.38597159  1
  In  In21  1  0.17863350  0.31746786  0.87324771  1
  In  In22  1  0.17818910  0.66147143  0.39215642  1
  In  In23  1  0.16497741  0.67153196  0.86344972  1
  In  In24  1  0.50599681  0.00898501  0.36804831  1
  In  In25  1  0.49695291  -0.00291888  0.88074568  1
  In  In26  1  0.49615500  0.32839978  0.37407434  1
  In  In27  1  0.49325180  0.33539815  0.87588158  1
  In  In28  1  0.51354626  0.65916438  0.37536568  1
  In  In29  1  0.50476502  0.66434889  0.87358257  1
  In  In30  1  0.82830093  -0.01930825  0.35609312  1
  In  In31  1  0.81571716  -0.00024525  0.87937279  1
  In  In32  1  0.82802777  0.34647190  0.37644267  1
  In  In33  1  0.84479686  0.34077851  0.87896246  1
  In  In34  1  0.81670763  0.66286599  0.37750597  1
  In  In35  1  0.83072034  0.66900948  0.87781031  1
  In  In36  1  0.01216162  0.15971983  0.37696322  1
  In  In37  1  0.00999890  0.17517199  0.87662392  1
  In  In38  1  0.00110910  0.49502732  0.38309844  1
  In  In39  1  -0.01210774  0.50418053  0.87761065  1
  In  In40  1  0.00173652  0.84468395  0.37189543  1
  In  In41  1  0.00203709  0.82123197  0.87475904  1
  In  In42  1  0.34473444  0.16342521  0.38235802  1
  In  In43  1  0.33916262  0.16363593  0.87319569  1
  In  In44  1  0.33674443  0.49275005  0.37866606  1
  In  In45  1  0.34078108  0.50979308  0.86427833  1
  In  In46  1  0.31883149  0.83248261  0.37816160  1
  In  In47  1  0.34844742  0.84244905  0.86755442  1
  In  In48  1  0.65798569  0.15685421  0.36793756  1
  In  In49  1  0.65603607  0.14985855  0.87122961  1
  In  In50  1  0.67707578  0.51933581  0.35861446  1
  In  In51  1  0.65807135  0.50903016  0.88056234  1
  In  In52  1  0.66313948  0.82918042  0.36316988  1
  In  In53  1  0.66456643  0.83291563  0.88078676  1
  In  In54  1  0.16025492  0.00777739  0.12952078  1
  In  In55  1  0.18593414  0.01487322  0.61194064  1
  In  In56  1  0.18410805  0.32702806  0.12797597  1
  In  In57  1  0.17683260  0.33873588  0.62433995  1
  In  In58  1  0.15649076  0.67007159  0.12697812  1
  In  In59  1  0.16773164  0.66361984  0.62137671  1
  In  In60  1  0.49997448  0.00045778  0.12544297  1
  In  In61  1  0.47965336  0.01854514  0.64377142  1
  In  In62  1  0.51033004  0.34229908  0.11268339  1
  In  In63  1  0.49246163  0.31503527  0.62861583  1
  In  In64  1  0.51160758  0.67665860  0.11795787  1
  In  In65  1  0.49734930  0.67148614  0.63413494  1
  In  In66  1  0.83740787  -0.01112604  0.13353664  1
  In  In67  1  0.82688575  -0.01387409  0.62649606  1
  In  In68  1  0.81304459  0.33363055  0.12547514  1
  In  In69  1  0.82142654  0.34542619  0.62398822  1
  In  In70  1  0.82270731  0.65772597  0.11686732  1
  In  In71  1  0.83624365  0.66614093  0.62848055  1
  In  In72  1  0.65787815  0.33374004  0.75712281  1
  In  In73  1  0.00472130  -0.00624725  0.75336630  1
  In  In74  1  -0.00229755  0.32851249  0.26202717  1
  In  In75  1  0.34284842  0.66767897  0.25531237  1
  In  In76  1  0.16950698  0.49900597  0.00605857  1
  In  In77  1  0.49899796  0.83452231  0.50209352  1
  In  In78  1  0.00844598  0.34011626  0.74495755  1
  In  In79  1  0.82376777  0.16841520  0.00330857  1
  In  In80  1  0.17192370  0.84079849  -0.01313663  1
  In  In81  1  0.83383852  0.83125243  0.49374670  1
  In  In82  1  0.84001081  0.16742472  0.49352465  1
  In  In83  1  0.49777481  0.49997918  0.50071397  1
  In  In84  1  0.33999236  0.33405448  0.25507433  1
  In  In85  1  -0.00146228  0.67202500  0.25156302  1
  Cu  Cu86  1  0.50246883  0.49943532  0.74999177  1
  Cu  Cu87  1  0.50195168  0.83956632  0.24501056  1
  Cu  Cu88  1  0.83189954  0.51320242  0.75172207  1
  Cu  Cu89  1  0.65795099  0.00636348  0.49872594  1
  Cu  Cu90  1  0.83004399  0.16427759  0.75020224  1
  Cu  Cu91  1  0.00984410  -0.00102569  0.49517589  1
  Cu  Cu92  1  -0.00699859  0.66952489  -0.00054569  1
  Cu  Cu93  1  -0.00099093  0.33153075  0.50230191  1
  Cu  Cu94  1  0.34360986  0.66173873  -0.00448395  1
  Cu  Cu95  1  0.17010769  0.83581133  0.25222850  1
  Cu  Cu96  1  0.66351744  0.33497120  -0.00130776  1
  Cu  Cu97  1  0.66652999  0.66487761  -0.00079405  1
  Cu  Cu98  1  0.82855930  0.49838700  0.24726494  1
  Cu  Cu99  1  0.00055851  0.00606274  0.00368990  1
  Cu  Cu100  1  0.00015390  0.66052014  0.50405889  1
  Cu  Cu101  1  0.00335375  0.33524029  -0.00091989  1
  Cu  Cu102  1  0.16301601  0.50254152  0.74575374  1
  Cu  Cu103  1  0.49428667  0.16721328  0.24755985  1
  Cu  Cu104  1  0.16847296  0.16044968  0.25139289  1
  Cu  Cu105  1  0.65919982  0.33729053  0.50229122  1
  Cu  Cu106  1  0.82259911  0.82945096  0.75283172  1
  Cu  Cu107  1  0.66107144  -0.00488982  0.00398981  1
  Cu  Cu108  1  0.83111760  0.16147480  0.24544978  1
  Cu  Cu109  1  0.16492911  0.82833413  0.74292130  1
  Cu  Cu110  1  0.50535942  0.83002742  0.75624294  1
  Cu  Cu111  1  0.33133323  0.33242606  0.50462089  1
  Cu  Cu112  1  0.33652780  0.32949641  -0.00250977  1
  Cu  Cu113  1  0.33618441  0.00116494  -0.00314393  1
  Cu  Cu114  1  0.33335736  0.00283697  0.50323486  1
  Se  Se115  1  0.08912530  0.08773370  0.05152386  1
  Se  Se116  1  0.08716826  0.08738844  0.54795575  1
  Se  Se117  1  0.07872977  0.40948139  0.06761666  1
  Se  Se118  1  0.08445736  0.41274463  0.55624554  1
  Se  Se119  1  0.07976553  0.75268268  0.05211725  1
  Se  Se120  1  0.08173357  0.74866078  0.55332898  1
  Se  Se121  1  0.41986010  0.08260079  0.05258461  1
  Se  Se122  1  0.41598839  0.08540796  0.55818412  1
  Se  Se123  1  0.41608710  0.41925665  0.04817350  1
  Se  Se124  1  0.41060843  0.41335358  0.56559056  1
  Se  Se125  1  0.42003668  0.75088229  0.04896092  1
  Se  Se126  1  0.40949427  0.74172526  0.55823811  1
  Se  Se127  1  0.74132963  0.07694554  0.06549081  1
  Se  Se128  1  0.74846544  0.07980955  0.55685815  1
  Se  Se129  1  0.74825915  0.41820922  0.05033519  1
  Se  Se130  1  0.74856205  0.42130522  0.54742821  1
  Se  Se131  1  0.74701983  0.75131092  0.05292035  1
  Se  Se132  1  0.74504073  0.75133073  0.56034191  1
  Se  Se133  1  0.24895253  0.24908250  0.04919822  1
  Se  Se134  1  0.24909832  0.24608503  0.55645129  1
  Se  Se135  1  0.25944875  0.59567264  0.06269697  1
  Se  Se136  1  0.24375602  0.57498021  0.55259248  1
  Se  Se137  1  0.25413052  0.92141568  0.05885065  1
  Se  Se138  1  0.25024938  0.91185486  0.54858089  1
  Se  Se139  1  0.58259241  0.24494278  0.04761110  1
  Se  Se140  1  0.57860492  0.24953712  0.55238569  1
  Se  Se141  1  0.58173317  0.58076034  0.05122637  1
  Se  Se142  1  0.58453122  0.59497791  0.55887984  1
  Se  Se143  1  0.57795638  0.91148643  0.05729797  1
  Se  Se144  1  0.58064492  0.93031192  0.56325306  1
  Se  Se145  1  0.92002922  0.25763461  0.06163326  1
  Se  Se146  1  0.92020271  0.25445116  0.56580382  1
  Se  Se147  1  0.91585288  0.57962706  0.05102727  1
  Se  Se148  1  0.90957612  0.58226015  0.55469096  1
  Se  Se149  1  0.91513711  0.92159075  0.05199924  1
  Se  Se150  1  0.92614321  0.92190062  0.55556409  1
  Se  Se151  1  0.08076855  0.24630638  0.44997382  1
  Se  Se152  1  0.08891294  0.25355287  0.94858039  1
  Se  Se153  1  0.08460690  0.57708725  0.45063906  1
  Se  Se154  1  0.08297704  0.59233620  0.94319589  1
  Se  Se155  1  0.09083945  0.91291249  0.44333186  1
  Se  Se156  1  0.07518359  0.93211536  0.93357994  1
  Se  Se157  1  0.41902537  0.25419571  0.45030956  1
  Se  Se158  1  0.42039680  0.24544392  0.94555381  1
  Se  Se159  1  0.41002692  0.59566131  0.44204109  1
  Se  Se160  1  0.42241168  0.57620597  0.94204148  1
  Se  Se161  1  0.41332583  0.92598137  0.43908399  1
  Se  Se162  1  0.41792546  0.90934662  0.95112580  1
  Se  Se163  1  0.73970290  0.25463509  0.44091737  1
  Se  Se164  1  0.74118560  0.25559652  0.93405575  1
  Se  Se165  1  0.74417073  0.57576248  0.44636275  1
  Se  Se166  1  0.75243112  0.58127252  0.94685516  1
  Se  Se167  1  0.73830271  0.92499830  0.43956135  1
  Se  Se168  1  0.74859605  0.91420876  0.95281621  1
  Se  Se169  1  0.25119869  0.08500082  0.44533984  1
  Se  Se170  1  0.25142713  0.08617948  0.94670989  1
  Se  Se171  1  0.25213733  0.41761790  0.44961033  1
  Se  Se172  1  0.25688751  0.41635097  0.93964000  1
  Se  Se173  1  0.25274714  0.75413421  0.45541090  1
  Se  Se174  1  0.26041749  0.74076563  0.93609784  1
  Se  Se175  1  0.57575968  0.09002738  0.44585120  1
  Se  Se176  1  0.58095614  0.08121562  0.95041659  1
  Se  Se177  1  0.58761360  0.41733764  0.43609773  1
  Se  Se178  1  0.57978773  0.41634887  0.94355682  1
  Se  Se179  1  0.59564857  0.74726854  0.44473700  1
  Se  Se180  1  0.58046225  0.74728671  0.94694311  1
  Se  Se181  1  0.91731539  0.06505615  0.43447091  1
  Se  Se182  1  0.91942660  0.08449870  0.93993541  1
  Se  Se183  1  0.91465773  0.41425630  0.45007442  1
  Se  Se184  1  0.91734458  0.42141327  0.95326576  1
  Se  Se185  1  0.92699584  0.73964628  0.43675857  1
  Se  Se186  1  0.91257781  0.75583318  0.94725051  1
  Se  Se187  1  0.24423175  0.24431451  0.31176703  1
  Se  Se188  1  0.26535789  0.25234176  0.80145768  1
  Se  Se189  1  0.24740889  0.57893597  0.31114088  1
  Se  Se190  1  0.24837738  0.58602196  0.79898559  1
  Se  Se191  1  0.25583952  0.91935664  0.30251314  1
  Se  Se192  1  0.24480708  0.90586195  0.80353955  1
  Se  Se193  1  0.57787040  0.24836062  0.30348954  1
  Se  Se194  1  0.56717879  0.23587200  0.80592071  1
  Se  Se195  1  0.58362730  0.59261866  0.29438541  1
  Se  Se196  1  0.58733187  0.58291473  0.80123556  1
  Se  Se197  1  0.58517987  0.92233497  0.30034388  1
  Se  Se198  1  0.58387158  0.91663732  0.81113142  1
  Se  Se199  1  0.90381608  0.23582562  0.31643537  1
  Se  Se200  1  0.91272582  0.24609010  0.80460759  1
  Se  Se201  1  0.91295426  0.57296929  0.30885772  1
  Se  Se202  1  0.91874262  0.59139909  0.80596184  1
  Se  Se203  1  0.92156756  0.90585204  0.29325664  1
  Se  Se204  1  0.90572899  0.91080287  0.81190598  1
  Se  Se205  1  0.08331510  0.07703414  0.30307616  1
  Se  Se206  1  0.09242221  0.09472812  0.80408470  1
  Se  Se207  1  0.09384937  0.42205436  0.31051027  1
  Se  Se208  1  0.09084387  0.42529288  0.81557129  1
  Se  Se209  1  0.09810284  0.74996317  0.31341458  1
  Se  Se210  1  0.07667519  0.74990450  0.79609681  1
  Se  Se211  1  0.41158895  0.08543296  0.30263641  1
  Se  Se212  1  0.39765200  0.05539463  0.81138941  1
  Se  Se213  1  0.43256753  0.43226116  0.30426153  1
  Se  Se214  1  0.41845111  0.41547933  0.80098799  1
  Se  Se215  1  0.42859823  0.76312891  0.31467159  1
  Se  Se216  1  0.41801329  0.74345751  0.80386142  1
  Se  Se217  1  0.74698006  0.07960867  0.30053143  1
  Se  Se218  1  0.74792525  0.07973087  0.80179381  1
  Se  Se219  1  0.74592370  0.41292210  0.29977217  1
  Se  Se220  1  0.75786684  0.42356222  0.80969669  1
  Se  Se221  1  0.76357393  0.75670303  0.30472602  1
  Se  Se222  1  0.74310300  0.74707872  0.80947813  1
  Se  Se223  1  0.25380882  0.08417849  0.19434410  1
  Se  Se224  1  0.25564458  0.07046544  0.69663281  1
  Se  Se225  1  0.24391739  0.42675441  0.19875606  1
  Se  Se226  1  0.25071647  0.41653860  0.70053438  1
  Se  Se227  1  0.24777731  0.75480290  0.19075665  1
  Se  Se228  1  0.25056492  0.74654402  0.69088371  1
  Se  Se229  1  0.58061433  0.08421405  0.19602333  1
  Se  Se230  1  0.59369134  0.07379605  0.69969457  1
  Se  Se231  1  0.59101866  0.40421651  0.19031313  1
  Se  Se232  1  0.57987261  0.42120536  0.68529273  1
  Se  Se233  1  0.58409258  0.75097060  0.19632873  1
  Se  Se234  1  0.58746349  0.74749504  0.70108192  1
  Se  Se235  1  0.92012513  0.08032963  0.19737081  1
  Se  Se236  1  0.91140818  0.08496265  0.69055941  1
  Se  Se237  1  0.91352649  0.41621512  0.19201299  1
  Se  Se238  1  0.91000854  0.42910120  0.69184824  1
  Se  Se239  1  0.91153658  0.75014114  0.18335208  1
  Se  Se240  1  0.91167293  0.75165220  0.70022507  1
  Se  Se241  1  0.08779342  0.24441314  0.19364476  1
  Se  Se242  1  0.09781572  0.24185225  0.69510631  1
  Se  Se243  1  0.09478990  0.57435408  0.20002407  1
  Se  Se244  1  0.07994063  0.58748788  0.69464394  1
  Se  Se245  1  0.08581881  0.91562157  0.19660867  1
  Se  Se246  1  0.08944260  0.91450377  0.68335265  1
  Se  Se247  1  0.41971822  0.24956394  0.18460099  1
  Se  Se248  1  0.41004797  0.24713595  0.70206380  1
  Se  Se249  1  0.42564511  0.58336019  0.18684861  1
  Se  Se250  1  0.41593753  0.58338368  0.69905928  1
  Se  Se251  1  0.41327257  0.92121992  0.19693161  1
  Se  Se252  1  0.41873317  0.90624795  0.69839073  1
  Se  Se253  1  0.74625192  0.24948644  0.19998163  1
  Se  Se254  1  0.75142776  0.24714708  0.69175437  1
  Se  Se255  1  0.74709177  0.58143022  0.19252019  1
  Se  Se256  1  0.74493016  0.58926243  0.69663465  1
  Se  Se257  1  0.74174661  0.92089477  0.19770104  1
  Se  Se258  1  0.74401634  0.91777848  0.70072795  1
