# generated using pymatgen
data_In86Cu29Se144
_symmetry_space_group_name_H-M   'P 1'
_cell_length_a   17.57662771
_cell_length_b   17.58185293
_cell_length_c   23.43415762
_cell_angle_alpha   89.97281562
_cell_angle_beta   89.98676865
_cell_angle_gamma   90.00726621
_symmetry_Int_Tables_number   1
_chemical_formula_structural   In86Cu29Se144
_chemical_formula_sum   'In86 Cu29 Se144'
_cell_volume   7241.84924261
_cell_formula_units_Z   1
loop_
 _symmetry_equiv_pos_site_id
 _symmetry_equiv_pos_as_xyz
  1  'x, y, z'
loop_
 _atom_site_type_symbol
 _atom_site_label
 _atom_site_symmetry_multiplicity
 _atom_site_fract_x
 _atom_site_fract_y
 _atom_site_fract_z
 _atom_site_occupancy
  In  In0  1  -0.00090345  0.16442944  0.12489817  1
  In  In1  1  0.00807298  0.15757412  0.63347135  1
  In  In2  1  0.00273441  0.48860091  0.12544069  1
  In  In3  1  0.00566969  0.50052101  0.63644838  1
  In  In4  1  0.02307310  0.82735247  0.11810715  1
  In  In5  1  0.00873130  0.82895540  0.63481200  1
  In  In6  1  0.33202920  0.16488149  0.12846899  1
  In  In7  1  0.33246853  0.16285811  0.61330500  1
  In  In8  1  0.31294288  0.50967853  0.13934264  1
  In  In9  1  0.34227580  0.50344430  0.62602803  1
  In  In10  1  0.32691202  0.83684130  0.12978766  1
  In  In11  1  0.32046545  0.82859255  0.62163940  1
  In  In12  1  0.66619482  0.16539457  0.11379305  1
  In  In13  1  0.65668555  0.16565976  0.62385688  1
  In  In14  1  0.67957796  0.49649101  0.14109125  1
  In  In15  1  0.67426397  0.50015186  0.62651649  1
  In  In16  1  0.66042836  0.83960187  0.12893454  1
  In  In17  1  0.67033721  0.83342193  0.63529290  1
  In  In18  1  0.16898830  0.00041726  0.37176355  1
  In  In19  1  0.15969783  0.01026598  0.88342769  1
  In  In20  1  0.15662064  0.32692079  0.35874139  1
  In  In21  1  0.15726181  0.34234468  0.88474041  1
  In  In22  1  0.18400490  0.67500607  0.37672341  1
  In  In23  1  0.16269784  0.66636810  0.88174246  1
  In  In24  1  0.50584401  0.00750768  0.36686065  1
  In  In25  1  0.51147635  0.00406586  0.87898633  1
  In  In26  1  0.48684897  0.32403458  0.36084188  1
  In  In27  1  0.50204184  0.32638582  0.88094400  1
  In  In28  1  0.49242652  0.66539823  0.36845182  1
  In  In29  1  0.50014334  0.66501071  0.87149743  1
  In  In30  1  0.83581838  0.00656536  0.36344163  1
  In  In31  1  0.83839261  0.00188426  0.87487347  1
  In  In32  1  0.83640243  0.34002124  0.35661846  1
  In  In33  1  0.83449690  0.31073300  0.88160959  1
  In  In34  1  0.83193911  0.67707114  0.37246812  1
  In  In35  1  0.83694519  0.67064597  0.87167897  1
  In  In36  1  0.00822191  0.17584570  0.36431683  1
  In  In37  1  0.00051625  0.16508753  0.87631663  1
  In  In38  1  0.01691636  0.49657585  0.36440147  1
  In  In39  1  0.01074453  0.50704656  0.87145748  1
  In  In40  1  0.00103332  0.84943797  0.37536175  1
  In  In41  1  0.00462688  0.83660541  0.87486554  1
  In  In42  1  0.33323947  0.16339864  0.36852616  1
  In  In43  1  0.33200496  0.16603873  0.88750462  1
  In  In44  1  0.32967160  0.50601603  0.36022694  1
  In  In45  1  0.31937434  0.50954450  0.88693742  1
  In  In46  1  0.31636072  0.82346323  0.36982589  1
  In  In47  1  0.32556503  0.81585061  0.88155624  1
  In  In48  1  0.65725841  0.16076035  0.36370217  1
  In  In49  1  0.69383347  0.14375669  0.91014122  1
  In  In50  1  0.66745226  0.49710985  0.35579448  1
  In  In51  1  0.65993455  0.50352704  0.87648889  1
  In  In52  1  0.66173339  0.83463348  0.36556937  1
  In  In53  1  0.66767528  0.83549298  0.87084411  1
  In  In54  1  0.16457498  0.00061360  0.12628444  1
  In  In55  1  0.16200737  -0.00404423  0.62160483  1
  In  In56  1  0.16807629  0.33099717  0.12846353  1
  In  In57  1  0.16951948  0.32238764  0.62605170  1
  In  In58  1  0.17802502  0.67035970  0.10980098  1
  In  In59  1  0.16445318  0.67061521  0.63342034  1
  In  In60  1  0.49636136  0.00301414  0.12779407  1
  In  In61  1  0.50191666  0.01086279  0.62442709  1
  In  In62  1  0.50771809  0.32065018  0.12871328  1
  In  In63  1  0.50935364  0.32388610  0.61955134  1
  In  In64  1  0.49606626  0.66668571  0.12954501  1
  In  In65  1  0.49583775  0.67248899  0.63370177  1
  In  In66  1  0.82205470  0.01365116  0.12642418  1
  In  In67  1  0.83755602  -0.00457582  0.63491304  1
  In  In68  1  0.84104626  0.32832308  0.12869044  1
  In  In69  1  0.83850851  0.34317799  0.62647376  1
  In  In70  1  0.83222096  0.65157379  0.12560029  1
  In  In71  1  0.83513457  0.66867454  0.63536775  1
  In  In72  1  0.83419882  0.49912214  0.49321861  1
  In  In73  1  0.84066517  0.83583568  -0.00496198  1
  In  In74  1  0.49376369  0.84134760  0.00726564  1
  In  In75  1  0.49624027  0.49484353  0.00386171  1
  In  In76  1  -0.00341584  0.66428176  0.24485381  1
  In  In77  1  0.17058959  0.49775996  0.49356427  1
  In  In78  1  0.33387434  0.33934814  0.75472479  1
  In  In79  1  0.33274001  -0.00584059  0.74435941  1
  In  In80  1  0.83357475  0.83665740  0.50971733  1
  In  In81  1  0.67023765  0.33093002  0.75161247  1
  In  In82  1  0.83705587  0.16731975  0.49619107  1
  In  In83  1  0.49096755  0.83896329  0.50410095  1
  In  In84  1  0.84208959  0.49515635  0.00903273  1
  In  In85  1  0.49219087  0.49519244  0.48412250  1
  Cu  Cu86  1  0.16562875  0.50729812  0.75998624  1
  Cu  Cu87  1  0.66175261  0.32143406  0.49073987  1
  Cu  Cu88  1  0.32921941  0.00041803  0.00753008  1
  Cu  Cu89  1  0.83628612  0.50034807  0.75271463  1
  Cu  Cu90  1  0.66497406  0.66707437  0.00359972  1
  Cu  Cu91  1  0.83538112  0.16135607  0.75809014  1
  Cu  Cu92  1  0.33339944  0.32321819  0.48956148  1
  Cu  Cu93  1  0.00874052  0.32666971  0.49398719  1
  Cu  Cu94  1  0.49668363  0.50277435  0.24487771  1
  Cu  Cu95  1  0.83008648  0.16487343  0.24310108  1
  Cu  Cu96  1  0.49777577  0.50825112  0.75387384  1
  Cu  Cu97  1  0.65424767  0.66056215  0.50080141  1
  Cu  Cu98  1  -0.00215333  0.00441747  0.00211877  1
  Cu  Cu99  1  0.49496941  0.83574797  0.24838303  1
  Cu  Cu100  1  0.00148477  0.32614260  0.00286510  1
  Cu  Cu101  1  0.50240061  0.16452134  0.75109585  1
  Cu  Cu102  1  0.16485533  0.83433110  0.24670112  1
  Cu  Cu103  1  0.16556819  0.16207000  0.24633216  1
  Cu  Cu104  1  0.50326058  0.83104612  0.75535589  1
  Cu  Cu105  1  0.16681295  0.83241027  0.75348634  1
  Cu  Cu106  1  0.00569927  0.67160310  0.50977581  1
  Cu  Cu107  1  0.66857344  0.00340344  0.49228740  1
  Cu  Cu108  1  0.83189294  0.83616671  0.24712044  1
  Cu  Cu109  1  0.15978431  0.16943326  0.75450697  1
  Cu  Cu110  1  0.33454422  0.00567780  0.49372783  1
  Cu  Cu111  1  0.01650319  0.00612152  0.49956264  1
  Cu  Cu112  1  0.83229387  0.83473631  0.75557836  1
  Cu  Cu113  1  0.33360250  0.32956995  0.01069514  1
  Cu  Cu114  1  0.50302146  0.16565586  0.24409616  1
  Se  Se115  1  0.08455906  0.08459020  0.05545160  1
  Se  Se116  1  0.09169111  0.09361860  0.55533273  1
  Se  Se117  1  0.08473239  0.41006289  0.05500023  1
  Se  Se118  1  0.07816043  0.41253916  0.55797445  1
  Se  Se119  1  0.09968067  0.75735728  0.04087912  1
  Se  Se120  1  0.08933802  0.75486607  0.55999587  1
  Se  Se121  1  0.41511749  0.08330910  0.05679203  1
  Se  Se122  1  0.42235022  0.08294966  0.54877584  1
  Se  Se123  1  0.40992354  0.41301847  0.07040000  1
  Se  Se124  1  0.40950383  0.40368188  0.55409410  1
  Se  Se125  1  0.40627050  0.74317946  0.05858616  1
  Se  Se126  1  0.40723141  0.73682522  0.55601351  1
  Se  Se127  1  0.75420561  0.08535099  0.04570552  1
  Se  Se128  1  0.74986991  0.07538672  0.55838956  1
  Se  Se129  1  0.74235649  0.41118669  0.06175614  1
  Se  Se130  1  0.73928466  0.40416235  0.55109602  1
  Se  Se131  1  0.74733208  0.74909253  0.05976057  1
  Se  Se132  1  0.73841283  0.73758162  0.55954894  1
  Se  Se133  1  0.24652808  0.24412397  0.05819579  1
  Se  Se134  1  0.24837092  0.25058675  0.54997787  1
  Se  Se135  1  0.25076845  0.56848753  0.05064634  1
  Se  Se136  1  0.25228451  0.58574374  0.56069215  1
  Se  Se137  1  0.24625389  0.91483817  0.05690371  1
  Se  Se138  1  0.25606029  0.92493601  0.55384781  1
  Se  Se139  1  0.57357516  0.24443949  0.04948817  1
  Se  Se140  1  0.58104239  0.24021346  0.54630952  1
  Se  Se141  1  0.59110203  0.58328179  0.06383343  1
  Se  Se142  1  0.57723782  0.57763347  0.55877039  1
  Se  Se143  1  0.59337361  0.93136910  0.05432649  1
  Se  Se144  1  0.59591747  0.92183265  0.55781363  1
  Se  Se145  1  0.91445342  0.24605609  0.05453418  1
  Se  Se146  1  0.92508029  0.25619386  0.55872765  1
  Se  Se147  1  0.93456190  0.59434083  0.05601484  1
  Se  Se148  1  0.92150260  0.58636731  0.56124177  1
  Se  Se149  1  0.92252476  0.92149073  0.06406266  1
  Se  Se150  1  0.93190120  0.92846557  0.56010075  1
  Se  Se151  1  0.09142802  0.24676876  0.43951893  1
  Se  Se152  1  0.08509422  0.24385262  0.94732062  1
  Se  Se153  1  0.07532991  0.59243882  0.44112727  1
  Se  Se154  1  0.10030529  0.56303223  0.94684652  1
  Se  Se155  1  0.09155580  0.91592804  0.44628076  1
  Se  Se156  1  0.07928714  0.91975291  0.94791430  1
  Se  Se157  1  0.42135500  0.24302226  0.43920964  1
  Se  Se158  1  0.41600363  0.25244072  0.95143381  1
  Se  Se159  1  0.39749443  0.59345456  0.44014945  1
  Se  Se160  1  0.41311406  0.59654033  0.94881319  1
  Se  Se161  1  0.41156615  0.92260564  0.43362049  1
  Se  Se162  1  0.40513743  0.92508825  0.93888166  1
  Se  Se163  1  0.75159843  0.25400673  0.43058260  1
  Se  Se164  1  0.74486324  0.26355339  0.95928826  1
  Se  Se165  1  0.73769445  0.58887077  0.43809173  1
  Se  Se166  1  0.74880177  0.58777512  0.94560439  1
  Se  Se167  1  0.74986836  0.92025378  0.43775609  1
  Se  Se168  1  0.74120562  0.92318545  0.94391987  1
  Se  Se169  1  0.24896002  0.08663914  0.44098240  1
  Se  Se170  1  0.24609811  0.08540641  0.95373154  1
  Se  Se171  1  0.25663164  0.40730693  0.43144353  1
  Se  Se172  1  0.25452547  0.41008668  0.95128814  1
  Se  Se173  1  0.24539703  0.75894824  0.45308704  1
  Se  Se174  1  0.23393311  0.75659142  0.95460532  1
  Se  Se175  1  0.58355836  0.08548769  0.44227823  1
  Se  Se176  1  0.56401332  0.10123191  0.94979970  1
  Se  Se177  1  0.58982965  0.40786481  0.43031678  1
  Se  Se178  1  0.59471813  0.40847019  0.94744635  1
  Se  Se179  1  0.58226378  0.74787440  0.44145002  1
  Se  Se180  1  0.58577547  0.74871196  0.94487592  1
  Se  Se181  1  0.92801829  0.07664935  0.43870792  1
  Se  Se182  1  0.91487753  0.08551523  0.94672147  1
  Se  Se183  1  0.92794017  0.40882042  0.43662097  1
  Se  Se184  1  0.92441304  0.40905210  0.93991911  1
  Se  Se185  1  0.92326603  0.74743348  0.44706105  1
  Se  Se186  1  0.92986971  0.73758732  0.94443276  1
  Se  Se187  1  0.25108507  0.24586178  0.29855461  1
  Se  Se188  1  0.24581876  0.24603676  0.81279161  1
  Se  Se189  1  0.22737769  0.57756568  0.30285936  1
  Se  Se190  1  0.25235786  0.58977581  0.80947952  1
  Se  Se191  1  0.24943840  0.91727232  0.30029559  1
  Se  Se192  1  0.24629466  0.91422246  0.81370536  1
  Se  Se193  1  0.58506554  0.25333801  0.29651158  1
  Se  Se194  1  0.58356394  0.24136817  0.81162231  1
  Se  Se195  1  0.57858446  0.58794898  0.29976307  1
  Se  Se196  1  0.58886506  0.58742547  0.80331066  1
  Se  Se197  1  0.58309052  0.91949802  0.29816641  1
  Se  Se198  1  0.58295148  0.92033363  0.80497975  1
  Se  Se199  1  0.91702399  0.24772023  0.29554263  1
  Se  Se200  1  0.91962507  0.24933503  0.80453312  1
  Se  Se201  1  0.90910711  0.57746533  0.31121340  1
  Se  Se202  1  0.91917143  0.58479540  0.80562018  1
  Se  Se203  1  0.91786217  0.91717219  0.29991067  1
  Se  Se204  1  0.91834853  0.91711944  0.80679959  1
  Se  Se205  1  0.08222244  0.07881631  0.30173298  1
  Se  Se206  1  0.08092746  0.07981556  0.80528809  1
  Se  Se207  1  0.08043906  0.41289752  0.28974797  1
  Se  Se208  1  0.08466594  0.41284694  0.80375980  1
  Se  Se209  1  0.08309583  0.75523245  0.30910047  1
  Se  Se210  1  0.08436610  0.74873964  0.80789810  1
  Se  Se211  1  0.41777403  0.08299218  0.29805059  1
  Se  Se212  1  0.41486136  0.08800904  0.80839667  1
  Se  Se213  1  0.41246767  0.41834882  0.29670987  1
  Se  Se214  1  0.42313470  0.42784549  0.81728686  1
  Se  Se215  1  0.41158935  0.75208941  0.30288034  1
  Se  Se216  1  0.41566422  0.75170157  0.80728724  1
  Se  Se217  1  0.74581920  0.08157001  0.29729912  1
  Se  Se218  1  0.74610010  0.08877368  0.81494348  1
  Se  Se219  1  0.74987105  0.41605993  0.28987315  1
  Se  Se220  1  0.75901455  0.41972607  0.81479765  1
  Se  Se221  1  0.74956936  0.75207336  0.30100267  1
  Se  Se222  1  0.74786173  0.74801815  0.80483838  1
  Se  Se223  1  0.25136967  0.07751844  0.19665536  1
  Se  Se224  1  0.24458359  0.09494977  0.69218069  1
  Se  Se225  1  0.25386946  0.40400785  0.20083725  1
  Se  Se226  1  0.24169833  0.42811282  0.69315482  1
  Se  Se227  1  0.24340118  0.74673153  0.19298814  1
  Se  Se228  1  0.25315655  0.75100058  0.70086260  1
  Se  Se229  1  0.58823573  0.08485056  0.18998880  1
  Se  Se230  1  0.58696286  0.08127571  0.69852144  1
  Se  Se231  1  0.58028345  0.41570833  0.19646099  1
  Se  Se232  1  0.57325580  0.42262602  0.69304731  1
  Se  Se233  1  0.57922818  0.75303103  0.19498251  1
  Se  Se234  1  0.58671191  0.74727971  0.69990992  1
  Se  Se235  1  0.91779612  0.07979658  0.19533054  1
  Se  Se236  1  0.91884981  0.08118741  0.70080309  1
  Se  Se237  1  0.89765882  0.43649733  0.19084343  1
  Se  Se238  1  0.91885946  0.41529707  0.70035810  1
  Se  Se239  1  0.91171995  0.75950505  0.18330451  1
  Se  Se240  1  0.91751020  0.75267926  0.70087490  1
  Se  Se241  1  0.08040092  0.24699825  0.19513449  1
  Se  Se242  1  0.08139611  0.25463602  0.69833878  1
  Se  Se243  1  0.09041372  0.58482451  0.18313512  1
  Se  Se244  1  0.08183635  0.58900248  0.70292560  1
  Se  Se245  1  0.07931095  0.91636319  0.19524228  1
  Se  Se246  1  0.08789331  0.92079861  0.69939344  1
  Se  Se247  1  0.41427853  0.24971752  0.19724933  1
  Se  Se248  1  0.42055216  0.24416711  0.69137064  1
  Se  Se249  1  0.41003430  0.58954637  0.19886554  1
  Se  Se250  1  0.41167494  0.58724021  0.69998765  1
  Se  Se251  1  0.41289264  0.91972087  0.19552378  1
  Se  Se252  1  0.42734388  0.90436666  0.68609753  1
  Se  Se253  1  0.74659407  0.24564111  0.18819640  1
  Se  Se254  1  0.76097071  0.23925570  0.68922316  1
  Se  Se255  1  0.74303032  0.60041264  0.20239612  1
  Se  Se256  1  0.74987406  0.58079130  0.69846897  1
  Se  Se257  1  0.74831239  0.92036900  0.19450080  1
  Se  Se258  1  0.74861725  0.91999487  0.70259912  1
