# generated using pymatgen
data_In86Cu29Se144
_symmetry_space_group_name_H-M   'P 1'
_cell_length_a   17.57575803
_cell_length_b   17.57878130
_cell_length_c   23.44097249
_cell_angle_alpha   89.99292936
_cell_angle_beta   90.01628869
_cell_angle_gamma   89.99509455
_symmetry_Int_Tables_number   1
_chemical_formula_structural   In86Cu29Se144
_chemical_formula_sum   'In86 Cu29 Se144'
_cell_volume   7242.33201630
_cell_formula_units_Z   1
loop_
 _symmetry_equiv_pos_site_id
 _symmetry_equiv_pos_as_xyz
  1  'x, y, z'
loop_
 _atom_site_type_symbol
 _atom_site_label
 _atom_site_symmetry_multiplicity
 _atom_site_fract_x
 _atom_site_fract_y
 _atom_site_fract_z
 _atom_site_occupancy
  In  In0  1  0.00340232  0.18373153  0.12466412  1
  In  In1  1  -0.00940186  0.16210851  0.62815266  1
  In  In2  1  0.00194492  0.48642500  0.12870905  1
  In  In3  1  0.02788745  0.54167560  0.58776718  1
  In  In4  1  0.00672405  0.82162082  0.12303313  1
  In  In5  1  0.01088031  0.83074206  0.62698694  1
  In  In6  1  0.34502560  0.15275798  0.13246957  1
  In  In7  1  0.33292610  0.14829457  0.61517788  1
  In  In8  1  0.33009399  0.50298062  0.12757080  1
  In  In9  1  0.32123879  0.51455029  0.62722350  1
  In  In10  1  0.33393755  0.83460924  0.12306824  1
  In  In11  1  0.32291966  0.84055902  0.62422481  1
  In  In12  1  0.66202104  0.16599429  0.12262575  1
  In  In13  1  0.65300440  0.16519599  0.62240952  1
  In  In14  1  0.65607189  0.50241061  0.13152791  1
  In  In15  1  0.67039787  0.49363735  0.62169780  1
  In  In16  1  0.65994819  0.85528834  0.13347136  1
  In  In17  1  0.67982421  0.83345717  0.62878839  1
  In  In18  1  0.17339735  -0.01138202  0.37709987  1
  In  In19  1  0.16388531  -0.01164133  0.87151155  1
  In  In20  1  0.18768608  0.35318822  0.36558317  1
  In  In21  1  0.17916195  0.33865755  0.87970820  1
  In  In22  1  0.18677206  0.64395283  0.40336410  1
  In  In23  1  0.17449442  0.66381948  0.87042665  1
  In  In24  1  0.50808685  0.00633339  0.36788798  1
  In  In25  1  0.49626292  -0.00464783  0.87336503  1
  In  In26  1  0.48340728  0.31677974  0.36245444  1
  In  In27  1  0.49931916  0.33190438  0.88816037  1
  In  In28  1  0.48819676  0.67781067  0.37131610  1
  In  In29  1  0.48048841  0.68779793  0.88883107  1
  In  In30  1  0.82950759  -0.00108451  0.37687895  1
  In  In31  1  0.83942852  0.00230003  0.87260227  1
  In  In32  1  0.84611060  0.35047089  0.35036699  1
  In  In33  1  0.81985298  0.33362717  0.87762449  1
  In  In34  1  0.84654661  0.65700915  0.39329851  1
  In  In35  1  0.84310311  0.65621978  0.86694279  1
  In  In36  1  -0.00992501  0.16933577  0.37356233  1
  In  In37  1  0.00311443  0.14835975  0.87838071  1
  In  In38  1  0.00694609  0.49744138  0.37885802  1
  In  In39  1  0.00850903  0.51633108  0.86486410  1
  In  In40  1  0.02282959  0.80915279  0.40309314  1
  In  In41  1  0.01135373  0.83590346  0.86938293  1
  In  In42  1  0.34506488  0.17355244  0.37129766  1
  In  In43  1  0.34637017  0.16063981  0.88133117  1
  In  In44  1  0.32943434  0.49504337  0.37244392  1
  In  In45  1  0.32114094  0.51329944  0.88763177  1
  In  In46  1  0.32438778  0.82780797  0.36749366  1
  In  In47  1  0.33355538  0.83334476  0.87209960  1
  In  In48  1  0.66182298  0.16079353  0.36623113  1
  In  In49  1  0.67070681  0.16129016  0.88437745  1
  In  In50  1  0.67721081  0.49385979  0.36969143  1
  In  In51  1  0.66531462  0.49148275  0.87555366  1
  In  In52  1  0.66483477  0.84547598  0.37701912  1
  In  In53  1  0.64795867  0.83484320  0.87618173  1
  In  In54  1  0.18484935  -0.00169111  0.11924376  1
  In  In55  1  0.18166910  -0.01550795  0.63437594  1
  In  In56  1  0.15909484  0.34308161  0.13025567  1
  In  In57  1  0.15757952  0.34572415  0.61888868  1
  In  In58  1  0.17704963  0.68198121  0.11523671  1
  In  In59  1  0.16774683  0.66867984  0.62095842  1
  In  In60  1  0.49353402  0.00600558  0.11951179  1
  In  In61  1  0.49021880  0.00761409  0.63331914  1
  In  In62  1  0.49814494  0.33181465  0.12783603  1
  In  In63  1  0.51115503  0.32934452  0.61933285  1
  In  In64  1  0.48808239  0.65259066  0.11861491  1
  In  In65  1  0.47857012  0.66691443  0.62863452  1
  In  In66  1  0.81374530  0.00072218  0.12825725  1
  In  In67  1  0.84644925  -0.01261686  0.63900414  1
  In  In68  1  0.84585829  0.32660792  0.13505823  1
  In  In69  1  0.82788996  0.33748886  0.61801673  1
  In  In70  1  0.83743160  0.66045656  0.12819063  1
  In  In71  1  0.86561203  0.69179302  0.59530281  1
  In  In72  1  0.16934830  0.17104096  0.49791851  1
  In  In73  1  0.66796645  0.66337964  0.75116084  1
  In  In74  1  0.66451993  0.66944434  0.25099656  1
  In  In75  1  0.83339866  0.49705757  0.00223197  1
  In  In76  1  0.82481270  0.16819469  0.49740580  1
  In  In77  1  -0.00277784  -0.00249383  0.25708176  1
  In  In78  1  0.66698241  0.33001183  0.74755236  1
  In  In79  1  -0.00319831  0.33129863  0.74684089  1
  In  In80  1  0.49344651  0.84034343  0.50315680  1
  In  In81  1  0.00776766  0.66405484  0.26156337  1
  In  In82  1  0.83110141  0.83539670  0.00460982  1
  In  In83  1  0.33423483  0.33152151  0.74675334  1
  In  In84  1  0.49351370  0.49549035  0.49807168  1
  In  In85  1  0.17166190  0.16769337  -0.00120440  1
  Cu  Cu86  1  0.01147779  0.66809159  -0.00725852  1
  Cu  Cu87  1  0.66344725  0.33192164  0.00559926  1
  Cu  Cu88  1  0.83467883  0.83326720  0.26257399  1
  Cu  Cu89  1  0.16859411  0.17143218  0.24662660  1
  Cu  Cu90  1  0.82655651  0.16246498  0.24846030  1
  Cu  Cu91  1  0.49372343  0.83939172  0.24787826  1
  Cu  Cu92  1  0.49324132  0.49916117  0.24708110  1
  Cu  Cu93  1  0.83300991  0.15737785  0.75536978  1
  Cu  Cu94  1  0.66563428  0.66818410  0.00573177  1
  Cu  Cu95  1  0.66841126  0.00164695  0.50007977  1
  Cu  Cu96  1  0.84419985  0.50810490  0.73648845  1
  Cu  Cu97  1  0.00157351  0.34040314  0.48867798  1
  Cu  Cu98  1  0.50131087  0.16400358  0.24381245  1
  Cu  Cu99  1  0.66309315  0.32652830  0.48837505  1
  Cu  Cu100  1  0.16749473  0.82599294  0.74984223  1
  Cu  Cu101  1  0.65747629  0.00473579  0.00143900  1
  Cu  Cu102  1  -0.00416450  0.00304079  -0.00343221  1
  Cu  Cu103  1  -0.00525956  0.33654570  0.00321750  1
  Cu  Cu104  1  0.33515485  0.33582510  0.00894522  1
  Cu  Cu105  1  0.33344272  0.66694427  -0.00062896  1
  Cu  Cu106  1  0.83729686  0.83222362  0.74690192  1
  Cu  Cu107  1  0.17454851  0.83570538  0.24833367  1
  Cu  Cu108  1  0.16961996  0.15620107  0.75008561  1
  Cu  Cu109  1  0.50003998  0.15942147  0.75136996  1
  Cu  Cu110  1  0.49056622  0.50568156  0.75824873  1
  Cu  Cu111  1  0.00682571  -0.00567881  0.51032221  1
  Cu  Cu112  1  0.16698308  0.50828736  0.25130883  1
  Cu  Cu113  1  0.66503894  0.66146633  0.50057193  1
  Cu  Cu114  1  0.49511121  0.83330341  0.75325052  1
  Se  Se115  1  0.07716673  0.07981997  0.06042719  1
  Se  Se116  1  0.08489640  0.08174089  0.56498701  1
  Se  Se117  1  0.08313316  0.41839946  0.05178287  1
  Se  Se118  1  0.08837051  0.42158103  0.53996060  1
  Se  Se119  1  0.08796613  0.75738467  0.04541351  1
  Se  Se120  1  0.07945175  0.74716437  0.55239003  1
  Se  Se121  1  0.40723096  0.08263035  0.04969401  1
  Se  Se122  1  0.43454079  0.08821691  0.55136818  1
  Se  Se123  1  0.41806491  0.42115596  0.06064077  1
  Se  Se124  1  0.40853566  0.41336042  0.56676944  1
  Se  Se125  1  0.41733624  0.74902427  0.05411443  1
  Se  Se126  1  0.40110730  0.74370976  0.55292617  1
  Se  Se127  1  0.74743827  0.08371691  0.05241758  1
  Se  Se128  1  0.75121994  0.07452904  0.56527608  1
  Se  Se129  1  0.74558973  0.41126923  0.06545697  1
  Se  Se130  1  0.74062282  0.40958343  0.54710134  1
  Se  Se131  1  0.74229989  0.74664748  0.06839746  1
  Se  Se132  1  0.74382394  0.75173889  0.55099193  1
  Se  Se133  1  0.25239878  0.25438229  0.06679921  1
  Se  Se134  1  0.25633568  0.25980316  0.56164768  1
  Se  Se135  1  0.24992694  0.58324288  0.05362143  1
  Se  Se136  1  0.24575887  0.58239550  0.54900189  1
  Se  Se137  1  0.24117617  0.90103576  0.05115223  1
  Se  Se138  1  0.25828797  0.93012820  0.55095040  1
  Se  Se139  1  0.57661238  0.24852114  0.05532643  1
  Se  Se140  1  0.58331370  0.24551291  0.54557310  1
  Se  Se141  1  0.58449836  0.57864488  0.05412614  1
  Se  Se142  1  0.58042351  0.59008667  0.56235919  1
  Se  Se143  1  0.57966166  0.91670064  0.05427648  1
  Se  Se144  1  0.59054473  0.92243301  0.56345926  1
  Se  Se145  1  0.91235741  0.25057659  0.05287138  1
  Se  Se146  1  0.92703147  0.25755058  0.55185254  1
  Se  Se147  1  0.93011197  0.59117055  0.05563046  1
  Se  Se148  1  0.88976758  0.55872446  0.55443013  1
  Se  Se149  1  0.92197454  0.92549185  0.06530638  1
  Se  Se150  1  0.91889769  0.91439871  0.56113931  1
  Se  Se151  1  0.08252579  0.25756924  0.43188697  1
  Se  Se152  1  0.07503271  0.25729280  0.93982274  1
  Se  Se153  1  0.05656082  0.60526961  0.44401229  1
  Se  Se154  1  0.09081842  0.57991012  0.94215001  1
  Se  Se155  1  0.09374592  0.91915612  0.45449494  1
  Se  Se156  1  0.07906256  0.91779398  0.94658173  1
  Se  Se157  1  0.41348245  0.25690481  0.44692990  1
  Se  Se158  1  0.41353238  0.24945386  0.95391120  1
  Se  Se159  1  0.40839759  0.59299482  0.44210258  1
  Se  Se160  1  0.42216020  0.58025935  0.95134366  1
  Se  Se161  1  0.41415982  0.92164312  0.43182924  1
  Se  Se162  1  0.43408889  0.89467629  0.93922095  1
  Se  Se163  1  0.75159749  0.25702417  0.42756996  1
  Se  Se164  1  0.74916384  0.25151824  0.95135979  1
  Se  Se165  1  0.74410079  0.57650272  0.44657848  1
  Se  Se166  1  0.74514884  0.59257139  0.94185172  1
  Se  Se167  1  0.75182411  0.91694576  0.44931367  1
  Se  Se168  1  0.74057643  0.92189996  0.94253417  1
  Se  Se169  1  0.25927616  0.08200501  0.43916371  1
  Se  Se170  1  0.25483336  0.07060737  0.94179270  1
  Se  Se171  1  0.24608975  0.42724942  0.44892906  1
  Se  Se172  1  0.25017416  0.41746063  0.95519045  1
  Se  Se173  1  0.24145723  0.76666980  0.44569607  1
  Se  Se174  1  0.25151890  0.74826683  0.94165711  1
  Se  Se175  1  0.58841484  0.08263902  0.44323853  1
  Se  Se176  1  0.57384959  0.08394971  0.94429623  1
  Se  Se177  1  0.58057238  0.41004815  0.43271756  1
  Se  Se178  1  0.58606395  0.41925747  0.95053107  1
  Se  Se179  1  0.58571416  0.74514325  0.44285686  1
  Se  Se180  1  0.58289222  0.75278301  0.95353013  1
  Se  Se181  1  0.92691140  0.07378510  0.44856860  1
  Se  Se182  1  0.90815216  0.08619106  0.94946278  1
  Se  Se183  1  0.90882159  0.41542384  0.43789029  1
  Se  Se184  1  0.92395303  0.41593618  0.93425943  1
  Se  Se185  1  0.90323530  0.76260706  0.45589024  1
  Se  Se186  1  0.91826645  0.74489055  0.94070294  1
  Se  Se187  1  0.25379614  0.25066884  0.30313524  1
  Se  Se188  1  0.24651958  0.23862081  0.81068346  1
  Se  Se189  1  0.24595502  0.58913971  0.31085376  1
  Se  Se190  1  0.25367082  0.57499994  0.80365348  1
  Se  Se191  1  0.25503457  0.92431371  0.29863181  1
  Se  Se192  1  0.25020781  0.91355456  0.80089744  1
  Se  Se193  1  0.58316360  0.24812142  0.29846355  1
  Se  Se194  1  0.57632519  0.24583726  0.81083534  1
  Se  Se195  1  0.57217600  0.57870216  0.31044006  1
  Se  Se196  1  0.57567419  0.58272843  0.81660075  1
  Se  Se197  1  0.58506299  0.91491960  0.30015269  1
  Se  Se198  1  0.58240439  0.91796864  0.80014368  1
  Se  Se199  1  0.91843694  0.24377591  0.29564164  1
  Se  Se200  1  0.90937397  0.24421687  0.81347775  1
  Se  Se201  1  0.90759510  0.57549248  0.30988056  1
  Se  Se202  1  0.92624493  0.59021512  0.79086335  1
  Se  Se203  1  0.92402083  0.90182121  0.32328657  1
  Se  Se204  1  0.91760685  0.91390477  0.80593402  1
  Se  Se205  1  0.09256191  0.09068778  0.31153199  1
  Se  Se206  1  0.08318397  0.07717203  0.80373882  1
  Se  Se207  1  0.08464791  0.42142181  0.30342345  1
  Se  Se208  1  0.09175534  0.41560905  0.80672118  1
  Se  Se209  1  0.09837460  0.75813665  0.31339348  1
  Se  Se210  1  0.08329114  0.74309698  0.80296462  1
  Se  Se211  1  0.41821715  0.08402489  0.30094507  1
  Se  Se212  1  0.41303007  0.07990469  0.80371940  1
  Se  Se213  1  0.40967992  0.41607928  0.30067871  1
  Se  Se214  1  0.41782388  0.41662857  0.81595115  1
  Se  Se215  1  0.41066965  0.75118825  0.29618533  1
  Se  Se216  1  0.41269810  0.74458636  0.80152712  1
  Se  Se217  1  0.75064505  0.07509343  0.30292575  1
  Se  Se218  1  0.74482118  0.08138120  0.80931060  1
  Se  Se219  1  0.73499220  0.40728420  0.29311670  1
  Se  Se220  1  0.76256380  0.43001512  0.79868290  1
  Se  Se221  1  0.75631668  0.74720081  0.31924948  1
  Se  Se222  1  0.75591666  0.75802980  0.81271557  1
  Se  Se223  1  0.24747318  0.08097884  0.19767409  1
  Se  Se224  1  0.25919518  0.08125119  0.69657061  1
  Se  Se225  1  0.24759401  0.42091062  0.19790283  1
  Se  Se226  1  0.23764980  0.42254191  0.69539369  1
  Se  Se227  1  0.25392551  0.74881894  0.19480746  1
  Se  Se228  1  0.25147178  0.74834170  0.69249945  1
  Se  Se229  1  0.58364287  0.07822506  0.19122642  1
  Se  Se230  1  0.58816128  0.08067304  0.69847594  1
  Se  Se231  1  0.57992119  0.41488710  0.19930801  1
  Se  Se232  1  0.57197746  0.42806193  0.69647158  1
  Se  Se233  1  0.57334265  0.75404368  0.18821069  1
  Se  Se234  1  0.57482927  0.75373979  0.69039248  1
  Se  Se235  1  0.91457359  0.08604487  0.18866988  1
  Se  Se236  1  0.92372794  0.07996087  0.70450059  1
  Se  Se237  1  0.91462859  0.42251063  0.20077180  1
  Se  Se238  1  0.91916252  0.42056922  0.67985040  1
  Se  Se239  1  0.91186909  0.75572378  0.19866577  1
  Se  Se240  1  0.91543849  0.74857010  0.69002600  1
  Se  Se241  1  0.08088974  0.25620278  0.20060489  1
  Se  Se242  1  0.09412931  0.24068648  0.68968036  1
  Se  Se243  1  0.08995941  0.58615913  0.18651948  1
  Se  Se244  1  0.08159015  0.57987063  0.68416389  1
  Se  Se245  1  0.08682586  0.91238992  0.19123411  1
  Se  Se246  1  0.08450752  0.91562083  0.70018968  1
  Se  Se247  1  0.41344861  0.25097732  0.19741778  1
  Se  Se248  1  0.42601585  0.24182531  0.68826453  1
  Se  Se249  1  0.41071659  0.58757611  0.19890580  1
  Se  Se250  1  0.40715068  0.58404008  0.70233514  1
  Se  Se251  1  0.41345358  0.92194917  0.19127664  1
  Se  Se252  1  0.41317290  0.91353336  0.69522219  1
  Se  Se253  1  0.74757562  0.24663736  0.19277468  1
  Se  Se254  1  0.76005482  0.23790087  0.68988128  1
  Se  Se255  1  0.75867101  0.57485028  0.19746892  1
  Se  Se256  1  0.75561399  0.58643083  0.68204739  1
  Se  Se257  1  0.75347754  0.91561683  0.20688090  1
  Se  Se258  1  0.74721655  0.91833985  0.70391665  1
