# generated using pymatgen
data_In86Cu29Se144
_symmetry_space_group_name_H-M   'P 1'
_cell_length_a   17.58578798
_cell_length_b   17.58412095
_cell_length_c   23.44648451
_cell_angle_alpha   90.00282851
_cell_angle_beta   89.99237901
_cell_angle_gamma   89.99047213
_symmetry_Int_Tables_number   1
_chemical_formula_structural   In86Cu29Se144
_chemical_formula_sum   'In86 Cu29 Se144'
_cell_volume   7250.37083355
_cell_formula_units_Z   1
loop_
 _symmetry_equiv_pos_site_id
 _symmetry_equiv_pos_as_xyz
  1  'x, y, z'
loop_
 _atom_site_type_symbol
 _atom_site_label
 _atom_site_symmetry_multiplicity
 _atom_site_fract_x
 _atom_site_fract_y
 _atom_site_fract_z
 _atom_site_occupancy
  In  In0  1  -0.00131061  0.15983694  0.12831209  1
  In  In1  1  -0.00132427  0.17381198  0.61306259  1
  In  In2  1  0.00437420  0.49972907  0.14142422  1
  In  In3  1  0.01073181  0.50764273  0.61797039  1
  In  In4  1  0.00040815  0.83389982  0.12880683  1
  In  In5  1  -0.01406447  0.83107892  0.62238337  1
  In  In6  1  0.32848374  0.18036621  0.12206827  1
  In  In7  1  0.32351713  0.15923354  0.62430213  1
  In  In8  1  0.34515317  0.50340652  0.12389616  1
  In  In9  1  0.32980751  0.52802664  0.61816984  1
  In  In10  1  0.33157103  0.82853828  0.12046807  1
  In  In11  1  0.34567186  0.82305815  0.63526976  1
  In  In12  1  0.67648946  0.16234606  0.12402233  1
  In  In13  1  0.67414311  0.15962031  0.63340806  1
  In  In14  1  0.65229215  0.49637390  0.11974966  1
  In  In15  1  0.66139516  0.50614510  0.63717378  1
  In  In16  1  0.66618533  0.82538628  0.10999780  1
  In  In17  1  0.66872008  0.83544766  0.62980582  1
  In  In18  1  0.17055877  0.01662031  0.37708768  1
  In  In19  1  0.17452085  -0.00989022  0.88445962  1
  In  In20  1  0.15123970  0.34586036  0.37974166  1
  In  In21  1  0.15480513  0.33066397  0.88210312  1
  In  In22  1  0.16430741  0.65896672  0.36890018  1
  In  In23  1  0.18294447  0.67647743  0.86464198  1
  In  In24  1  0.49284242  -0.00981722  0.37626316  1
  In  In25  1  0.49010009  -0.02142943  0.85790134  1
  In  In26  1  0.51148850  0.32544573  0.36716936  1
  In  In27  1  0.52543316  0.33306445  0.88543618  1
  In  In28  1  0.49178926  0.68464965  0.37757798  1
  In  In29  1  0.49824980  0.67144566  0.87274485  1
  In  In30  1  0.84359511  -0.01406264  0.38292242  1
  In  In31  1  0.82536924  0.00734693  0.87823712  1
  In  In32  1  0.83119448  0.32738862  0.36913206  1
  In  In33  1  0.81176843  0.32745884  0.88318324  1
  In  In34  1  0.84609312  0.66965162  0.37940473  1
  In  In35  1  0.84830243  0.67920975  0.87009699  1
  In  In36  1  -0.00083243  0.16463344  0.37200007  1
  In  In37  1  -0.00235454  0.16169571  0.88613689  1
  In  In38  1  0.02505408  0.51890846  0.34749774  1
  In  In39  1  -0.00641022  0.50521262  0.87557072  1
  In  In40  1  -0.00749008  0.82278141  0.36950901  1
  In  In41  1  0.00978234  0.82866965  0.88128812  1
  In  In42  1  0.33214870  0.15660880  0.37666498  1
  In  In43  1  0.33385188  0.15227918  0.87691974  1
  In  In44  1  0.31387934  0.50792112  0.37530586  1
  In  In45  1  0.34062410  0.52036485  0.87078060  1
  In  In46  1  0.34779537  0.82371842  0.37738750  1
  In  In47  1  0.33429539  0.82993410  0.87327438  1
  In  In48  1  0.66889604  0.18042233  0.37241922  1
  In  In49  1  0.67466476  0.16630340  0.87073562  1
  In  In50  1  0.67460717  0.49701467  0.37198344  1
  In  In51  1  0.65783645  0.49307754  0.87325396  1
  In  In52  1  0.66603431  0.83684564  0.38402446  1
  In  In53  1  0.66640170  0.83394773  0.86935605  1
  In  In54  1  0.16025018  -0.01274374  0.12074884  1
  In  In55  1  0.16654343  0.01024054  0.62483811  1
  In  In56  1  0.16674517  0.32524367  0.12672209  1
  In  In57  1  0.15997423  0.33020583  0.61490057  1
  In  In58  1  0.15613366  0.67588900  0.13655731  1
  In  In59  1  0.16912919  0.66440432  0.62421289  1
  In  In60  1  0.51055725  -0.00758438  0.11923358  1
  In  In61  1  0.51742152  -0.02042546  0.64531715  1
  In  In62  1  0.49438348  0.34110662  0.12629574  1
  In  In63  1  0.50742085  0.34256849  0.62833632  1
  In  In64  1  0.49717119  0.66899874  0.11967938  1
  In  In65  1  0.49130275  0.68939714  0.64833941  1
  In  In66  1  0.83632086  0.00595657  0.11884013  1
  In  In67  1  0.82862905  -0.00195788  0.61757756  1
  In  In68  1  0.84042222  0.32437924  0.13060817  1
  In  In69  1  0.83323554  0.32457892  0.62307866  1
  In  In70  1  0.83898831  0.67506780  0.12285702  1
  In  In71  1  0.82483429  0.67238359  0.63231395  1
  In  In72  1  0.33552222  0.33642387  0.74644619  1
  In  In73  1  -0.00677401  0.33833994  0.74590022  1
  In  In74  1  0.83114057  0.49971047  0.00285806  1
  In  In75  1  0.33019634  0.33988735  0.24909070  1
  In  In76  1  -0.00077125  -0.00222777  0.74533044  1
  In  In77  1  0.83842341  0.49802719  0.49427096  1
  In  In78  1  0.50323812  0.15995190  -0.00354883  1
  In  In79  1  0.66915581  -0.00051403  0.24765192  1
  In  In80  1  0.16408629  0.83221097  0.49851859  1
  In  In81  1  0.66964303  0.66299187  0.24311137  1
  In  In82  1  0.17152412  0.50200461  0.00625244  1
  In  In83  1  0.33451803  0.00000667  0.24996124  1
  In  In84  1  0.49694232  0.50587595  0.50479984  1
  In  In85  1  0.49768165  0.15957054  0.49765238  1
  Cu  Cu86  1  0.50200944  0.16800466  0.75807275  1
  Cu  Cu87  1  0.16240597  0.16928386  0.25040945  1
  Cu  Cu88  1  0.32863296  -0.00234444  -0.00399687  1
  Cu  Cu89  1  0.33696560  0.67458539  -0.00494534  1
  Cu  Cu90  1  0.33603915  -0.00468468  0.50135532  1
  Cu  Cu91  1  0.66365311  -0.00831235  -0.00794270  1
  Cu  Cu92  1  0.00178000  0.00632426  0.49848531  1
  Cu  Cu93  1  0.83042321  0.49166081  0.25306837  1
  Cu  Cu94  1  -0.00303660  -0.00343940  0.00470050  1
  Cu  Cu95  1  0.50549325  0.49735797  0.75395462  1
  Cu  Cu96  1  0.66489552  0.67716576  0.50762851  1
  Cu  Cu97  1  -0.00517035  0.32109509  0.00571436  1
  Cu  Cu98  1  0.16601793  0.83757323  0.25031102  1
  Cu  Cu99  1  0.83029210  0.50619176  0.75572723  1
  Cu  Cu100  1  0.32419084  0.33309278  0.49970010  1
  Cu  Cu101  1  -0.00391573  0.33278860  0.48989578  1
  Cu  Cu102  1  0.83579173  0.83260490  0.24900421  1
  Cu  Cu103  1  0.83087070  0.83657486  0.74934662  1
  Cu  Cu104  1  0.16858076  0.82966945  0.75493858  1
  Cu  Cu105  1  0.83049538  0.16987082  0.75158992  1
  Cu  Cu106  1  0.66851999  0.66733405  -0.00748629  1
  Cu  Cu107  1  0.66865148  0.00042950  0.50808959  1
  Cu  Cu108  1  0.16912619  0.16109309  0.75327923  1
  Cu  Cu109  1  0.33440468  0.33889132  0.00246161  1
  Cu  Cu110  1  0.01069370  0.67103712  0.00174215  1
  Cu  Cu111  1  0.83638803  0.16142494  0.24902016  1
  Cu  Cu112  1  0.49924430  0.50433606  0.24758672  1
  Cu  Cu113  1  0.16670015  0.50507376  0.74218667  1
  Cu  Cu114  1  0.67141454  0.33104097  0.50052293  1
  Se  Se115  1  0.08236268  0.08049159  0.05704182  1
  Se  Se116  1  0.08644909  0.08719267  0.55172714  1
  Se  Se117  1  0.07251098  0.41188232  0.05965314  1
  Se  Se118  1  0.07622456  0.41353282  0.54866175  1
  Se  Se119  1  0.08855339  0.75535203  0.05824129  1
  Se  Se120  1  0.07250747  0.74412682  0.55704537  1
  Se  Se121  1  0.40740255  0.07659033  0.05976519  1
  Se  Se122  1  0.41858074  0.07103102  0.56476696  1
  Se  Se123  1  0.42076889  0.42152068  0.05094765  1
  Se  Se124  1  0.40509206  0.40983112  0.56162997  1
  Se  Se125  1  0.42150674  0.75667935  0.04973028  1
  Se  Se126  1  0.41496332  0.73805536  0.56217444  1
  Se  Se127  1  0.74201575  0.07498606  0.04978879  1
  Se  Se128  1  0.75079541  0.09214360  0.55323499  1
  Se  Se129  1  0.74645934  0.40615593  0.06129756  1
  Se  Se130  1  0.74212417  0.41928097  0.56045862  1
  Se  Se131  1  0.75709825  0.74468757  0.04702575  1
  Se  Se132  1  0.75317691  0.75676026  0.55847106  1
  Se  Se133  1  0.24687550  0.25490544  0.04918486  1
  Se  Se134  1  0.24831095  0.24419855  0.55327081  1
  Se  Se135  1  0.25788679  0.59871851  0.06155573  1
  Se  Se136  1  0.22918360  0.57400437  0.54851062  1
  Se  Se137  1  0.24948832  0.91310588  0.05241537  1
  Se  Se138  1  0.25365992  0.91769129  0.56234180  1
  Se  Se139  1  0.58335871  0.25108348  0.06132388  1
  Se  Se140  1  0.58660330  0.25245296  0.55841216  1
  Se  Se141  1  0.58572190  0.58997147  0.05147987  1
  Se  Se142  1  0.58585492  0.59439930  0.56561144  1
  Se  Se143  1  0.57943376  0.90922895  0.04480839  1
  Se  Se144  1  0.58353599  0.91672755  0.55904177  1
  Se  Se145  1  0.91130173  0.23853447  0.05752017  1
  Se  Se146  1  0.91158178  0.25357014  0.54608549  1
  Se  Se147  1  0.93248804  0.58449788  0.05925282  1
  Se  Se148  1  0.91518140  0.59237918  0.55846036  1
  Se  Se149  1  0.91480594  0.91089308  0.05711798  1
  Se  Se150  1  0.91932395  0.92180998  0.55124984  1
  Se  Se151  1  0.08370434  0.24519526  0.44306756  1
  Se  Se152  1  0.08421667  0.24380556  0.95274126  1
  Se  Se153  1  0.07378926  0.58528259  0.43716029  1
  Se  Se154  1  0.08637541  0.58908107  0.93949025  1
  Se  Se155  1  0.07874885  0.92476541  0.43655247  1
  Se  Se156  1  0.08385618  0.91583121  0.95142715  1
  Se  Se157  1  0.41165737  0.26027196  0.44013873  1
  Se  Se158  1  0.41132689  0.25642325  0.93904491  1
  Se  Se159  1  0.40817960  0.58997257  0.44192759  1
  Se  Se160  1  0.42109730  0.58634323  0.94771007  1
  Se  Se161  1  0.41939279  0.91067050  0.45065850  1
  Se  Se162  1  0.41450341  0.91814534  0.94190751  1
  Se  Se163  1  0.75384741  0.25020882  0.44611032  1
  Se  Se164  1  0.74265800  0.23865848  0.95192357  1
  Se  Se165  1  0.73894964  0.59431554  0.44402273  1
  Se  Se166  1  0.75320015  0.58908218  0.93470686  1
  Se  Se167  1  0.75054792  0.91632692  0.45205934  1
  Se  Se168  1  0.75212853  0.91025346  0.94164594  1
  Se  Se169  1  0.25432673  0.08495425  0.45342954  1
  Se  Se170  1  0.24498025  0.08820038  0.95047006  1
  Se  Se171  1  0.24476684  0.41884897  0.44653273  1
  Se  Se172  1  0.25769746  0.41732650  0.93693555  1
  Se  Se173  1  0.25347736  0.74178718  0.44043822  1
  Se  Se174  1  0.24619625  0.75387536  0.94560944  1
  Se  Se175  1  0.59353420  0.07387650  0.43789391  1
  Se  Se176  1  0.58183368  0.06849902  0.92983151  1
  Se  Se177  1  0.58808620  0.41211267  0.44391373  1
  Se  Se178  1  0.59105899  0.42238954  0.95573771  1
  Se  Se179  1  0.58026254  0.75330927  0.44967323  1
  Se  Se180  1  0.58474223  0.75196736  0.94085941  1
  Se  Se181  1  0.91542762  0.08620412  0.44449747  1
  Se  Se182  1  0.91232453  0.07927626  0.95092489  1
  Se  Se183  1  0.92562072  0.41786085  0.42740338  1
  Se  Se184  1  0.92239692  0.40509577  0.94238574  1
  Se  Se185  1  0.91114681  0.76100621  0.44884577  1
  Se  Se186  1  0.92153259  0.75036360  0.95008533  1
  Se  Se187  1  0.24577300  0.24548670  0.31176329  1
  Se  Se188  1  0.24390784  0.24931155  0.81053138  1
  Se  Se189  1  0.25373490  0.58885856  0.29723729  1
  Se  Se190  1  0.25372981  0.58405518  0.79560264  1
  Se  Se191  1  0.24696588  0.91221044  0.31472248  1
  Se  Se192  1  0.24837391  0.91735692  0.80647194  1
  Se  Se193  1  0.58717606  0.24582455  0.29631988  1
  Se  Se194  1  0.58773093  0.25233596  0.80614862  1
  Se  Se195  1  0.57862239  0.58211242  0.31153733  1
  Se  Se196  1  0.58470566  0.58497443  0.80645074  1
  Se  Se197  1  0.57897970  0.90741889  0.30625640  1
  Se  Se198  1  0.57983262  0.89998782  0.79259050  1
  Se  Se199  1  0.91851790  0.24763224  0.30166356  1
  Se  Se200  1  0.91329110  0.24656195  0.81248053  1
  Se  Se201  1  0.90726621  0.58520901  0.30133718  1
  Se  Se202  1  0.92274277  0.58614165  0.80156426  1
  Se  Se203  1  0.91768831  0.91660973  0.30255129  1
  Se  Se204  1  0.91405719  0.91323515  0.81180052  1
  Se  Se205  1  0.08327733  0.08077481  0.30238633  1
  Se  Se206  1  0.08500425  0.08410361  0.81202584  1
  Se  Se207  1  0.08640080  0.40728487  0.29363422  1
  Se  Se208  1  0.09104875  0.42502479  0.80580747  1
  Se  Se209  1  0.08484703  0.75077150  0.30300719  1
  Se  Se210  1  0.08001595  0.74802802  0.80450165  1
  Se  Se211  1  0.42971474  0.09202757  0.30650400  1
  Se  Se212  1  0.41328431  0.08214247  0.80168665  1
  Se  Se213  1  0.42239759  0.42618427  0.31302807  1
  Se  Se214  1  0.42487648  0.41620223  0.81413140  1
  Se  Se215  1  0.41618556  0.75007703  0.29766015  1
  Se  Se216  1  0.39868742  0.73312663  0.80541469  1
  Se  Se217  1  0.75798164  0.08287896  0.31292710  1
  Se  Se218  1  0.74963308  0.07929733  0.79968420  1
  Se  Se219  1  0.74319220  0.40880220  0.30127841  1
  Se  Se220  1  0.75251423  0.41685026  0.80757484  1
  Se  Se221  1  0.75233740  0.75485643  0.30928664  1
  Se  Se222  1  0.75345290  0.74884297  0.80346704  1
  Se  Se223  1  0.24450316  0.09087829  0.18941605  1
  Se  Se224  1  0.25141041  0.07852282  0.70050470  1
  Se  Se225  1  0.24262952  0.42885546  0.18744966  1
  Se  Se226  1  0.24394780  0.42083141  0.68342819  1
  Se  Se227  1  0.25141124  0.75671710  0.19682392  1
  Se  Se228  1  0.24694055  0.74688888  0.69564995  1
  Se  Se229  1  0.57531695  0.08877235  0.19016688  1
  Se  Se230  1  0.58588494  0.08608108  0.70250344  1
  Se  Se231  1  0.58070978  0.41760233  0.19702512  1
  Se  Se232  1  0.58913787  0.41102956  0.70369096  1
  Se  Se233  1  0.58151465  0.75885117  0.18950401  1
  Se  Se234  1  0.58656991  0.76635637  0.70776909  1
  Se  Se235  1  0.91610274  0.07428840  0.19672678  1
  Se  Se236  1  0.91353779  0.09595010  0.68848610  1
  Se  Se237  1  0.91683734  0.41094627  0.20028033  1
  Se  Se238  1  0.90566524  0.43091339  0.68662970  1
  Se  Se239  1  0.91957822  0.74622248  0.19815442  1
  Se  Se240  1  0.91605330  0.75168304  0.69913467  1
  Se  Se241  1  0.07943812  0.25006286  0.19511335  1
  Se  Se242  1  0.08810089  0.24179817  0.69375012  1
  Se  Se243  1  0.08522423  0.58548735  0.20489660  1
  Se  Se244  1  0.07871044  0.58844686  0.69465144  1
  Se  Se245  1  0.08075329  0.92005025  0.19909864  1
  Se  Se246  1  0.09144003  0.90573862  0.68835502  1
  Se  Se247  1  0.42196941  0.24314540  0.19555184  1
  Se  Se248  1  0.42520034  0.24076361  0.68907050  1
  Se  Se249  1  0.41965100  0.58948713  0.19445720  1
  Se  Se250  1  0.42127150  0.57494573  0.69660206  1
  Se  Se251  1  0.42415859  0.91175372  0.18996183  1
  Se  Se252  1  0.40096065  0.92891958  0.69887388  1
  Se  Se253  1  0.75082901  0.24413308  0.19757934  1
  Se  Se254  1  0.74962323  0.25592586  0.69807166  1
  Se  Se255  1  0.75910680  0.57021327  0.18398393  1
  Se  Se256  1  0.74542247  0.58963057  0.70298773  1
  Se  Se257  1  0.75300173  0.90515335  0.18603022  1
  Se  Se258  1  0.75414611  0.92459785  0.69494107  1
