# generated using pymatgen
data_In86Cu29Se144
_symmetry_space_group_name_H-M   'P 1'
_cell_length_a   17.57843822
_cell_length_b   17.57607434
_cell_length_c   23.43589533
_cell_angle_alpha   89.99213016
_cell_angle_beta   90.01012437
_cell_angle_gamma   90.01110561
_symmetry_Int_Tables_number   1
_chemical_formula_structural   In86Cu29Se144
_chemical_formula_sum   'In86 Cu29 Se144'
_cell_volume   7240.75242509
_cell_formula_units_Z   1
loop_
 _symmetry_equiv_pos_site_id
 _symmetry_equiv_pos_as_xyz
  1  'x, y, z'
loop_
 _atom_site_type_symbol
 _atom_site_label
 _atom_site_symmetry_multiplicity
 _atom_site_fract_x
 _atom_site_fract_y
 _atom_site_fract_z
 _atom_site_occupancy
  In  In0  1  -0.00057228  0.16857630  0.13074161  1
  In  In1  1  -0.00725679  0.15804585  0.61646164  1
  In  In2  1  -0.02595351  0.48596529  0.13351181  1
  In  In3  1  -0.01008573  0.50451817  0.61765397  1
  In  In4  1  0.00710744  0.84321388  0.12993446  1
  In  In5  1  0.00040591  0.84022361  0.62087021  1
  In  In6  1  0.33359527  0.17002476  0.12199595  1
  In  In7  1  0.33278926  0.16923667  0.62285194  1
  In  In8  1  0.33356221  0.48102154  0.12506415  1
  In  In9  1  0.33938580  0.49423332  0.63204497  1
  In  In10  1  0.34843554  0.84166720  0.12725764  1
  In  In11  1  0.34399220  0.82900369  0.62685273  1
  In  In12  1  0.68247417  0.18607925  0.12102320  1
  In  In13  1  0.66624312  0.17067924  0.62033873  1
  In  In14  1  0.67073726  0.49232370  0.13399901  1
  In  In15  1  0.66912717  0.48543004  0.62449991  1
  In  In16  1  0.65793992  0.82116597  0.13092616  1
  In  In17  1  0.66997208  0.83782739  0.61234152  1
  In  In18  1  0.17422293  0.01832621  0.37166275  1
  In  In19  1  0.17760467  0.01103535  0.86619334  1
  In  In20  1  0.16067998  0.32121730  0.36938900  1
  In  In21  1  0.16676235  0.31833313  0.87906668  1
  In  In22  1  0.16063538  0.66904173  0.37986951  1
  In  In23  1  0.17532795  0.65957680  0.87340913  1
  In  In24  1  0.49370823  0.01522146  0.38370129  1
  In  In25  1  0.49816252  0.01704491  0.87125166  1
  In  In26  1  0.49309309  0.33245018  0.36534905  1
  In  In27  1  0.50446258  0.32889575  0.87362802  1
  In  In28  1  0.51078195  0.65916154  0.37810466  1
  In  In29  1  0.49382042  0.66946548  0.87546713  1
  In  In30  1  0.83421374  0.00145104  0.37654461  1
  In  In31  1  0.84690855  0.00841374  0.86541376  1
  In  In32  1  0.82348795  0.33426652  0.36753932  1
  In  In33  1  0.82424203  0.33447310  0.88270823  1
  In  In34  1  0.82815244  0.66611861  0.37941916  1
  In  In35  1  0.82357121  0.65997245  0.87557717  1
  In  In36  1  -0.00725595  0.17752940  0.36971751  1
  In  In37  1  0.00740733  0.16178790  0.88160961  1
  In  In38  1  -0.00660475  0.48638765  0.37238427  1
  In  In39  1  -0.00984523  0.48591069  0.88059863  1
  In  In40  1  -0.02159648  0.83565056  0.38164997  1
  In  In41  1  -0.00212608  0.85553157  0.87014611  1
  In  In42  1  0.33806368  0.16875667  0.37533826  1
  In  In43  1  0.33271077  0.16573378  0.87314649  1
  In  In44  1  0.34996017  0.49143943  0.37012723  1
  In  In45  1  0.34721505  0.50871964  0.86918496  1
  In  In46  1  0.32462312  0.84836237  0.38350369  1
  In  In47  1  0.33714866  0.83754007  0.86218339  1
  In  In48  1  0.66554676  0.16737999  0.37779407  1
  In  In49  1  0.64664771  0.18400575  0.88759822  1
  In  In50  1  0.67481421  0.50730051  0.34603804  1
  In  In51  1  0.67467848  0.48451416  0.88236388  1
  In  In52  1  0.67679274  0.82878400  0.38384169  1
  In  In53  1  0.66575525  0.82785186  0.87236357  1
  In  In54  1  0.15299671  0.01739910  0.13405033  1
  In  In55  1  0.15540850  0.00748872  0.62818632  1
  In  In56  1  0.18039980  0.32024110  0.13029699  1
  In  In57  1  0.18406747  0.33125332  0.62492544  1
  In  In58  1  0.16886950  0.66685638  0.12729924  1
  In  In59  1  0.17579375  0.67327104  0.62118252  1
  In  In60  1  0.48754173  0.00274030  0.12725104  1
  In  In61  1  0.49901076  -0.00000182  0.62063957  1
  In  In62  1  0.50624427  0.33482177  0.12751415  1
  In  In63  1  0.50715313  0.32310553  0.63521845  1
  In  In64  1  0.52088037  0.65986629  0.13475400  1
  In  In65  1  0.48472794  0.66912317  0.61889191  1
  In  In66  1  0.83380393  0.01815683  0.13313939  1
  In  In67  1  0.83677627  0.00463365  0.62043025  1
  In  In68  1  0.83031369  0.32919532  0.13624025  1
  In  In69  1  0.82464861  0.32548955  0.61563704  1
  In  In70  1  0.82833742  0.64799430  0.13205212  1
  In  In71  1  0.84173366  0.66777948  0.60769874  1
  In  In72  1  0.16448470  0.48680949  0.00200204  1
  In  In73  1  0.50604570  0.49639617  0.49403489  1
  In  In74  1  0.00822554  0.67090832  0.73977192  1
  In  In75  1  0.66673448  0.00943653  0.74064087  1
  In  In76  1  0.66851885  0.66665331  0.74762122  1
  In  In77  1  0.17102697  0.83467128  -0.00005606  1
  In  In78  1  0.50170451  0.83656253  -0.00296581  1
  In  In79  1  0.00368536  0.33087368  0.75356262  1
  In  In80  1  0.16309798  0.83486991  0.50619423  1
  In  In81  1  0.33339837  0.67141189  0.25356614  1
  In  In82  1  0.66639364  0.00743522  0.25720775  1
  In  In83  1  -0.00635653  0.66703741  0.25882438  1
  In  In84  1  0.16113371  0.49301902  0.49862171  1
  In  In85  1  0.83289248  0.83700240  -0.00913749  1
  Cu  Cu86  1  0.16865807  0.83412805  0.74193270  1
  Cu  Cu87  1  -0.01040647  0.66019736  0.00292548  1
  Cu  Cu88  1  0.33640426  0.00722618  0.50109804  1
  Cu  Cu89  1  0.82828532  0.83289454  0.25630851  1
  Cu  Cu90  1  0.34549643  0.65871253  -0.00086045  1
  Cu  Cu91  1  -0.00209954  0.01176491  0.00404408  1
  Cu  Cu92  1  0.66856093  0.33295221  0.49478315  1
  Cu  Cu93  1  0.49937223  0.83606550  0.74540501  1
  Cu  Cu94  1  0.83260788  0.49817484  0.75223103  1
  Cu  Cu95  1  -0.01098190  0.32809210  0.00826083  1
  Cu  Cu96  1  0.66804453  0.01007984  0.00132950  1
  Cu  Cu97  1  0.16712982  0.85000449  0.25484315  1
  Cu  Cu98  1  0.50031108  0.83803198  0.25484309  1
  Cu  Cu99  1  0.49327666  0.16183343  0.24771696  1
  Cu  Cu100  1  0.83039909  0.16805191  0.74490866  1
  Cu  Cu101  1  0.00073734  0.00498366  0.49674059  1
  Cu  Cu102  1  0.17913327  0.50040021  0.75065973  1
  Cu  Cu103  1  0.32536057  0.01053353  0.00082153  1
  Cu  Cu104  1  0.17159139  0.16689589  0.25169496  1
  Cu  Cu105  1  0.66703779  0.33472881  0.00748889  1
  Cu  Cu106  1  0.66786495  0.66113710  0.49248962  1
  Cu  Cu107  1  0.66767027  0.00205777  0.49942419  1
  Cu  Cu108  1  0.34363870  0.32986191  -0.00044567  1
  Cu  Cu109  1  0.67449746  0.64954182  0.00748992  1
  Cu  Cu110  1  0.50472970  0.49672644  0.75007954  1
  Cu  Cu111  1  -0.00762046  0.32861842  0.49228736  1
  Cu  Cu112  1  0.16765114  0.16379175  0.75057528  1
  Cu  Cu113  1  0.33722417  0.32607424  0.49803921  1
  Cu  Cu114  1  0.16639879  0.49917003  0.24668661  1
  Se  Se115  1  0.08434768  0.09312370  0.05520308  1
  Se  Se116  1  0.08717129  0.08606407  0.54922615  1
  Se  Se117  1  0.07394757  0.40712838  0.06791191  1
  Se  Se118  1  0.07310210  0.40033870  0.56049795  1
  Se  Se119  1  0.07322466  0.74191264  0.05734210  1
  Se  Se120  1  0.07049741  0.73504123  0.55607208  1
  Se  Se121  1  0.41762527  0.08554509  0.05259868  1
  Se  Se122  1  0.42058766  0.09026754  0.55407165  1
  Se  Se123  1  0.42290019  0.41489263  0.05380862  1
  Se  Se124  1  0.41625713  0.40942520  0.55710597  1
  Se  Se125  1  0.42006198  0.74107933  0.06186782  1
  Se  Se126  1  0.41340742  0.75356630  0.54800901  1
  Se  Se127  1  0.75393259  0.08709190  0.05631487  1
  Se  Se128  1  0.75001194  0.08588337  0.55421405  1
  Se  Se129  1  0.75365049  0.41300537  0.06278050  1
  Se  Se130  1  0.75108384  0.41848205  0.54797561  1
  Se  Se131  1  0.74976036  0.74570344  0.05837367  1
  Se  Se132  1  0.74845863  0.74821908  0.54647130  1
  Se  Se133  1  0.25185773  0.25085422  0.04912462  1
  Se  Se134  1  0.24770837  0.24678998  0.54880305  1
  Se  Se135  1  0.25570084  0.58645000  0.05709353  1
  Se  Se136  1  0.25714244  0.57872637  0.55749189  1
  Se  Se137  1  0.25381759  0.92555393  0.06399313  1
  Se  Se138  1  0.25576295  0.92608347  0.56211130  1
  Se  Se139  1  0.58105409  0.24755841  0.05534722  1
  Se  Se140  1  0.58330518  0.25740251  0.55331705  1
  Se  Se141  1  0.58637665  0.57347482  0.06089588  1
  Se  Se142  1  0.59098010  0.58776264  0.56086326  1
  Se  Se143  1  0.59311311  0.92318622  0.06088779  1
  Se  Se144  1  0.58029616  0.91863664  0.54962979  1
  Se  Se145  1  0.90842086  0.24549139  0.06354886  1
  Se  Se146  1  0.91227840  0.24510224  0.55009182  1
  Se  Se147  1  0.91207892  0.57634309  0.05816952  1
  Se  Se148  1  0.90620260  0.56897579  0.54328543  1
  Se  Se149  1  0.91921572  0.92281015  0.05833147  1
  Se  Se150  1  0.91861102  0.92037374  0.55067790  1
  Se  Se151  1  0.08248775  0.24713072  0.44464964  1
  Se  Se152  1  0.07727727  0.25372406  0.95170919  1
  Se  Se153  1  0.06911683  0.58499794  0.44166784  1
  Se  Se154  1  0.07698058  0.58600647  0.94250020  1
  Se  Se155  1  0.08172151  0.92288908  0.43759223  1
  Se  Se156  1  0.08112476  0.93018784  0.94526740  1
  Se  Se157  1  0.42526294  0.25047260  0.44327882  1
  Se  Se158  1  0.41948830  0.24518284  0.94161010  1
  Se  Se159  1  0.40666151  0.58884597  0.44392729  1
  Se  Se160  1  0.42896814  0.57683416  0.94711182  1
  Se  Se161  1  0.41789354  0.92094881  0.44954129  1
  Se  Se162  1  0.40443016  0.92427863  0.94221784  1
  Se  Se163  1  0.75398117  0.24897042  0.44343527  1
  Se  Se164  1  0.74810841  0.24794807  0.95261986  1
  Se  Se165  1  0.73824293  0.57199545  0.43437255  1
  Se  Se166  1  0.75747046  0.57327057  0.94852242  1
  Se  Se167  1  0.75517084  0.91973811  0.44841901  1
  Se  Se168  1  0.73965127  0.92962328  0.93539840  1
  Se  Se169  1  0.25298755  0.09030605  0.44761580  1
  Se  Se170  1  0.24243993  0.09074650  0.94527414  1
  Se  Se171  1  0.25812476  0.40898825  0.43827405  1
  Se  Se172  1  0.26190422  0.41113997  0.93827299  1
  Se  Se173  1  0.25469198  0.74226366  0.44722757  1
  Se  Se174  1  0.26582877  0.74332992  0.94239453  1
  Se  Se175  1  0.58424550  0.08975857  0.45106940  1
  Se  Se176  1  0.57488829  0.08439500  0.95090613  1
  Se  Se177  1  0.59387175  0.41278879  0.43008302  1
  Se  Se178  1  0.58241462  0.41162216  0.94826280  1
  Se  Se179  1  0.58266348  0.74958069  0.44709929  1
  Se  Se180  1  0.59744957  0.73591011  0.94739168  1
  Se  Se181  1  0.91829418  0.08828398  0.44126031  1
  Se  Se182  1  0.91137853  0.08634673  0.94613477  1
  Se  Se183  1  0.90733475  0.41238006  0.44249407  1
  Se  Se184  1  0.90945433  0.41408766  0.95378745  1
  Se  Se185  1  0.91406149  0.74224302  0.44891032  1
  Se  Se186  1  0.92778911  0.74433089  0.93438032  1
  Se  Se187  1  0.25678069  0.25091523  0.30383835  1
  Se  Se188  1  0.24806978  0.25008297  0.80343208  1
  Se  Se189  1  0.24091451  0.57826179  0.31155243  1
  Se  Se190  1  0.25938055  0.58882615  0.80112929  1
  Se  Se191  1  0.25550328  0.92775233  0.30641467  1
  Se  Se192  1  0.24894402  0.91812461  0.79847703  1
  Se  Se193  1  0.57639296  0.23764057  0.30613928  1
  Se  Se194  1  0.58458749  0.24755693  0.80232119  1
  Se  Se195  1  0.55976318  0.57284906  0.29869771  1
  Se  Se196  1  0.58447955  0.57744595  0.81204535  1
  Se  Se197  1  0.57995976  0.91543980  0.31809849  1
  Se  Se198  1  0.57935202  0.91380924  0.80673041  1
  Se  Se199  1  0.93005346  0.27775534  0.30083468  1
  Se  Se200  1  0.90955104  0.24416002  0.81165118  1
  Se  Se201  1  0.90112985  0.57051465  0.30621694  1
  Se  Se202  1  0.91890235  0.57943808  0.80571446  1
  Se  Se203  1  0.91351478  0.91792494  0.30417363  1
  Se  Se204  1  0.90999590  0.91434370  0.79637873  1
  Se  Se205  1  0.08108426  0.09056172  0.30525607  1
  Se  Se206  1  0.07859998  0.08430159  0.80336669  1
  Se  Se207  1  0.08744141  0.41816288  0.30503207  1
  Se  Se208  1  0.09493378  0.42627310  0.81187969  1
  Se  Se209  1  0.08767123  0.76417770  0.31141261  1
  Se  Se210  1  0.09205182  0.75813247  0.81063534  1
  Se  Se211  1  0.41329529  0.07913093  0.30424369  1
  Se  Se212  1  0.39953451  0.07106732  0.80326874  1
  Se  Se213  1  0.41990465  0.41824430  0.29308112  1
  Se  Se214  1  0.42107061  0.41494608  0.80484741  1
  Se  Se215  1  0.41855746  0.76056529  0.31736367  1
  Se  Se216  1  0.42086124  0.74800228  0.79972874  1
  Se  Se217  1  0.76404703  0.09846398  0.30591658  1
  Se  Se218  1  0.74787356  0.09565958  0.81013390  1
  Se  Se219  1  0.72276028  0.38666867  0.29122678  1
  Se  Se220  1  0.75200580  0.41262587  0.80464530  1
  Se  Se221  1  0.74714000  0.74751253  0.30732632  1
  Se  Se222  1  0.76294243  0.75928006  0.80349633  1
  Se  Se223  1  0.25514033  0.08561799  0.19494975  1
  Se  Se224  1  0.24903351  0.08407381  0.69199436  1
  Se  Se225  1  0.25195136  0.41264114  0.20005796  1
  Se  Se226  1  0.25728679  0.41049412  0.70041446  1
  Se  Se227  1  0.24201680  0.76638142  0.19284906  1
  Se  Se228  1  0.25445418  0.74826261  0.69463853  1
  Se  Se229  1  0.58201413  0.08960248  0.18714734  1
  Se  Se230  1  0.56878196  0.09862546  0.69108860  1
  Se  Se231  1  0.59817639  0.39845240  0.20208489  1
  Se  Se232  1  0.58969177  0.41357498  0.69929401  1
  Se  Se233  1  0.58451996  0.74917118  0.20939607  1
  Se  Se234  1  0.57988511  0.75614713  0.68582801  1
  Se  Se235  1  0.92872592  0.07753487  0.20150030  1
  Se  Se236  1  0.91571097  0.08499293  0.69413871  1
  Se  Se237  1  0.92183550  0.39715879  0.21085383  1
  Se  Se238  1  0.91260572  0.41747597  0.69129349  1
  Se  Se239  1  0.90924301  0.75699457  0.19054100  1
  Se  Se240  1  0.90767173  0.75445314  0.68726846  1
  Se  Se241  1  0.08782181  0.25001494  0.19791494  1
  Se  Se242  1  0.08780074  0.24368288  0.68792621  1
  Se  Se243  1  0.08225610  0.57889768  0.19079800  1
  Se  Se244  1  0.09577319  0.56999796  0.68607892  1
  Se  Se245  1  0.07782702  0.92679256  0.20252793  1
  Se  Se246  1  0.07881050  0.91602523  0.69521366  1
  Se  Se247  1  0.41633110  0.25046925  0.19210451  1
  Se  Se248  1  0.39757660  0.26492488  0.69232153  1
  Se  Se249  1  0.41340771  0.58108355  0.18851533  1
  Se  Se250  1  0.42376177  0.58197817  0.69608036  1
  Se  Se251  1  0.41661003  0.92162040  0.20389439  1
  Se  Se252  1  0.41738929  0.92157453  0.69369314  1
  Se  Se253  1  0.74110590  0.25420423  0.20751552  1
  Se  Se254  1  0.74782651  0.25183481  0.69261582  1
  Se  Se255  1  0.73812548  0.58805331  0.20354433  1
  Se  Se256  1  0.76066714  0.57949304  0.68718972  1
  Se  Se257  1  0.75047308  0.91168588  0.19180586  1
  Se  Se258  1  0.75448898  0.91071481  0.68867433  1
