# generated using pymatgen
data_In86Cu29Se144
_symmetry_space_group_name_H-M   'P 1'
_cell_length_a   17.58656919
_cell_length_b   17.59313652
_cell_length_c   23.45450637
_cell_angle_alpha   90.00493696
_cell_angle_beta   90.02318632
_cell_angle_gamma   90.02912929
_symmetry_Int_Tables_number   1
_chemical_formula_structural   In86Cu29Se144
_chemical_formula_sum   'In86 Cu29 Se144'
_cell_volume   7256.89102845
_cell_formula_units_Z   1
loop_
 _symmetry_equiv_pos_site_id
 _symmetry_equiv_pos_as_xyz
  1  'x, y, z'
loop_
 _atom_site_type_symbol
 _atom_site_label
 _atom_site_symmetry_multiplicity
 _atom_site_fract_x
 _atom_site_fract_y
 _atom_site_fract_z
 _atom_site_occupancy
  In  In0  1  0.00204444  0.16453815  0.11432833  1
  In  In1  1  -0.00782115  0.17053735  0.63597214  1
  In  In2  1  0.01958916  0.51948311  0.10981696  1
  In  In3  1  -0.00060433  0.48976492  0.62612652  1
  In  In4  1  0.00970075  0.81696982  0.12841539  1
  In  In5  1  0.01271489  0.83867145  0.62878363  1
  In  In6  1  0.33723889  0.16838334  0.12083736  1
  In  In7  1  0.33672000  0.15384934  0.62649959  1
  In  In8  1  0.32912490  0.49796082  0.13026197  1
  In  In9  1  0.33543761  0.50826509  0.61681491  1
  In  In10  1  0.31684463  0.84848887  0.14534449  1
  In  In11  1  0.33511258  0.83094837  0.63151661  1
  In  In12  1  0.65638387  0.15601001  0.11168464  1
  In  In13  1  0.65879610  0.16149021  0.62356158  1
  In  In14  1  0.65996418  0.49308663  0.11393852  1
  In  In15  1  0.66470026  0.50742791  0.63057009  1
  In  In16  1  0.66868498  0.84710571  0.12988848  1
  In  In17  1  0.66189404  0.83279816  0.63273009  1
  In  In18  1  0.17543134  -0.00601499  0.37061839  1
  In  In19  1  0.17224924  0.00106300  0.88242802  1
  In  In20  1  0.18340846  0.34218308  0.36525574  1
  In  In21  1  0.15538605  0.34124558  0.87854591  1
  In  In22  1  0.16851027  0.66652093  0.36134433  1
  In  In23  1  0.18195132  0.65133774  0.88122044  1
  In  In24  1  0.50229605  -0.00025051  0.36619617  1
  In  In25  1  0.50076957  0.00347238  0.87323255  1
  In  In26  1  0.48997888  0.34333848  0.38730874  1
  In  In27  1  0.49718225  0.33459351  0.88524144  1
  In  In28  1  0.45084427  0.65115247  0.36548939  1
  In  In29  1  0.48642946  0.66398088  0.87332883  1
  In  In30  1  0.82826183  0.01372439  0.38088767  1
  In  In31  1  0.84473780  0.02092515  0.85790718  1
  In  In32  1  0.82350377  0.32880415  0.37818985  1
  In  In33  1  0.85238515  0.31635297  0.87830104  1
  In  In34  1  0.83652547  0.65598543  0.36946425  1
  In  In35  1  0.82032381  0.67007502  0.87511547  1
  In  In36  1  -0.01051537  0.16084261  0.37940392  1
  In  In37  1  0.00063889  0.16745784  0.87460378  1
  In  In38  1  0.00707240  0.51450428  0.36615618  1
  In  In39  1  0.01535853  0.48270517  0.87849359  1
  In  In40  1  0.01534922  0.82590038  0.36966989  1
  In  In41  1  0.00410256  0.84773755  0.87619449  1
  In  In42  1  0.34321165  0.17542470  0.36816169  1
  In  In43  1  0.34111464  0.15573513  0.88986388  1
  In  In44  1  0.33295097  0.49974614  0.37947814  1
  In  In45  1  0.32015254  0.51053166  0.88232166  1
  In  In46  1  0.32534480  0.82587678  0.34467022  1
  In  In47  1  0.33065811  0.82877722  0.87639457  1
  In  In48  1  0.66615034  0.16085867  0.38029107  1
  In  In49  1  0.67725877  0.15748490  0.87827001  1
  In  In50  1  0.66466419  0.48829905  0.37682288  1
  In  In51  1  0.65760273  0.50816917  0.87895765  1
  In  In52  1  0.63730191  0.83395412  0.36850616  1
  In  In53  1  0.66368741  0.83588829  0.86795913  1
  In  In54  1  0.18696258  0.01031337  0.10599979  1
  In  In55  1  0.16845832  -0.00085270  0.63957031  1
  In  In56  1  0.18341288  0.34740205  0.11773121  1
  In  In57  1  0.15331243  0.33700711  0.62781699  1
  In  In58  1  0.17463919  0.66873841  0.12715948  1
  In  In59  1  0.18006993  0.66069755  0.62607718  1
  In  In60  1  0.48136379  0.01588383  0.13856452  1
  In  In61  1  0.49406539  0.00044552  0.62963043  1
  In  In62  1  0.49237120  0.32391162  0.11917054  1
  In  In63  1  0.50107376  0.33211270  0.61971972  1
  In  In64  1  0.49589526  0.65301564  0.12459632  1
  In  In65  1  0.49555435  0.66493129  0.62619024  1
  In  In66  1  0.82562382  0.00419375  0.12119166  1
  In  In67  1  0.81682392  0.01675191  0.64191232  1
  In  In68  1  0.83174717  0.33205928  0.11569967  1
  In  In69  1  0.84879862  0.32765325  0.63194655  1
  In  In70  1  0.84665865  0.66857125  0.12125796  1
  In  In71  1  0.82825312  0.64975492  0.63041738  1
  In  In72  1  -0.00272229  0.66996559  0.75059745  1
  In  In73  1  0.83524509  0.83626196  -0.00025848  1
  In  In74  1  0.00635877  -0.00627224  0.25015791  1
  In  In75  1  0.16524000  0.17564808  0.49909331  1
  In  In76  1  0.83290980  0.48844449  0.50798140  1
  In  In77  1  0.83217846  0.83819878  0.50425178  1
  In  In78  1  0.49275065  0.82886038  0.49090564  1
  In  In79  1  0.66651182  0.66638431  0.25118644  1
  In  In80  1  0.49173738  0.83724656  0.00673458  1
  In  In81  1  0.00772270  0.33908098  0.24564997  1
  In  In82  1  0.66387599  0.32988596  0.25368774  1
  In  In83  1  0.32372555  0.33653863  0.75478631  1
  In  In84  1  0.17278126  0.83386130  0.49002011  1
  In  In85  1  0.67086260  0.32916943  0.75305050  1
  Cu  Cu86  1  0.33252950  0.66237831  0.00386363  1
  Cu  Cu87  1  0.33820284  -0.00084597  0.49982557  1
  Cu  Cu88  1  0.49561264  0.16681468  0.24706402  1
  Cu  Cu89  1  0.83131600  0.49798031  0.75627371  1
  Cu  Cu90  1  0.65848335  0.66076710  0.50430717  1
  Cu  Cu91  1  0.83284726  0.83947986  0.24829132  1
  Cu  Cu92  1  0.16608597  0.16400545  0.75693361  1
  Cu  Cu93  1  0.33331917  0.33496289  0.49707778  1
  Cu  Cu94  1  0.82806630  0.83534209  0.75349827  1
  Cu  Cu95  1  0.17250177  0.16386130  0.24128487  1
  Cu  Cu96  1  0.82650046  0.16433707  0.24933564  1
  Cu  Cu97  1  0.49356392  0.50923350  0.75324621  1
  Cu  Cu98  1  0.00574675  0.66264858  0.00053624  1
  Cu  Cu99  1  0.67106414  0.00365027  -0.00708644  1
  Cu  Cu100  1  0.00951658  0.66570203  0.49107364  1
  Cu  Cu101  1  -0.00315706  0.33096754  -0.00043743  1
  Cu  Cu102  1  0.66445264  0.32045260  0.50198078  1
  Cu  Cu103  1  0.49832897  0.16204057  0.75287686  1
  Cu  Cu104  1  0.49412253  0.83347842  0.75089269  1
  Cu  Cu105  1  0.16938341  0.83460717  0.75625419  1
  Cu  Cu106  1  -0.00025285  0.33429813  0.50215494  1
  Cu  Cu107  1  0.67039940  0.33800520  -0.00577398  1
  Cu  Cu108  1  0.00337774  0.00015907  -0.00485662  1
  Cu  Cu109  1  0.49208928  0.49357244  0.25418382  1
  Cu  Cu110  1  0.33110138  0.33407218  0.00271650  1
  Cu  Cu111  1  0.84516307  0.50634306  0.24058229  1
  Cu  Cu112  1  -0.00390065  0.00842147  0.50706700  1
  Cu  Cu113  1  0.66330660  0.00206435  0.49985385  1
  Cu  Cu114  1  0.66182134  0.66601135  -0.00071171  1
  Se  Se115  1  0.08698717  0.08548295  0.04638527  1
  Se  Se116  1  0.08632163  0.08096262  0.56352431  1
  Se  Se117  1  0.08393815  0.41285357  0.05120187  1
  Se  Se118  1  0.08336434  0.41972164  0.55139146  1
  Se  Se119  1  0.08920272  0.74627539  0.05294059  1
  Se  Se120  1  0.08162595  0.74792789  0.55475820  1
  Se  Se121  1  0.42502034  0.08775851  0.05440001  1
  Se  Se122  1  0.42092748  0.08150694  0.55331623  1
  Se  Se123  1  0.41331676  0.41832320  0.05798604  1
  Se  Se124  1  0.41670195  0.41550682  0.55438530  1
  Se  Se125  1  0.40597323  0.74509606  0.06589768  1
  Se  Se126  1  0.40362639  0.74400263  0.55496293  1
  Se  Se127  1  0.75581168  0.08697739  0.04648647  1
  Se  Se128  1  0.74759976  0.08023100  0.55625746  1
  Se  Se129  1  0.75370211  0.42052228  0.04870697  1
  Se  Se130  1  0.74044991  0.40035375  0.56761348  1
  Se  Se131  1  0.74087244  0.74742773  0.05999851  1
  Se  Se132  1  0.74318839  0.73905506  0.56082965  1
  Se  Se133  1  0.24762875  0.24684446  0.05250804  1
  Se  Se134  1  0.25753153  0.25757255  0.56402699  1
  Se  Se135  1  0.24861593  0.57823842  0.05705119  1
  Se  Se136  1  0.24500443  0.58282640  0.54858111  1
  Se  Se137  1  0.25829917  0.90243693  0.05390274  1
  Se  Se138  1  0.25342563  0.92386658  0.55953079  1
  Se  Se139  1  0.58701342  0.25635279  0.05046964  1
  Se  Se140  1  0.57602565  0.24103123  0.55321661  1
  Se  Se141  1  0.57753290  0.58117834  0.04981364  1
  Se  Se142  1  0.57822011  0.57768409  0.55886526  1
  Se  Se143  1  0.59176788  0.92825349  0.05620974  1
  Se  Se144  1  0.58440460  0.91534545  0.55630547  1
  Se  Se145  1  0.91266571  0.24507347  0.04991297  1
  Se  Se146  1  0.92151666  0.24826722  0.55595753  1
  Se  Se147  1  0.91306796  0.58233316  0.04734803  1
  Se  Se148  1  0.92657120  0.59131475  0.55504690  1
  Se  Se149  1  0.92761248  0.92142147  0.06199061  1
  Se  Se150  1  0.92008573  0.92497850  0.56661532  1
  Se  Se151  1  0.07734061  0.26242001  0.43319443  1
  Se  Se152  1  0.08166700  0.24923563  0.94592395  1
  Se  Se153  1  0.09297880  0.58588634  0.43787083  1
  Se  Se154  1  0.08612615  0.57777395  0.94568803  1
  Se  Se155  1  0.07205691  0.93073328  0.44222317  1
  Se  Se156  1  0.08957024  0.91221966  0.95106001  1
  Se  Se157  1  0.41519334  0.24476664  0.44970748  1
  Se  Se158  1  0.41832703  0.25006652  0.95346600  1
  Se  Se159  1  0.42785853  0.56619370  0.45053061  1
  Se  Se160  1  0.41689006  0.58137554  0.94906108  1
  Se  Se161  1  0.40307429  0.91884023  0.43139729  1
  Se  Se162  1  0.40796549  0.92599553  0.94309172  1
  Se  Se163  1  0.75230320  0.24312302  0.44893796  1
  Se  Se164  1  0.75197662  0.25045430  0.94375760  1
  Se  Se165  1  0.74695268  0.58457630  0.44555455  1
  Se  Se166  1  0.74847785  0.58529905  0.94774000  1
  Se  Se167  1  0.73700496  0.91592432  0.43939817  1
  Se  Se168  1  0.75205287  0.92351857  0.93381480  1
  Se  Se169  1  0.25468413  0.08119757  0.44173313  1
  Se  Se170  1  0.24283158  0.08898103  0.95425572  1
  Se  Se171  1  0.24610304  0.41644539  0.44759078  1
  Se  Se172  1  0.24759434  0.41492260  0.94694151  1
  Se  Se173  1  0.26406060  0.74812568  0.43160597  1
  Se  Se174  1  0.25193481  0.74655279  0.94808688  1
  Se  Se175  1  0.57650069  0.07830877  0.44375931  1
  Se  Se176  1  0.58150204  0.08543445  0.94412550  1
  Se  Se177  1  0.58859489  0.41383086  0.45191293  1
  Se  Se178  1  0.58082152  0.42200083  0.94869359  1
  Se  Se179  1  0.58158831  0.73087532  0.43728997  1
  Se  Se180  1  0.58339493  0.75049051  0.94176561  1
  Se  Se181  1  0.90987387  0.08898589  0.45491220  1
  Se  Se182  1  0.91611374  0.08118390  0.94339219  1
  Se  Se183  1  0.92460826  0.41454875  0.43560765  1
  Se  Se184  1  0.91637928  0.41675078  0.94482312  1
  Se  Se185  1  0.92057905  0.74652668  0.43983495  1
  Se  Se186  1  0.92510236  0.74394430  0.93977675  1
  Se  Se187  1  0.25131098  0.24688477  0.29934306  1
  Se  Se188  1  0.24668928  0.24167841  0.81876972  1
  Se  Se189  1  0.27873871  0.59971620  0.30773876  1
  Se  Se190  1  0.25304644  0.58199908  0.80097873  1
  Se  Se191  1  0.23988339  0.91984675  0.29124788  1
  Se  Se192  1  0.25159876  0.91832240  0.80971236  1
  Se  Se193  1  0.57126830  0.24534596  0.31391657  1
  Se  Se194  1  0.57471551  0.24553778  0.81260436  1
  Se  Se195  1  0.57658739  0.57472824  0.31218888  1
  Se  Se196  1  0.58039308  0.58933729  0.80623104  1
  Se  Se197  1  0.59385188  0.93106585  0.29535846  1
  Se  Se198  1  0.57789808  0.91808360  0.80271232  1
  Se  Se199  1  0.90976913  0.24750305  0.30469955  1
  Se  Se200  1  0.91917934  0.24238049  0.79983722  1
  Se  Se201  1  0.92329510  0.59167979  0.29503019  1
  Se  Se202  1  0.91325164  0.57965498  0.81496460  1
  Se  Se203  1  0.91043188  0.91395141  0.31584407  1
  Se  Se204  1  0.91762663  0.91479899  0.80268406  1
  Se  Se205  1  0.09012529  0.09591152  0.30885812  1
  Se  Se206  1  0.08614160  0.07819653  0.81098474  1
  Se  Se207  1  0.09888067  0.43321204  0.29932277  1
  Se  Se208  1  0.08613572  0.41384661  0.79812701  1
  Se  Se209  1  0.09366725  0.75844745  0.29472427  1
  Se  Se210  1  0.08927534  0.75163881  0.81469166  1
  Se  Se211  1  0.41260246  0.08129681  0.30044698  1
  Se  Se212  1  0.41093754  0.08474498  0.80719681  1
  Se  Se213  1  0.41122907  0.40968447  0.30896795  1
  Se  Se214  1  0.41975745  0.42317401  0.81280328  1
  Se  Se215  1  0.45611215  0.77534722  0.31059185  1
  Se  Se216  1  0.41025148  0.74921567  0.80321065  1
  Se  Se217  1  0.74586272  0.08361286  0.30556543  1
  Se  Se218  1  0.73867284  0.08073127  0.79734592  1
  Se  Se219  1  0.76437004  0.42727913  0.30213262  1
  Se  Se220  1  0.75339120  0.41837215  0.81782638  1
  Se  Se221  1  0.75503624  0.76014626  0.31289473  1
  Se  Se222  1  0.74403223  0.74820758  0.80100377  1
  Se  Se223  1  0.25521267  0.08070739  0.18936948  1
  Se  Se224  1  0.25381428  0.08573359  0.70223414  1
  Se  Se225  1  0.25136326  0.41231392  0.20018834  1
  Se  Se226  1  0.24455953  0.42525448  0.68835661  1
  Se  Se227  1  0.26657099  0.73289709  0.20047087  1
  Se  Se228  1  0.24619629  0.75160046  0.69730534  1
  Se  Se229  1  0.58668736  0.08950011  0.19549413  1
  Se  Se230  1  0.58078555  0.08170042  0.69655221  1
  Se  Se231  1  0.57646525  0.42075417  0.19289503  1
  Se  Se232  1  0.57295620  0.42122109  0.69756504  1
  Se  Se233  1  0.58075472  0.75185224  0.18682902  1
  Se  Se234  1  0.57607616  0.74842525  0.69604915  1
  Se  Se235  1  0.91570231  0.08935540  0.19268878  1
  Se  Se236  1  0.93211291  0.06583185  0.69753485  1
  Se  Se237  1  0.91813220  0.42186571  0.18096654  1
  Se  Se238  1  0.91654550  0.41953861  0.70139833  1
  Se  Se239  1  0.91322532  0.75272512  0.19756574  1
  Se  Se240  1  0.90528014  0.75849279  0.68729523  1
  Se  Se241  1  0.09049069  0.24446138  0.18461740  1
  Se  Se242  1  0.08689067  0.24719222  0.69942760  1
  Se  Se243  1  0.07903001  0.59197453  0.19195470  1
  Se  Se244  1  0.08524285  0.57949992  0.69137957  1
  Se  Se245  1  0.09239604  0.92186188  0.17930227  1
  Se  Se246  1  0.08233653  0.91688185  0.70573946  1
  Se  Se247  1  0.41349600  0.25228470  0.19539989  1
  Se  Se248  1  0.42032568  0.24794366  0.69500757  1
  Se  Se249  1  0.41531404  0.58115641  0.19971175  1
  Se  Se250  1  0.40996479  0.58486550  0.69482555  1
  Se  Se251  1  0.43297345  0.90413110  0.19792724  1
  Se  Se252  1  0.41116751  0.91950249  0.69866376  1
  Se  Se253  1  0.74967950  0.24424606  0.18759985  1
  Se  Se254  1  0.75671535  0.23886275  0.69223980  1
  Se  Se255  1  0.75155737  0.57752324  0.18495289  1
  Se  Se256  1  0.74549655  0.58117428  0.70554785  1
  Se  Se257  1  0.75309629  0.92682518  0.19847383  1
  Se  Se258  1  0.74167195  0.91691079  0.70080205  1
