# generated using pymatgen
data_In86Cu29Se144
_symmetry_space_group_name_H-M   'P 1'
_cell_length_a   17.59397760
_cell_length_b   17.59080828
_cell_length_c   23.46066607
_cell_angle_alpha   89.99841228
_cell_angle_beta   90.01843782
_cell_angle_gamma   90.03326693
_symmetry_Int_Tables_number   1
_chemical_formula_structural   In86Cu29Se144
_chemical_formula_sum   'In86 Cu29 Se144'
_cell_volume   7260.89358875
_cell_formula_units_Z   1
loop_
 _symmetry_equiv_pos_site_id
 _symmetry_equiv_pos_as_xyz
  1  'x, y, z'
loop_
 _atom_site_type_symbol
 _atom_site_label
 _atom_site_symmetry_multiplicity
 _atom_site_fract_x
 _atom_site_fract_y
 _atom_site_fract_z
 _atom_site_occupancy
  In  In0  1  0.00619765  0.15199890  0.12302104  1
  In  In1  1  -0.00670684  0.17182779  0.63015864  1
  In  In2  1  0.01593727  0.50756871  0.11890332  1
  In  In3  1  0.00308346  0.50263815  0.62234337  1
  In  In4  1  -0.00277492  0.83567468  0.11994810  1
  In  In5  1  0.02450919  0.81329050  0.64613046  1
  In  In6  1  0.32830665  0.16077772  0.11437908  1
  In  In7  1  0.33965127  0.15674235  0.62121269  1
  In  In8  1  0.33299506  0.50148940  0.11509556  1
  In  In9  1  0.32452778  0.52236238  0.63460528  1
  In  In10  1  0.32407597  0.82792354  0.11797624  1
  In  In11  1  0.32334090  0.82292725  0.61670299  1
  In  In12  1  0.65383999  0.15848996  0.12433579  1
  In  In13  1  0.66378611  0.15642864  0.61713875  1
  In  In14  1  0.65799536  0.51990395  0.12833957  1
  In  In15  1  0.66464024  0.48845783  0.62095134  1
  In  In16  1  0.67078090  0.83338171  0.12367727  1
  In  In17  1  0.66994419  0.84869842  0.62703442  1
  In  In18  1  0.14882645  -0.00499217  0.37029504  1
  In  In19  1  0.15745759  -0.00390689  0.88094804  1
  In  In20  1  0.17809948  0.33619246  0.37698925  1
  In  In21  1  0.15618695  0.34677139  0.87745803  1
  In  In22  1  0.15482218  0.67778957  0.38184213  1
  In  In23  1  0.16623939  0.67412900  0.87816106  1
  In  In24  1  0.50926118  -0.01202416  0.37701742  1
  In  In25  1  0.50702967  -0.00631709  0.88324018  1
  In  In26  1  0.48857995  0.33165595  0.37610321  1
  In  In27  1  0.49903608  0.33347968  0.88152130  1
  In  In28  1  0.51690715  0.66847483  0.36937011  1
  In  In29  1  0.48303650  0.68859695  0.89079656  1
  In  In30  1  0.84032521  -0.00054961  0.37337302  1
  In  In31  1  0.83155408  -0.00213176  0.87136106  1
  In  In32  1  0.83278637  0.33243687  0.38279473  1
  In  In33  1  0.84306681  0.32658885  0.87302570  1
  In  In34  1  0.83418484  0.66567759  0.37255834  1
  In  In35  1  0.84479855  0.66673938  0.87794995  1
  In  In36  1  -0.00204460  0.14702324  0.37732098  1
  In  In37  1  0.00378287  0.17150204  0.86930528  1
  In  In38  1  -0.00781827  0.50954028  0.38339814  1
  In  In39  1  0.03679301  0.53975773  0.84187161  1
  In  In40  1  0.00996820  0.83381161  0.36798298  1
  In  In41  1  0.00193575  0.83288864  0.88144198  1
  In  In42  1  0.33535895  0.17707541  0.37810377  1
  In  In43  1  0.33527937  0.16245113  0.88049488  1
  In  In44  1  0.33131032  0.49192459  0.37680521  1
  In  In45  1  0.31308985  0.52198139  0.88200941  1
  In  In46  1  0.32968772  0.83785166  0.38149955  1
  In  In47  1  0.33050335  0.83335133  0.87927404  1
  In  In48  1  0.67654689  0.15642810  0.37892728  1
  In  In49  1  0.67306998  0.15218426  0.87786548  1
  In  In50  1  0.66803289  0.51855809  0.37193100  1
  In  In51  1  0.66263967  0.50156096  0.88002947  1
  In  In52  1  0.66147802  0.82431444  0.36674528  1
  In  In53  1  0.65430560  0.84191485  0.88609919  1
  In  In54  1  0.14735208  -0.00679349  0.11015533  1
  In  In55  1  0.16779949  -0.01625783  0.62789595  1
  In  In56  1  0.16643121  0.33239080  0.11231966  1
  In  In57  1  0.15169513  0.34140921  0.63156029  1
  In  In58  1  0.16326691  0.66686825  0.12302147  1
  In  In59  1  0.16498573  0.66572481  0.62657254  1
  In  In60  1  0.50332446  0.00498469  0.12325472  1
  In  In61  1  0.50449681  0.00091516  0.62105129  1
  In  In62  1  0.49412166  0.32991116  0.11769716  1
  In  In63  1  0.50960797  0.33152428  0.62259464  1
  In  In64  1  0.50807056  0.67321128  0.11579171  1
  In  In65  1  0.48467272  0.66983234  0.62778379  1
  In  In66  1  0.85756099  -0.02486951  0.13611335  1
  In  In67  1  0.83428342  0.00160030  0.62999311  1
  In  In68  1  0.83383240  0.33199343  0.12491513  1
  In  In69  1  0.84288193  0.34019049  0.61329339  1
  In  In70  1  0.81865731  0.68734449  0.13089703  1
  In  In71  1  0.84990757  0.66531264  0.62484352  1
  In  In72  1  0.66685396  0.33335497  0.24536489  1
  In  In73  1  0.32871771  0.33786194  0.74617074  1
  In  In74  1  0.83781436  0.83756024  0.50710185  1
  In  In75  1  0.66957037  0.67087008  0.75460394  1
  In  In76  1  0.83862204  0.50077633  -0.00399756  1
  In  In77  1  0.32784634  -0.01164383  0.75847291  1
  In  In78  1  0.00015785  0.33453118  0.24707436  1
  In  In79  1  0.83416789  0.16040701  0.00044633  1
  In  In80  1  0.67142028  0.33047884  0.74341404  1
  In  In81  1  0.32558782  -0.00101482  0.24507102  1
  In  In82  1  0.16910998  0.16475779  0.49815903  1
  In  In83  1  0.49968759  0.49856775  0.49908973  1
  In  In84  1  0.33020944  0.66793817  0.24075947  1
  In  In85  1  0.33260992  0.33378249  0.25531496  1
  Cu  Cu86  1  -0.00017628  0.33345569  0.50393985  1
  Cu  Cu87  1  0.33403723  0.33608936  0.50282384  1
  Cu  Cu88  1  0.83765571  0.49378897  0.74272413  1
  Cu  Cu89  1  0.66919881  0.32726796  0.49935642  1
  Cu  Cu90  1  0.16571925  0.16462329  0.75395618  1
  Cu  Cu91  1  0.66488465  -0.00113815  0.49931379  1
  Cu  Cu92  1  0.66893474  0.66978084  0.49447187  1
  Cu  Cu93  1  0.00356856  0.33698555  -0.00832472  1
  Cu  Cu94  1  -0.00164919  -0.00610745  0.50173317  1
  Cu  Cu95  1  0.00154785  0.66868454  -0.00262829  1
  Cu  Cu96  1  0.51031300  0.15964383  0.74830588  1
  Cu  Cu97  1  0.83653897  0.84124299  0.75341037  1
  Cu  Cu98  1  0.50322997  0.82864968  0.24663548  1
  Cu  Cu99  1  0.83721326  0.16299118  0.74922450  1
  Cu  Cu100  1  0.83592974  0.83227614  0.25062191  1
  Cu  Cu101  1  0.33427464  0.33186243  -0.00700230  1
  Cu  Cu102  1  0.33009584  0.66362709  0.00071601  1
  Cu  Cu103  1  0.50057507  0.16052382  0.25019841  1
  Cu  Cu104  1  0.16641675  0.50374050  0.24834127  1
  Cu  Cu105  1  0.83547779  0.15318858  0.25320188  1
  Cu  Cu106  1  0.66092243  0.33637516  0.00444364  1
  Cu  Cu107  1  0.83702305  0.51095715  0.25167836  1
  Cu  Cu108  1  0.34074532  -0.00175838  0.50046405  1
  Cu  Cu109  1  0.49832591  0.83878842  0.75750386  1
  Cu  Cu110  1  0.33146119  0.66959682  0.50216352  1
  Cu  Cu111  1  0.00446246  0.66583544  0.50503627  1
  Cu  Cu112  1  0.48837903  0.50840664  0.75966193  1
  Cu  Cu113  1  0.33621576  -0.00342964  -0.00103244  1
  Cu  Cu114  1  0.66680975  -0.00079627  0.00429175  1
  Se  Se115  1  0.08875009  0.09636317  0.04417410  1
  Se  Se116  1  0.08117620  0.07744409  0.56082494  1
  Se  Se117  1  0.08546926  0.42033786  0.04721589  1
  Se  Se118  1  0.08573689  0.41811668  0.55197293  1
  Se  Se119  1  0.08419549  0.75066115  0.05320886  1
  Se  Se120  1  0.08552214  0.75362822  0.55641738  1
  Se  Se121  1  0.41958875  0.08161540  0.05146222  1
  Se  Se122  1  0.42382622  0.08459962  0.54985527  1
  Se  Se123  1  0.41475987  0.41466370  0.04971785  1
  Se  Se124  1  0.40839581  0.41765990  0.56715084  1
  Se  Se125  1  0.41303534  0.74973181  0.05241179  1
  Se  Se126  1  0.42074633  0.75216634  0.55026292  1
  Se  Se127  1  0.75093593  0.07338132  0.06644190  1
  Se  Se128  1  0.75417643  0.07503748  0.55341383  1
  Se  Se129  1  0.74417881  0.41571513  0.06124097  1
  Se  Se130  1  0.74890904  0.41744792  0.54897613  1
  Se  Se131  1  0.75029027  0.75529901  0.05019245  1
  Se  Se132  1  0.74460426  0.74313397  0.56342186  1
  Se  Se133  1  0.25072037  0.24895722  0.04700125  1
  Se  Se134  1  0.25299531  0.25669976  0.56409118  1
  Se  Se135  1  0.24276729  0.58244514  0.05279671  1
  Se  Se136  1  0.24845456  0.58442299  0.55345633  1
  Se  Se137  1  0.24835064  0.91745175  0.05116640  1
  Se  Se138  1  0.25095691  0.91871484  0.55076421  1
  Se  Se139  1  0.58199696  0.24601914  0.05413559  1
  Se  Se140  1  0.58273924  0.24722329  0.55193225  1
  Se  Se141  1  0.57800985  0.57790946  0.04894008  1
  Se  Se142  1  0.58782662  0.59272194  0.55985126  1
  Se  Se143  1  0.58200764  0.91629900  0.05701347  1
  Se  Se144  1  0.58340783  0.91324791  0.55206338  1
  Se  Se145  1  0.92559616  0.25913298  0.05564260  1
  Se  Se146  1  0.91791118  0.24260431  0.55064915  1
  Se  Se147  1  0.91892353  0.59299600  0.06143574  1
  Se  Se148  1  0.91595727  0.58000304  0.55037981  1
  Se  Se149  1  0.91427547  0.91426109  0.04795381  1
  Se  Se150  1  0.93224507  0.91385749  0.57109639  1
  Se  Se151  1  0.07646146  0.25505685  0.43834951  1
  Se  Se152  1  0.08562987  0.24835175  0.94232429  1
  Se  Se153  1  0.08685352  0.58189671  0.44962810  1
  Se  Se154  1  0.08125946  0.58202198  0.94274888  1
  Se  Se155  1  0.08105956  0.91270072  0.44663057  1
  Se  Se156  1  0.09091337  0.90510204  0.95185299  1
  Se  Se157  1  0.41742209  0.25110760  0.45201061  1
  Se  Se158  1  0.42056798  0.24424124  0.94713109  1
  Se  Se159  1  0.41282337  0.59204613  0.43871957  1
  Se  Se160  1  0.41632891  0.58069437  0.94812580  1
  Se  Se161  1  0.42179419  0.91292193  0.44688805  1
  Se  Se162  1  0.41922431  0.91161918  0.94710099  1
  Se  Se163  1  0.75356463  0.24336342  0.44778998  1
  Se  Se164  1  0.74369778  0.25909389  0.94379502  1
  Se  Se165  1  0.75421531  0.58512822  0.44612766  1
  Se  Se166  1  0.74322660  0.59392531  0.94395090  1
  Se  Se167  1  0.74501926  0.91540224  0.44015948  1
  Se  Se168  1  0.75011212  0.92313884  0.94556706  1
  Se  Se169  1  0.25683331  0.07297978  0.43715397  1
  Se  Se170  1  0.25149694  0.07695427  0.94398623  1
  Se  Se171  1  0.24960707  0.41909478  0.45124588  1
  Se  Se172  1  0.24872088  0.41836700  0.94511488  1
  Se  Se173  1  0.24788030  0.75231778  0.44781631  1
  Se  Se174  1  0.24889451  0.75180375  0.94990395  1
  Se  Se175  1  0.58225605  0.08176996  0.44403127  1
  Se  Se176  1  0.58518377  0.08493796  0.95028138  1
  Se  Se177  1  0.59204124  0.41063613  0.43701460  1
  Se  Se178  1  0.58125405  0.41890292  0.94805826  1
  Se  Se179  1  0.58328641  0.75269624  0.44524457  1
  Se  Se180  1  0.58722333  0.74751407  0.95296906  1
  Se  Se181  1  0.91354442  0.07733412  0.45132649  1
  Se  Se182  1  0.92554893  0.07811367  0.93922299  1
  Se  Se183  1  0.91661149  0.41627935  0.44837638  1
  Se  Se184  1  0.92846323  0.41965762  0.93176252  1
  Se  Se185  1  0.92354745  0.74769183  0.44408872  1
  Se  Se186  1  0.91317510  0.75284540  0.95112185  1
  Se  Se187  1  0.23744107  0.23668625  0.30440018  1
  Se  Se188  1  0.24770077  0.24564825  0.81090231  1
  Se  Se189  1  0.24745533  0.58028945  0.31030801  1
  Se  Se190  1  0.24480716  0.59364680  0.80380704  1
  Se  Se191  1  0.24038321  0.90692523  0.30675273  1
  Se  Se192  1  0.23095238  0.89951204  0.80864794  1
  Se  Se193  1  0.57808330  0.24508686  0.30982812  1
  Se  Se194  1  0.58339273  0.24542431  0.80899551  1
  Se  Se195  1  0.58236694  0.58064342  0.29757326  1
  Se  Se196  1  0.57453437  0.58712796  0.81487522  1
  Se  Se197  1  0.58470364  0.91494365  0.29933834  1
  Se  Se198  1  0.58576279  0.92038634  0.80666584  1
  Se  Se199  1  0.91067283  0.24425784  0.30917321  1
  Se  Se200  1  0.91885010  0.25087039  0.79852158  1
  Se  Se201  1  0.92455248  0.58833038  0.30477530  1
  Se  Se202  1  0.90748833  0.58429131  0.79952652  1
  Se  Se203  1  0.91946797  0.91544417  0.30487553  1
  Se  Se204  1  0.92353848  0.91784860  0.80856104  1
  Se  Se205  1  0.08637231  0.09038158  0.30252556  1
  Se  Se206  1  0.08480021  0.07953424  0.80624556  1
  Se  Se207  1  0.08908658  0.42260340  0.31085424  1
  Se  Se208  1  0.07247619  0.40849634  0.80079388  1
  Se  Se209  1  0.08006561  0.74010324  0.30109058  1
  Se  Se210  1  0.05765632  0.72885404  0.81367827  1
  Se  Se211  1  0.41708258  0.08464138  0.31101564  1
  Se  Se212  1  0.42518044  0.08478276  0.80769437  1
  Se  Se213  1  0.42914683  0.43044189  0.30343454  1
  Se  Se214  1  0.41258684  0.42136451  0.81558588  1
  Se  Se215  1  0.41828240  0.75544893  0.30796379  1
  Se  Se216  1  0.41380713  0.75426935  0.80707211  1
  Se  Se217  1  0.74794512  0.07387694  0.30466345  1
  Se  Se218  1  0.75031256  0.08256409  0.80109644  1
  Se  Se219  1  0.75913775  0.42173190  0.30695460  1
  Se  Se220  1  0.75479850  0.42251566  0.80769240  1
  Se  Se221  1  0.75228134  0.74630805  0.30246887  1
  Se  Se222  1  0.75531511  0.76198699  0.81525289  1
  Se  Se223  1  0.23897126  0.08572137  0.18353481  1
  Se  Se224  1  0.24859585  0.08801635  0.69405522  1
  Se  Se225  1  0.24394564  0.42063298  0.18971379  1
  Se  Se226  1  0.23450818  0.43340608  0.69799825  1
  Se  Se227  1  0.23457195  0.76376639  0.19472144  1
  Se  Se228  1  0.25146076  0.74930356  0.69244278  1
  Se  Se229  1  0.58469134  0.07638844  0.20042316  1
  Se  Se230  1  0.58949641  0.07714204  0.69296552  1
  Se  Se231  1  0.57328486  0.41919123  0.18832761  1
  Se  Se232  1  0.56927034  0.42899673  0.69899880  1
  Se  Se233  1  0.58614625  0.74755448  0.19195771  1
  Se  Se234  1  0.57727862  0.75876132  0.69312178  1
  Se  Se235  1  0.92400486  0.08008828  0.19736745  1
  Se  Se236  1  0.92259242  0.07905613  0.69849333  1
  Se  Se237  1  0.91144337  0.42966647  0.18837751  1
  Se  Se238  1  0.92040013  0.41261689  0.68935487  1
  Se  Se239  1  0.91992345  0.75171970  0.19479896  1
  Se  Se240  1  0.91189548  0.75037099  0.70098817  1
  Se  Se241  1  0.09076439  0.24772476  0.18780781  1
  Se  Se242  1  0.08392048  0.24694865  0.69842108  1
  Se  Se243  1  0.08299461  0.58715216  0.19690934  1
  Se  Se244  1  0.07092332  0.59240519  0.69292127  1
  Se  Se245  1  0.07456956  0.92379815  0.18927073  1
  Se  Se246  1  0.07989319  0.92600020  0.70296580  1
  Se  Se247  1  0.41801724  0.24008705  0.19249516  1
  Se  Se248  1  0.42669621  0.24195250  0.69305372  1
  Se  Se249  1  0.42219234  0.57882522  0.18517350  1
  Se  Se250  1  0.41142141  0.59484892  0.70538041  1
  Se  Se251  1  0.41939629  0.90688439  0.18861865  1
  Se  Se252  1  0.41877819  0.91120050  0.68969848  1
  Se  Se253  1  0.75919881  0.23569616  0.19193243  1
  Se  Se254  1  0.76021648  0.24175988  0.68377355  1
  Se  Se255  1  0.75013828  0.58825272  0.19722896  1
  Se  Se256  1  0.75053922  0.57534312  0.68864395  1
  Se  Se257  1  0.75021380  0.91505017  0.19740893  1
  Se  Se258  1  0.75027258  0.92140446  0.70079769  1
