# generated using pymatgen
data_In86Cu29Se144
_symmetry_space_group_name_H-M   'P 1'
_cell_length_a   17.56902567
_cell_length_b   17.57210201
_cell_length_c   23.42351530
_cell_angle_alpha   90.00197329
_cell_angle_beta   90.01974470
_cell_angle_gamma   89.99957311
_symmetry_Int_Tables_number   1
_chemical_formula_structural   In86Cu29Se144
_chemical_formula_sum   'In86 Cu29 Se144'
_cell_volume   7231.41756486
_cell_formula_units_Z   1
loop_
 _symmetry_equiv_pos_site_id
 _symmetry_equiv_pos_as_xyz
  1  'x, y, z'
loop_
 _atom_site_type_symbol
 _atom_site_label
 _atom_site_symmetry_multiplicity
 _atom_site_fract_x
 _atom_site_fract_y
 _atom_site_fract_z
 _atom_site_occupancy
  In  In0  1  0.00336516  0.18316082  0.12687711  1
  In  In1  1  -0.00553622  0.15636161  0.60609340  1
  In  In2  1  -0.00466012  0.49309457  0.11846287  1
  In  In3  1  -0.00026352  0.51400162  0.62533640  1
  In  In4  1  0.00892500  0.82599536  0.12365306  1
  In  In5  1  -0.00103027  0.81977414  0.62724250  1
  In  In6  1  0.35050220  0.15427809  0.13346815  1
  In  In7  1  0.33625774  0.16426139  0.62374027  1
  In  In8  1  0.31960872  0.47789089  0.10507325  1
  In  In9  1  0.32352117  0.49503444  0.63052897  1
  In  In10  1  0.33977393  0.84630300  0.10938086  1
  In  In11  1  0.34693163  0.84809845  0.62007927  1
  In  In12  1  0.66262853  0.16251429  0.12779964  1
  In  In13  1  0.65218162  0.15787334  0.61231789  1
  In  In14  1  0.65266199  0.48000286  0.11644582  1
  In  In15  1  0.66521314  0.48513217  0.62404484  1
  In  In16  1  0.64765876  0.85578919  0.13320882  1
  In  In17  1  0.67511488  0.85892176  0.62852602  1
  In  In18  1  0.17783315  -0.00839020  0.38420361  1
  In  In19  1  0.16270125  -0.01298468  0.87642220  1
  In  In20  1  0.15522201  0.33307446  0.36274484  1
  In  In21  1  0.18802502  0.33003230  0.88014726  1
  In  In22  1  0.17676334  0.67960557  0.37364204  1
  In  In23  1  0.16213402  0.67405799  0.88258424  1
  In  In24  1  0.49230415  0.00991136  0.36651486  1
  In  In25  1  0.49647408  0.00207576  0.87497116  1
  In  In26  1  0.48106980  0.30507775  0.34721971  1
  In  In27  1  0.47833554  0.32966230  0.89667493  1
  In  In28  1  0.50826067  0.67330509  0.37598363  1
  In  In29  1  0.47729219  0.68154544  0.90030013  1
  In  In30  1  0.83628463  0.02923680  0.37915391  1
  In  In31  1  0.83023436  0.01600976  0.87489902  1
  In  In32  1  0.83335972  0.32891797  0.37214638  1
  In  In33  1  0.82662515  0.33463053  0.88291912  1
  In  In34  1  0.82297151  0.65931216  0.38134717  1
  In  In35  1  0.82992982  0.65621781  0.87289291  1
  In  In36  1  -0.00530001  0.17039417  0.38520607  1
  In  In37  1  -0.00926313  0.15921544  0.87735490  1
  In  In38  1  0.00001842  0.48720417  0.37255324  1
  In  In39  1  -0.00922107  0.50649579  0.87788592  1
  In  In40  1  0.02159618  0.84490887  0.37616612  1
  In  In41  1  0.01522914  0.83125292  0.87362885  1
  In  In42  1  0.33442954  0.16464128  0.37099861  1
  In  In43  1  0.34192153  0.17196517  0.87462497  1
  In  In44  1  0.34193031  0.49270674  0.37112109  1
  In  In45  1  0.33803333  0.49265110  0.89613153  1
  In  In46  1  0.32116589  0.85409157  0.37972950  1
  In  In47  1  0.31933324  0.84872712  0.88991274  1
  In  In48  1  0.66364780  0.16821070  0.36756251  1
  In  In49  1  0.66402392  0.16363957  0.87817634  1
  In  In50  1  0.67788448  0.49212287  0.37563195  1
  In  In51  1  0.66115575  0.50265556  0.88613784  1
  In  In52  1  0.64576812  0.84057065  0.37756879  1
  In  In53  1  0.65466117  0.83797300  0.87264018  1
  In  In54  1  0.18198657  -0.00197813  0.12428271  1
  In  In55  1  0.17692288  0.01246546  0.61511342  1
  In  In56  1  0.15675023  0.33525149  0.13223152  1
  In  In57  1  0.17986506  0.32810969  0.62571137  1
  In  In58  1  0.18692459  0.67190635  0.10525075  1
  In  In59  1  0.15461938  0.66462695  0.62758248  1
  In  In60  1  0.49137559  0.00905817  0.11897274  1
  In  In61  1  0.50183370  0.00413626  0.62576201  1
  In  In62  1  0.49573098  0.32321466  0.13368502  1
  In  In63  1  0.50331003  0.32109256  0.62578445  1
  In  In64  1  0.48390715  0.66055467  0.10820658  1
  In  In65  1  0.48378796  0.67508325  0.63044368  1
  In  In66  1  0.81143820  0.00200622  0.12933472  1
  In  In67  1  0.81889970  -0.00198989  0.62421256  1
  In  In68  1  0.83342765  0.33074599  0.12269281  1
  In  In69  1  0.82786042  0.33049010  0.61320243  1
  In  In70  1  0.84203564  0.66223690  0.12343717  1
  In  In71  1  0.85112068  0.67271053  0.62619920  1
  In  In72  1  0.17274952  0.16481462  0.00462067  1
  In  In73  1  0.66252743  0.66383179  0.24391911  1
  In  In74  1  0.82911705  0.83263200  0.00339727  1
  In  In75  1  0.83608357  0.83511710  0.50323083  1
  In  In76  1  0.00434542  0.66311578  0.25013716  1
  In  In77  1  0.66282249  0.32997312  0.75806449  1
  In  In78  1  0.32864488  0.67046827  0.76401401  1
  In  In79  1  0.00714633  0.33133133  0.74368203  1
  In  In80  1  0.16312815  0.49807101  0.50259394  1
  In  In81  1  0.50807687  0.49604481  0.49554690  1
  In  In82  1  0.33430547  0.67072105  0.23806527  1
  In  In83  1  0.66550130  0.66792208  0.75843321  1
  In  In84  1  0.00204226  0.00724972  0.25682448  1
  In  In85  1  0.00163642  -0.00799360  0.74598929  1
  Cu  Cu86  1  0.66845316  0.32336569  0.00543444  1
  Cu  Cu87  1  0.34417895  0.00601233  0.49913734  1
  Cu  Cu88  1  -0.00548805  0.33288780  0.49453461  1
  Cu  Cu89  1  0.48715871  0.83903796  0.24773615  1
  Cu  Cu90  1  0.49425512  0.16329751  0.74773730  1
  Cu  Cu91  1  0.00171070  0.66194452  0.00085187  1
  Cu  Cu92  1  0.83741108  0.50847973  0.74869857  1
  Cu  Cu93  1  0.33411543  0.68167205  0.49937961  1
  Cu  Cu94  1  -0.00468282  -0.00035386  -0.00113154  1
  Cu  Cu95  1  0.49885849  0.49123799  0.24409750  1
  Cu  Cu96  1  0.82665470  0.16839282  0.74772196  1
  Cu  Cu97  1  0.66631753  0.32812247  0.48940883  1
  Cu  Cu98  1  0.17293852  0.16765450  0.24907342  1
  Cu  Cu99  1  0.66326743  0.00475504  0.49591533  1
  Cu  Cu100  1  0.67525049  0.66957294  0.00052457  1
  Cu  Cu101  1  0.49241342  0.49670269  0.76908542  1
  Cu  Cu102  1  0.33758934  0.32593511  0.49666350  1
  Cu  Cu103  1  0.50594901  0.84441099  0.75068026  1
  Cu  Cu104  1  0.65730363  0.00656202  0.00360977  1
  Cu  Cu105  1  0.66348790  0.66722662  0.50213969  1
  Cu  Cu106  1  0.16978143  0.50511677  0.23819261  1
  Cu  Cu107  1  0.83258181  0.17220779  0.25056993  1
  Cu  Cu108  1  0.00145493  0.33412358  0.00098149  1
  Cu  Cu109  1  0.82908407  0.83890499  0.25767865  1
  Cu  Cu110  1  0.17681456  0.16129929  0.74718621  1
  Cu  Cu111  1  -0.00071214  0.66542285  0.50109121  1
  Cu  Cu112  1  0.16924682  0.49327883  0.75394942  1
  Cu  Cu113  1  0.83360837  0.48794234  0.24440579  1
  Cu  Cu114  1  0.17532455  0.83068625  0.75193738  1
  Se  Se115  1  0.07483129  0.07763219  0.06306912  1
  Se  Se116  1  0.09441516  0.08996242  0.54522968  1
  Se  Se117  1  0.08754849  0.41485938  0.05349504  1
  Se  Se118  1  0.07272291  0.40660846  0.56309034  1
  Se  Se119  1  0.08468140  0.75063425  0.04867838  1
  Se  Se120  1  0.08393560  0.74821264  0.55291353  1
  Se  Se121  1  0.41499794  0.09334703  0.04535891  1
  Se  Se122  1  0.42563254  0.08957461  0.55410924  1
  Se  Se123  1  0.44090992  0.42252244  0.06124303  1
  Se  Se124  1  0.41012487  0.41390996  0.55798194  1
  Se  Se125  1  0.41074633  0.75119835  0.04324147  1
  Se  Se126  1  0.42376613  0.75775451  0.55168233  1
  Se  Se127  1  0.74849482  0.08576177  0.05259807  1
  Se  Se128  1  0.75069668  0.08431481  0.54982045  1
  Se  Se129  1  0.75317944  0.41413144  0.05155210  1
  Se  Se130  1  0.74321106  0.41502344  0.54691349  1
  Se  Se131  1  0.73966587  0.75116846  0.07058857  1
  Se  Se132  1  0.74319722  0.74633215  0.56464197  1
  Se  Se133  1  0.25415929  0.24769368  0.07349408  1
  Se  Se134  1  0.25270916  0.24683348  0.55221278  1
  Se  Se135  1  0.25502244  0.57707279  0.04045764  1
  Se  Se136  1  0.25840883  0.59338878  0.55779626  1
  Se  Se137  1  0.24053669  0.91659399  0.04542060  1
  Se  Se138  1  0.25807742  0.92126901  0.55091778  1
  Se  Se139  1  0.58073863  0.24660066  0.05973618  1
  Se  Se140  1  0.57924233  0.25297106  0.54667982  1
  Se  Se141  1  0.59193848  0.58773846  0.05525585  1
  Se  Se142  1  0.58277544  0.58993739  0.56611316  1
  Se  Se143  1  0.57355513  0.91776670  0.05087057  1
  Se  Se144  1  0.58595135  0.92119349  0.55472314  1
  Se  Se145  1  0.91784179  0.24873312  0.05175572  1
  Se  Se146  1  0.91031040  0.24773810  0.54595522  1
  Se  Se147  1  0.91428169  0.58001381  0.05040300  1
  Se  Se148  1  0.91325294  0.58229050  0.55109835  1
  Se  Se149  1  0.91776484  0.92302391  0.06539400  1
  Se  Se150  1  0.92490045  0.92318911  0.56419834  1
  Se  Se151  1  0.08811654  0.25840423  0.44371855  1
  Se  Se152  1  0.07911473  0.25091252  0.93953929  1
  Se  Se153  1  0.07993401  0.59038399  0.43618679  1
  Se  Se154  1  0.08339097  0.57937100  0.94530475  1
  Se  Se155  1  0.08378452  0.92371440  0.45379495  1
  Se  Se156  1  0.08056737  0.91408128  0.95095056  1
  Se  Se157  1  0.42163598  0.24903344  0.43916001  1
  Se  Se158  1  0.41393450  0.22846887  0.96228449  1
  Se  Se159  1  0.40959309  0.59188041  0.44246147  1
  Se  Se160  1  0.43728501  0.56454369  0.95738471  1
  Se  Se161  1  0.42304156  0.92151471  0.44168865  1
  Se  Se162  1  0.43448661  0.90292778  0.94309679  1
  Se  Se163  1  0.75202649  0.24317942  0.44012609  1
  Se  Se164  1  0.75029884  0.24350897  0.94711222  1
  Se  Se165  1  0.74351382  0.57917328  0.45196020  1
  Se  Se166  1  0.75509904  0.58161242  0.94953520  1
  Se  Se167  1  0.74713914  0.92238036  0.43816659  1
  Se  Se168  1  0.74231853  0.92640648  0.94366921  1
  Se  Se169  1  0.25701520  0.08664405  0.44587392  1
  Se  Se170  1  0.25230230  0.07616756  0.93780185  1
  Se  Se171  1  0.25485696  0.41116050  0.44107189  1
  Se  Se172  1  0.25379281  0.40433055  0.95951011  1
  Se  Se173  1  0.24624131  0.76123870  0.44832828  1
  Se  Se174  1  0.26710291  0.73333145  0.94468540  1
  Se  Se175  1  0.58234342  0.08490850  0.43750620  1
  Se  Se176  1  0.57573747  0.08772445  0.94647415  1
  Se  Se177  1  0.57963885  0.40188426  0.42887755  1
  Se  Se178  1  0.58743370  0.40492181  0.94752918  1
  Se  Se179  1  0.58025805  0.75246710  0.45208528  1
  Se  Se180  1  0.59091828  0.75264201  0.94825963  1
  Se  Se181  1  0.93267978  0.07192518  0.45335572  1
  Se  Se182  1  0.91068175  0.08627430  0.95214033  1
  Se  Se183  1  0.91154609  0.41855082  0.44330172  1
  Se  Se184  1  0.91674571  0.41565858  0.94600257  1
  Se  Se185  1  0.92367166  0.74646965  0.43639919  1
  Se  Se186  1  0.92046949  0.74544203  0.94102668  1
  Se  Se187  1  0.25221196  0.25447922  0.30387690  1
  Se  Se188  1  0.25339937  0.24712961  0.80330466  1
  Se  Se189  1  0.24587107  0.57932659  0.30569834  1
  Se  Se190  1  0.24552497  0.57055648  0.81890234  1
  Se  Se191  1  0.24932493  0.92517062  0.30154264  1
  Se  Se192  1  0.25313474  0.91748815  0.80518556  1
  Se  Se193  1  0.60258295  0.26388218  0.29594819  1
  Se  Se194  1  0.56542073  0.24656036  0.81407993  1
  Se  Se195  1  0.57497741  0.57197263  0.30726982  1
  Se  Se196  1  0.56940411  0.58707933  0.82074451  1
  Se  Se197  1  0.57533657  0.91804342  0.30095893  1
  Se  Se198  1  0.58812623  0.92982799  0.80220187  1
  Se  Se199  1  0.92212664  0.24670552  0.30635520  1
  Se  Se200  1  0.90847115  0.24872561  0.80597868  1
  Se  Se201  1  0.90427233  0.57667136  0.30561280  1
  Se  Se202  1  0.92203123  0.58948698  0.80101682  1
  Se  Se203  1  0.91096218  0.91484068  0.31767925  1
  Se  Se204  1  0.91404200  0.91474641  0.81583514  1
  Se  Se205  1  0.09446293  0.09290673  0.31625360  1
  Se  Se206  1  0.08866749  0.08925716  0.80724396  1
  Se  Se207  1  0.08313068  0.42621079  0.29449034  1
  Se  Se208  1  0.08794139  0.41391136  0.81462438  1
  Se  Se209  1  0.09656596  0.76145081  0.29912885  1
  Se  Se210  1  0.08947113  0.74660104  0.80159525  1
  Se  Se211  1  0.42902042  0.10637354  0.29523354  1
  Se  Se212  1  0.41224523  0.08144092  0.80374315  1
  Se  Se213  1  0.40726958  0.41271601  0.29387602  1
  Se  Se214  1  0.40967814  0.41099820  0.81847939  1
  Se  Se215  1  0.41541825  0.75463270  0.31080454  1
  Se  Se216  1  0.42705092  0.76209773  0.81168389  1
  Se  Se217  1  0.75091432  0.08295520  0.29997476  1
  Se  Se218  1  0.74416213  0.08736412  0.80252886  1
  Se  Se219  1  0.74981955  0.41078676  0.30131813  1
  Se  Se220  1  0.75562231  0.42994819  0.80878794  1
  Se  Se221  1  0.74769097  0.75356629  0.31213368  1
  Se  Se222  1  0.75871958  0.76152045  0.81144505  1
  Se  Se223  1  0.25310770  0.08084841  0.19819267  1
  Se  Se224  1  0.25808102  0.07678466  0.69428676  1
  Se  Se225  1  0.25419261  0.41602673  0.19275305  1
  Se  Se226  1  0.25171053  0.40923005  0.70201980  1
  Se  Se227  1  0.24510492  0.76327324  0.18315214  1
  Se  Se228  1  0.25255057  0.75193229  0.68715013  1
  Se  Se229  1  0.59813912  0.05647552  0.18751696  1
  Se  Se230  1  0.58604460  0.08744807  0.69547492  1
  Se  Se231  1  0.58817538  0.40731972  0.19886560  1
  Se  Se232  1  0.56975606  0.42401989  0.70036150  1
  Se  Se233  1  0.56371562  0.75058881  0.18934313  1
  Se  Se234  1  0.58053868  0.75742111  0.69166431  1
  Se  Se235  1  0.91145514  0.08899288  0.18978144  1
  Se  Se236  1  0.91378763  0.09190374  0.69067472  1
  Se  Se237  1  0.92227343  0.41028857  0.19230062  1
  Se  Se238  1  0.90739968  0.41935622  0.68839346  1
  Se  Se239  1  0.90799271  0.76011630  0.19678433  1
  Se  Se240  1  0.91797196  0.75172623  0.70256507  1
  Se  Se241  1  0.08113539  0.25134088  0.20520662  1
  Se  Se242  1  0.08892506  0.23248201  0.68562900  1
  Se  Se243  1  0.09222844  0.58687938  0.17890804  1
  Se  Se244  1  0.08632077  0.57779142  0.70123913  1
  Se  Se245  1  0.08588004  0.91695515  0.19242256  1
  Se  Se246  1  0.09819489  0.90949400  0.68643051  1
  Se  Se247  1  0.43195752  0.22914382  0.20837468  1
  Se  Se248  1  0.41423865  0.25165988  0.69553240  1
  Se  Se249  1  0.41885959  0.57080201  0.18487825  1
  Se  Se250  1  0.41753812  0.57473054  0.70121654  1
  Se  Se251  1  0.40940190  0.92153901  0.18919708  1
  Se  Se252  1  0.41845614  0.92384934  0.69767094  1
  Se  Se253  1  0.75006784  0.24990524  0.19229294  1
  Se  Se254  1  0.74620841  0.24689389  0.68708212  1
  Se  Se255  1  0.75365086  0.57185199  0.18646151  1
  Se  Se256  1  0.74909453  0.57985122  0.68840797  1
  Se  Se257  1  0.74315049  0.91780093  0.20457383  1
  Se  Se258  1  0.76140761  0.91747793  0.70460504  1
