# generated using pymatgen
data_In86Cu29Se144
_symmetry_space_group_name_H-M   'P 1'
_cell_length_a   17.67408365
_cell_length_b   17.66784571
_cell_length_c   23.52894220
_cell_angle_alpha   90.02489538
_cell_angle_beta   90.00234363
_cell_angle_gamma   90.00384227
_symmetry_Int_Tables_number   1
_chemical_formula_structural   In86Cu29Se144
_chemical_formula_sum   'In86 Cu29 Se144'
_cell_volume   7347.21696204
_cell_formula_units_Z   1
loop_
 _symmetry_equiv_pos_site_id
 _symmetry_equiv_pos_as_xyz
  1  'x, y, z'
loop_
 _atom_site_type_symbol
 _atom_site_label
 _atom_site_symmetry_multiplicity
 _atom_site_fract_x
 _atom_site_fract_y
 _atom_site_fract_z
 _atom_site_occupancy
  In  In0  1  0.00271041  0.15247938  0.12560167  1
  In  In1  1  -0.00174311  0.16939975  0.62488371  1
  In  In2  1  -0.00246219  0.50645731  0.11815584  1
  In  In3  1  0.00942114  0.48792492  0.63822184  1
  In  In4  1  -0.00143862  0.83848953  0.11970535  1
  In  In5  1  -0.00829725  0.85441437  0.63469566  1
  In  In6  1  0.33023293  0.15995011  0.12796490  1
  In  In7  1  0.35438104  0.18064464  0.59735756  1
  In  In8  1  0.33185182  0.47645326  0.12573447  1
  In  In9  1  0.32300898  0.50174874  0.62491081  1
  In  In10  1  0.33590957  0.85039589  0.12604679  1
  In  In11  1  0.34003146  0.82118453  0.61455677  1
  In  In12  1  0.65680413  0.16630246  0.12667540  1
  In  In13  1  0.66332384  0.16697695  0.62733029  1
  In  In14  1  0.65979291  0.49212106  0.11087508  1
  In  In15  1  0.65284974  0.48344178  0.63490231  1
  In  In16  1  0.67788232  0.83750945  0.12430756  1
  In  In17  1  0.67791130  0.84311931  0.61770873  1
  In  In18  1  0.17800964  0.01318478  0.36181489  1
  In  In19  1  0.15798443  0.01223327  0.87958678  1
  In  In20  1  0.21517711  0.28742404  0.42986482  1
  In  In21  1  0.16898710  0.32840850  0.87197099  1
  In  In22  1  0.15843142  0.66320376  0.37761381  1
  In  In23  1  0.16713543  0.68110589  0.87365944  1
  In  In24  1  0.50404963  0.00378147  0.37635082  1
  In  In25  1  0.51242986  0.00421615  0.87091244  1
  In  In26  1  0.48924159  0.32560458  0.37731173  1
  In  In27  1  0.49709985  0.32780008  0.86950134  1
  In  In28  1  0.51162028  0.66440890  0.37641725  1
  In  In29  1  0.48830014  0.66414777  0.87507754  1
  In  In30  1  0.83521642  -0.00173527  0.37281528  1
  In  In31  1  0.83064737  -0.00136187  0.87435470  1
  In  In32  1  0.82882375  0.32581606  0.38143898  1
  In  In33  1  0.84154025  0.33965644  0.86719700  1
  In  In34  1  0.84300951  0.66939812  0.37924589  1
  In  In35  1  0.84199137  0.66267692  0.87645120  1
  In  In36  1  0.01294678  0.15338756  0.38495715  1
  In  In37  1  0.00977254  0.17599115  0.86615411  1
  In  In38  1  0.01076287  0.50280703  0.38020728  1
  In  In39  1  -0.00622510  0.49217099  0.86701461  1
  In  In40  1  -0.01449440  0.84301424  0.37900964  1
  In  In41  1  -0.00032783  0.83788444  0.87433232  1
  In  In42  1  0.33930692  0.15301341  0.37992962  1
  In  In43  1  0.33222898  0.17649070  0.88352899  1
  In  In44  1  0.33481208  0.47118573  0.37857348  1
  In  In45  1  0.34910546  0.48450846  0.87847127  1
  In  In46  1  0.32940283  0.85754944  0.38147268  1
  In  In47  1  0.32660122  0.82555471  0.87682448  1
  In  In48  1  0.68600761  0.15915528  0.39224160  1
  In  In49  1  0.65601348  0.15854132  0.86830108  1
  In  In50  1  0.65663306  0.49071289  0.37636556  1
  In  In51  1  0.67023701  0.49703565  0.87182459  1
  In  In52  1  0.66351057  0.83931499  0.38260520  1
  In  In53  1  0.66820547  0.85291933  0.87199504  1
  In  In54  1  0.16800095  0.00308730  0.12513045  1
  In  In55  1  0.15793694  0.01011832  0.62227183  1
  In  In56  1  0.18550355  0.32489401  0.12676229  1
  In  In57  1  0.16774893  0.33247683  0.62442002  1
  In  In58  1  0.15224064  0.66784970  0.12064554  1
  In  In59  1  0.16465267  0.65631234  0.62694084  1
  In  In60  1  0.49424652  0.00710097  0.13684897  1
  In  In61  1  0.51080014  0.02174875  0.60618357  1
  In  In62  1  0.46636107  0.29885911  0.09319793  1
  In  In63  1  0.50121327  0.32871671  0.63593543  1
  In  In64  1  0.50946436  0.66090517  0.11853984  1
  In  In65  1  0.48748252  0.66739451  0.61859742  1
  In  In66  1  0.84039679  -0.01288381  0.13933590  1
  In  In67  1  0.83199996  0.00565907  0.62449070  1
  In  In68  1  0.82333485  0.33370664  0.11701232  1
  In  In69  1  0.83416067  0.32491699  0.63300908  1
  In  In70  1  0.83499462  0.67024011  0.11373019  1
  In  In71  1  0.83376540  0.68486675  0.63002240  1
  In  In72  1  -0.00086825  0.67037873  0.24356697  1
  In  In73  1  0.49785151  0.49633236  0.50185686  1
  In  In74  1  0.49773007  0.83261900  -0.00118521  1
  In  In75  1  0.16459128  0.49754289  -0.00653499  1
  In  In76  1  0.00463328  0.33568778  0.25667827  1
  In  In77  1  0.33022506  0.00234960  0.73711402  1
  In  In78  1  0.83119157  0.16554750  -0.00064773  1
  In  In79  1  0.32751742  0.66348604  0.74689451  1
  In  In80  1  0.33479815  0.67380732  0.25273318  1
  In  In81  1  0.65760636  0.33163837  0.24897303  1
  In  In82  1  0.66792254  0.66787493  0.75259643  1
  In  In83  1  0.16275425  0.83073324  0.49659737  1
  In  In84  1  0.83106323  0.50282583  0.51875167  1
  In  In85  1  0.67060342  0.67340395  0.25037674  1
  Cu  Cu86  1  0.50254490  0.84172506  0.25602773  1
  Cu  Cu87  1  0.83297283  0.50045825  0.75143578  1
  Cu  Cu88  1  0.33121931  0.00289662  0.00264124  1
  Cu  Cu89  1  -0.00665096  0.67219979  -0.00289621  1
  Cu  Cu90  1  0.66980851  0.00447277  0.49980681  1
  Cu  Cu91  1  0.49408950  0.48959439  0.24209178  1
  Cu  Cu92  1  0.67295688  0.66579598  0.50088418  1
  Cu  Cu93  1  0.32560279  0.66294594  -0.00332242  1
  Cu  Cu94  1  0.16197327  0.83938820  0.24662981  1
  Cu  Cu95  1  -0.00542211  0.00212835  0.50209940  1
  Cu  Cu96  1  0.15996519  0.84120831  0.75177721  1
  Cu  Cu97  1  0.66652090  0.00370285  -0.00164492  1
  Cu  Cu98  1  0.00151194  0.67048671  0.50398637  1
  Cu  Cu99  1  0.67071145  0.66574283  -0.00553383  1
  Cu  Cu100  1  0.66715369  0.33747080  -0.00839074  1
  Cu  Cu101  1  0.00281835  -0.00096247  0.00142632  1
  Cu  Cu102  1  0.00366562  0.33226343  -0.00887977  1
  Cu  Cu103  1  0.83854769  0.84524314  0.74975725  1
  Cu  Cu104  1  -0.00309559  0.34036820  0.50973971  1
  Cu  Cu105  1  0.49533807  0.16347130  0.74343444  1
  Cu  Cu106  1  0.17060015  0.17108576  0.74623698  1
  Cu  Cu107  1  0.82980075  0.16190653  0.74952186  1
  Cu  Cu108  1  0.17451884  0.49037428  0.25593902  1
  Cu  Cu109  1  0.16799564  0.49690629  0.75278005  1
  Cu  Cu110  1  0.82974204  0.50204372  0.24356644  1
  Cu  Cu111  1  0.49946478  0.16690708  0.25058462  1
  Cu  Cu112  1  0.50550069  0.83875794  0.74136866  1
  Cu  Cu113  1  0.83339274  0.16003953  0.25532028  1
  Cu  Cu114  1  0.17255142  0.16939790  0.26031105  1
  Se  Se115  1  0.08667455  0.08389591  0.05232756  1
  Se  Se116  1  0.07805048  0.08943430  0.55087039  1
  Se  Se117  1  0.08070358  0.40674201  0.06029669  1
  Se  Se118  1  0.08474776  0.42178719  0.55811633  1
  Se  Se119  1  0.07831685  0.75213390  0.05111753  1
  Se  Se120  1  0.07564142  0.75278280  0.56714702  1
  Se  Se121  1  0.41751613  0.07738148  0.05930480  1
  Se  Se122  1  0.39197658  0.05665047  0.54826195  1
  Se  Se123  1  0.42838043  0.42877772  0.05359469  1
  Se  Se124  1  0.41035161  0.41001722  0.56316056  1
  Se  Se125  1  0.40581874  0.74266741  0.05987523  1
  Se  Se126  1  0.42268670  0.74848604  0.54320991  1
  Se  Se127  1  0.74737647  0.07696761  0.06341260  1
  Se  Se128  1  0.74882543  0.08803201  0.55682000  1
  Se  Se129  1  0.75332547  0.41816145  0.04504479  1
  Se  Se130  1  0.73759211  0.40574515  0.56390088  1
  Se  Se131  1  0.74615953  0.75211648  0.05030933  1
  Se  Se132  1  0.75557951  0.75115069  0.55163204  1
  Se  Se133  1  0.25854488  0.24627215  0.05519061  1
  Se  Se134  1  0.23918539  0.24857896  0.54970278  1
  Se  Se135  1  0.25138963  0.58378305  0.06203154  1
  Se  Se136  1  0.27116994  0.60980588  0.56196654  1
  Se  Se137  1  0.24900268  0.91782542  0.05434921  1
  Se  Se138  1  0.24708438  0.91698645  0.56151538  1
  Se  Se139  1  0.59437122  0.25185164  0.05089514  1
  Se  Se140  1  0.56176437  0.23458194  0.56501114  1
  Se  Se141  1  0.58370465  0.58347444  0.04446387  1
  Se  Se142  1  0.59428846  0.58532336  0.56121584  1
  Se  Se143  1  0.58441539  0.92317252  0.05958161  1
  Se  Se144  1  0.58716635  0.91794518  0.55112104  1
  Se  Se145  1  0.92677521  0.25490490  0.05789855  1
  Se  Se146  1  0.91396173  0.25367481  0.55680318  1
  Se  Se147  1  0.91469460  0.58195556  0.04804546  1
  Se  Se148  1  0.92802764  0.59243617  0.57067267  1
  Se  Se149  1  0.91307021  0.92369580  0.05496511  1
  Se  Se150  1  0.91299847  0.91846462  0.55529428  1
  Se  Se151  1  0.06676092  0.27280309  0.43530546  1
  Se  Se152  1  0.08796865  0.24737761  0.94334898  1
  Se  Se153  1  0.08387731  0.58600521  0.45324193  1
  Se  Se154  1  0.07486262  0.59115508  0.93734740  1
  Se  Se155  1  0.07923840  0.92803202  0.43911501  1
  Se  Se156  1  0.08457685  0.91781559  0.94454590  1
  Se  Se157  1  0.41291061  0.24640992  0.44784414  1
  Se  Se158  1  0.43294807  0.24174580  0.94591897  1
  Se  Se159  1  0.41369220  0.58068047  0.43391461  1
  Se  Se160  1  0.41287211  0.58290840  0.94669505  1
  Se  Se161  1  0.42304722  0.92298114  0.44750257  1
  Se  Se162  1  0.40994200  0.92490426  0.93785022  1
  Se  Se163  1  0.75120290  0.25804505  0.45650564  1
  Se  Se164  1  0.74739080  0.25293756  0.93372154  1
  Se  Se165  1  0.74674278  0.58088904  0.44036787  1
  Se  Se166  1  0.75129275  0.58246633  0.93961343  1
  Se  Se167  1  0.75287266  0.92025555  0.44621058  1
  Se  Se168  1  0.75046308  0.91987888  0.94810911  1
  Se  Se169  1  0.24321686  0.07836490  0.44494888  1
  Se  Se170  1  0.25126759  0.08450900  0.94565650  1
  Se  Se171  1  0.23774552  0.42959445  0.45217817  1
  Se  Se172  1  0.25949304  0.40341569  0.94629045  1
  Se  Se173  1  0.25654083  0.74548891  0.43633732  1
  Se  Se174  1  0.24511742  0.75319458  0.95077525  1
  Se  Se175  1  0.58310735  0.08677427  0.44881968  1
  Se  Se176  1  0.58112774  0.08491162  0.94741802  1
  Se  Se177  1  0.58884682  0.40037608  0.44687665  1
  Se  Se178  1  0.58279523  0.41490864  0.93614067  1
  Se  Se179  1  0.58770124  0.74536597  0.44740053  1
  Se  Se180  1  0.58965081  0.74734023  0.93482439  1
  Se  Se181  1  0.91218266  0.08391886  0.44558459  1
  Se  Se182  1  0.92634618  0.08254498  0.93949718  1
  Se  Se183  1  0.91547699  0.42172130  0.44655233  1
  Se  Se184  1  0.91806579  0.41632830  0.94352868  1
  Se  Se185  1  0.91872261  0.75158423  0.45045264  1
  Se  Se186  1  0.91333138  0.75678345  0.94284738  1
  Se  Se187  1  0.24764170  0.24749955  0.32412157  1
  Se  Se188  1  0.25478801  0.24660097  0.80491011  1
  Se  Se189  1  0.24968151  0.57888810  0.31180044  1
  Se  Se190  1  0.24636177  0.57563149  0.81600182  1
  Se  Se191  1  0.25121138  0.91581856  0.29897292  1
  Se  Se192  1  0.24764031  0.91660867  0.80908824  1
  Se  Se193  1  0.58183333  0.23915496  0.31434870  1
  Se  Se194  1  0.57937781  0.24379845  0.79924785  1
  Se  Se195  1  0.57687907  0.57062680  0.29939494  1
  Se  Se196  1  0.57256562  0.58062014  0.80729387  1
  Se  Se197  1  0.58915968  0.91954178  0.30867340  1
  Se  Se198  1  0.58469281  0.92096587  0.79714519  1
  Se  Se199  1  0.91312728  0.24319578  0.31246458  1
  Se  Se200  1  0.91473983  0.24689634  0.80115670  1
  Se  Se201  1  0.91312010  0.57471668  0.30574588  1
  Se  Se202  1  0.91742072  0.58488159  0.80148374  1
  Se  Se203  1  0.91912897  0.92012400  0.30242596  1
  Se  Se204  1  0.92111459  0.92532503  0.80588579  1
  Se  Se205  1  0.07811739  0.08461628  0.30028145  1
  Se  Se206  1  0.08892383  0.08673727  0.79971002  1
  Se  Se207  1  0.09656385  0.41524980  0.31852297  1
  Se  Se208  1  0.08517429  0.41171031  0.80501387  1
  Se  Se209  1  0.08601720  0.75770600  0.30803869  1
  Se  Se210  1  0.08121140  0.75364416  0.80363369  1
  Se  Se211  1  0.41931566  0.08034867  0.30361280  1
  Se  Se212  1  0.41667871  0.08447163  0.80657985  1
  Se  Se213  1  0.41899865  0.40793270  0.30126991  1
  Se  Se214  1  0.41384963  0.40938940  0.80004529  1
  Se  Se215  1  0.42491724  0.75887872  0.31523299  1
  Se  Se216  1  0.42265829  0.76168692  0.80187682  1
  Se  Se217  1  0.74630782  0.08443467  0.30919249  1
  Se  Se218  1  0.74832589  0.07958535  0.80535925  1
  Se  Se219  1  0.75596123  0.42118200  0.30659420  1
  Se  Se220  1  0.74946022  0.41546193  0.80121978  1
  Se  Se221  1  0.76006764  0.75635134  0.31252917  1
  Se  Se222  1  0.75783120  0.76200957  0.80875542  1
  Se  Se223  1  0.24658704  0.08339127  0.19940268  1
  Se  Se224  1  0.25098034  0.10150304  0.67959583  1
  Se  Se225  1  0.25519179  0.40594293  0.20310665  1
  Se  Se226  1  0.24770321  0.41702845  0.69511635  1
  Se  Se227  1  0.24008963  0.75464093  0.18832821  1
  Se  Se228  1  0.24160900  0.76253789  0.69162369  1
  Se  Se229  1  0.58694097  0.08413136  0.20112154  1
  Se  Se230  1  0.58005309  0.07750148  0.69353355  1
  Se  Se231  1  0.57415304  0.41357697  0.18121463  1
  Se  Se232  1  0.57155434  0.41602005  0.70797480  1
  Se  Se233  1  0.57282841  0.75842065  0.19134535  1
  Se  Se234  1  0.58142733  0.75180668  0.68469544  1
  Se  Se235  1  0.91838244  0.08427075  0.19880706  1
  Se  Se236  1  0.91652739  0.08501983  0.69414709  1
  Se  Se237  1  0.91140146  0.41912723  0.18790411  1
  Se  Se238  1  0.91407358  0.41300160  0.69988359  1
  Se  Se239  1  0.90412016  0.75758566  0.18968721  1
  Se  Se240  1  0.92010719  0.75724855  0.70027718  1
  Se  Se241  1  0.09067975  0.24308356  0.19396460  1
  Se  Se242  1  0.08352285  0.25156548  0.69280986  1
  Se  Se243  1  0.09320368  0.56807357  0.19518033  1
  Se  Se244  1  0.08524561  0.58366491  0.70226597  1
  Se  Se245  1  0.08043147  0.91804772  0.18981622  1
  Se  Se246  1  0.08511750  0.93058921  0.69834738  1
  Se  Se247  1  0.42055718  0.24732041  0.19031064  1
  Se  Se248  1  0.40588500  0.23966858  0.69092168  1
  Se  Se249  1  0.41879995  0.58109554  0.18862022  1
  Se  Se250  1  0.42407056  0.57644127  0.69340534  1
  Se  Se251  1  0.41401037  0.91880175  0.20290963  1
  Se  Se252  1  0.42276863  0.91222701  0.68069337  1
  Se  Se253  1  0.75874921  0.24327269  0.19373413  1
  Se  Se254  1  0.74537351  0.24689355  0.69941996  1
  Se  Se255  1  0.75011250  0.57950318  0.18417304  1
  Se  Se256  1  0.75450902  0.57792314  0.68832616  1
  Se  Se257  1  0.73954474  0.91975877  0.20047397  1
  Se  Se258  1  0.75066538  0.91984030  0.69424492  1
