# generated using pymatgen
data_In86Cu29Se144
_symmetry_space_group_name_H-M   'P 1'
_cell_length_a   17.57566794
_cell_length_b   17.58169843
_cell_length_c   23.44245990
_cell_angle_alpha   90.02025131
_cell_angle_beta   89.98954222
_cell_angle_gamma   89.99813050
_symmetry_Int_Tables_number   1
_chemical_formula_structural   In86Cu29Se144
_chemical_formula_sum   'In86 Cu29 Se144'
_cell_volume   7243.95614658
_cell_formula_units_Z   1
loop_
 _symmetry_equiv_pos_site_id
 _symmetry_equiv_pos_as_xyz
  1  'x, y, z'
loop_
 _atom_site_type_symbol
 _atom_site_label
 _atom_site_symmetry_multiplicity
 _atom_site_fract_x
 _atom_site_fract_y
 _atom_site_fract_z
 _atom_site_occupancy
  In  In0  1  -0.00298718  0.18154676  0.12647530  1
  In  In1  1  -0.01133536  0.17357030  0.64097079  1
  In  In2  1  -0.01272025  0.50650443  0.12989556  1
  In  In3  1  -0.00892686  0.50449830  0.62600329  1
  In  In4  1  -0.00642264  0.82052794  0.12417159  1
  In  In5  1  0.00091896  0.83092004  0.62173257  1
  In  In6  1  0.34229613  0.15096953  0.13189308  1
  In  In7  1  0.31129973  0.16299418  0.63381948  1
  In  In8  1  0.31888714  0.49737630  0.12602059  1
  In  In9  1  0.34786309  0.51250581  0.63066437  1
  In  In10  1  0.34237430  0.84448232  0.11793664  1
  In  In11  1  0.33101252  0.83309526  0.62768392  1
  In  In12  1  0.65816418  0.16416907  0.11447893  1
  In  In13  1  0.68438690  0.17042761  0.62345495  1
  In  In14  1  0.68671611  0.49585243  0.12243920  1
  In  In15  1  0.66256117  0.48774187  0.62962452  1
  In  In16  1  0.66176099  0.84183029  0.13462268  1
  In  In17  1  0.66240550  0.82517664  0.60419323  1
  In  In18  1  0.16876874  -0.01246986  0.37519416  1
  In  In19  1  0.15443587  -0.00618481  0.86387324  1
  In  In20  1  0.15860646  0.32633329  0.36947753  1
  In  In21  1  0.16118614  0.34075536  0.87084060  1
  In  In22  1  0.16767519  0.68248027  0.37768554  1
  In  In23  1  0.17371246  0.67606988  0.86523298  1
  In  In24  1  0.49448500  -0.00924891  0.37025405  1
  In  In25  1  0.49569348  0.00367626  0.87707446  1
  In  In26  1  0.49880161  0.34213748  0.36913506  1
  In  In27  1  0.49743460  0.32260583  0.87789767  1
  In  In28  1  0.52071516  0.67424625  0.37472166  1
  In  In29  1  0.50916979  0.68295964  0.87887934  1
  In  In30  1  0.82593704  0.00844660  0.37746820  1
  In  In31  1  0.84520715  0.00528222  0.87133926  1
  In  In32  1  0.85071036  0.32320129  0.39434206  1
  In  In33  1  0.83104764  0.33301564  0.87836474  1
  In  In34  1  0.83186417  0.66339594  0.37962314  1
  In  In35  1  0.83188158  0.65572134  0.87296951  1
  In  In36  1  -0.01856688  0.17135385  0.37437104  1
  In  In37  1  -0.01047499  0.15924676  0.86737426  1
  In  In38  1  -0.01641282  0.48812542  0.37073896  1
  In  In39  1  -0.00946826  0.49069815  0.86399735  1
  In  In40  1  0.01254468  0.82713358  0.37973425  1
  In  In41  1  0.00845536  0.84472037  0.86461912  1
  In  In42  1  0.33446484  0.16498105  0.36647209  1
  In  In43  1  0.34955589  0.16213312  0.87516775  1
  In  In44  1  0.34428589  0.49554049  0.37110416  1
  In  In45  1  0.32340621  0.49875323  0.87057921  1
  In  In46  1  0.32670684  0.84395169  0.38063305  1
  In  In47  1  0.33285428  0.83553072  0.87479930  1
  In  In48  1  0.69309388  0.16797086  0.36802798  1
  In  In49  1  0.65417005  0.18162916  0.89133830  1
  In  In50  1  0.67661463  0.51689582  0.37047527  1
  In  In51  1  0.68316976  0.50808631  0.88170799  1
  In  In52  1  0.66709524  0.83123213  0.37820872  1
  In  In53  1  0.65628378  0.81940326  0.88105797  1
  In  In54  1  0.17987222  0.00208435  0.12346973  1
  In  In55  1  0.17475747  -0.00509748  0.63485157  1
  In  In56  1  0.16128394  0.33366056  0.13227197  1
  In  In57  1  0.14712423  0.32447791  0.62741828  1
  In  In58  1  0.14892997  0.66644636  0.12264258  1
  In  In59  1  0.15866535  0.67594222  0.62953262  1
  In  In60  1  0.50110002  -0.00214678  0.12431890  1
  In  In61  1  0.49862368  -0.01245671  0.62753351  1
  In  In62  1  0.50864876  0.31167198  0.12294022  1
  In  In63  1  0.50597570  0.35149368  0.63280366  1
  In  In64  1  0.50324203  0.68418681  0.12282337  1
  In  In65  1  0.49059466  0.66475549  0.62907784  1
  In  In66  1  0.82079278  -0.00001597  0.13013209  1
  In  In67  1  0.84126071  0.00449015  0.61740731  1
  In  In68  1  0.83137089  0.34280860  0.11697136  1
  In  In69  1  0.83604222  0.33138982  0.62511077  1
  In  In70  1  0.83846146  0.66158586  0.13283215  1
  In  In71  1  0.83685676  0.67826862  0.61353167  1
  In  In72  1  0.66736748  0.66227466  0.75145515  1
  In  In73  1  0.15335459  0.15824520  0.49830290  1
  In  In74  1  0.67499508  0.00012568  0.74419228  1
  In  In75  1  0.50524777  0.15915146  0.50133101  1
  In  In76  1  0.16678184  0.16404509  -0.00630662  1
  In  In77  1  0.50377111  0.50119746  0.00032419  1
  In  In78  1  0.83031735  0.83623162  0.00124154  1
  In  In79  1  0.00050367  0.00102258  0.25394989  1
  In  In80  1  0.33097327  0.66704338  0.24935533  1
  In  In81  1  0.50796153  0.50751524  0.50038689  1
  In  In82  1  0.16196359  0.50291870  0.50812619  1
  In  In83  1  0.16147000  0.50465585  -0.00829174  1
  In  In84  1  0.32982445  0.33276743  0.74784431  1
  In  In85  1  0.66897991  0.33278691  0.24696454  1
  Cu  Cu86  1  0.83885292  0.83437918  0.74207660  1
  Cu  Cu87  1  0.33906213  0.32155237  0.00625455  1
  Cu  Cu88  1  0.83725234  0.49602621  0.74904138  1
  Cu  Cu89  1  0.00303302  0.00135239  -0.00748118  1
  Cu  Cu90  1  0.33244143  0.67715656  -0.00661414  1
  Cu  Cu91  1  0.16868820  0.83402812  0.25140272  1
  Cu  Cu92  1  0.83662466  0.49672284  0.25256617  1
  Cu  Cu93  1  0.33936765  0.67983867  0.50227105  1
  Cu  Cu94  1  0.49377696  0.83222414  0.75145627  1
  Cu  Cu95  1  -0.00898986  0.34074086  -0.00154122  1
  Cu  Cu96  1  0.16769308  0.82861404  0.74675676  1
  Cu  Cu97  1  0.33495789  -0.00752748  0.50495962  1
  Cu  Cu98  1  0.16807392  0.17001308  0.24870904  1
  Cu  Cu99  1  0.00120270  0.66679039  0.49923136  1
  Cu  Cu100  1  0.32894045  0.33212324  0.49678481  1
  Cu  Cu101  1  0.83263710  0.82520805  0.25469940  1
  Cu  Cu102  1  0.66991035  -0.00087421  0.49633393  1
  Cu  Cu103  1  0.33747444  -0.00786561  -0.00029615  1
  Cu  Cu104  1  0.50245728  0.15862132  0.24568754  1
  Cu  Cu105  1  0.82918955  0.17458237  0.75200356  1
  Cu  Cu106  1  0.50286873  0.16651615  0.75448384  1
  Cu  Cu107  1  -0.00036907  -0.00580251  0.50146472  1
  Cu  Cu108  1  -0.00427181  0.66961723  -0.00147953  1
  Cu  Cu109  1  0.15935097  0.49702739  0.25004594  1
  Cu  Cu110  1  0.67440819  0.33575850  0.50252771  1
  Cu  Cu111  1  0.50255486  0.83635011  0.25070791  1
  Cu  Cu112  1  0.16196558  0.50314322  0.74610704  1
  Cu  Cu113  1  0.66426481  -0.00385426  0.00426684  1
  Cu  Cu114  1  0.49688920  0.49754862  0.24886893  1
  Se  Se115  1  0.07698887  0.08012987  0.06024882  1
  Se  Se116  1  0.07432125  0.07309112  0.56728956  1
  Se  Se117  1  0.07774362  0.41602935  0.05763469  1
  Se  Se118  1  0.06819811  0.40627426  0.55550921  1
  Se  Se119  1  0.08076734  0.75357963  0.04908677  1
  Se  Se120  1  0.08640224  0.75005526  0.55105998  1
  Se  Se121  1  0.41707087  0.07959428  0.05348425  1
  Se  Se122  1  0.40536559  0.08196573  0.56413579  1
  Se  Se123  1  0.41132529  0.41180662  0.06295258  1
  Se  Se124  1  0.41023764  0.41322288  0.55555625  1
  Se  Se125  1  0.41740217  0.75384530  0.04993473  1
  Se  Se126  1  0.42302485  0.75684421  0.55895978  1
  Se  Se127  1  0.75152712  0.07907924  0.05314529  1
  Se  Se128  1  0.75130397  0.08339812  0.55054293  1
  Se  Se129  1  0.74793882  0.41586875  0.04421076  1
  Se  Se130  1  0.75226932  0.41947621  0.55853343  1
  Se  Se131  1  0.74863424  0.75061842  0.06804440  1
  Se  Se132  1  0.75029361  0.74692768  0.54043685  1
  Se  Se133  1  0.25088641  0.24789321  0.06400556  1
  Se  Se134  1  0.24818652  0.25414518  0.55560821  1
  Se  Se135  1  0.25359483  0.59485708  0.05368430  1
  Se  Se136  1  0.26162102  0.59283564  0.55980627  1
  Se  Se137  1  0.24623558  0.91426243  0.05023765  1
  Se  Se138  1  0.24657996  0.91498652  0.55795782  1
  Se  Se139  1  0.58785993  0.25339999  0.04369499  1
  Se  Se140  1  0.58531606  0.26112284  0.56045222  1
  Se  Se141  1  0.58981754  0.58782397  0.06414002  1
  Se  Se142  1  0.59386400  0.59322851  0.56449229  1
  Se  Se143  1  0.58251624  0.91110757  0.05622827  1
  Se  Se144  1  0.57955059  0.92363426  0.54902783  1
  Se  Se145  1  0.91485210  0.25181024  0.05212737  1
  Se  Se146  1  0.91405062  0.23853725  0.56101687  1
  Se  Se147  1  0.91536645  0.58720932  0.05430106  1
  Se  Se148  1  0.91722282  0.58397465  0.55116233  1
  Se  Se149  1  0.92373573  0.92690541  0.06002964  1
  Se  Se150  1  0.91398612  0.90974965  0.55183022  1
  Se  Se151  1  0.06938315  0.25825461  0.44481142  1
  Se  Se152  1  0.07424690  0.25940356  0.94044101  1
  Se  Se153  1  0.08080322  0.58647411  0.43750955  1
  Se  Se154  1  0.07237389  0.59280234  0.93218764  1
  Se  Se155  1  0.08909024  0.91528671  0.44991958  1
  Se  Se156  1  0.08568341  0.91582848  0.94328114  1
  Se  Se157  1  0.41490889  0.25421659  0.44118596  1
  Se  Se158  1  0.42164027  0.24097520  0.95167084  1
  Se  Se159  1  0.41200952  0.59484375  0.43977506  1
  Se  Se160  1  0.40806957  0.58659832  0.93900672  1
  Se  Se161  1  0.42045155  0.91572062  0.44864142  1
  Se  Se162  1  0.42205525  0.91146304  0.94448787  1
  Se  Se163  1  0.75125977  0.24421656  0.45202901  1
  Se  Se164  1  0.76739914  0.23551784  0.94671790  1
  Se  Se165  1  0.74769545  0.58451484  0.45013601  1
  Se  Se166  1  0.74382807  0.60436343  0.95062654  1
  Se  Se167  1  0.75450701  0.91553045  0.44481947  1
  Se  Se168  1  0.74280190  0.92465474  0.93561316  1
  Se  Se169  1  0.25928496  0.07721980  0.44333687  1
  Se  Se170  1  0.25728297  0.07162228  0.93721431  1
  Se  Se171  1  0.25096990  0.41552483  0.43947489  1
  Se  Se172  1  0.25898362  0.40302210  0.94660409  1
  Se  Se173  1  0.24954754  0.75688254  0.45034649  1
  Se  Se174  1  0.24293001  0.75533649  0.94271566  1
  Se  Se175  1  0.59294471  0.08054287  0.43316767  1
  Se  Se176  1  0.58079741  0.07859915  0.94847232  1
  Se  Se177  1  0.59326490  0.41151010  0.43938028  1
  Se  Se178  1  0.58987592  0.41192466  0.93915138  1
  Se  Se179  1  0.58377167  0.75469835  0.45122470  1
  Se  Se180  1  0.58594547  0.74614437  0.95912579  1
  Se  Se181  1  0.91935602  0.07934314  0.44704272  1
  Se  Se182  1  0.91604501  0.08682966  0.94743862  1
  Se  Se183  1  0.91112605  0.42914116  0.45465928  1
  Se  Se184  1  0.91220937  0.42645511  0.94401942  1
  Se  Se185  1  0.91978688  0.75021980  0.44407701  1
  Se  Se186  1  0.92068546  0.75316431  0.93583144  1
  Se  Se187  1  0.25212317  0.25340751  0.30302679  1
  Se  Se188  1  0.24872796  0.24365252  0.81418517  1
  Se  Se189  1  0.24105787  0.57613687  0.31124845  1
  Se  Se190  1  0.24888739  0.58201180  0.79938252  1
  Se  Se191  1  0.25409301  0.91824566  0.30081947  1
  Se  Se192  1  0.24837743  0.91246312  0.80301785  1
  Se  Se193  1  0.57880080  0.24000621  0.30961554  1
  Se  Se194  1  0.58537060  0.24925673  0.80680232  1
  Se  Se195  1  0.58029572  0.58069334  0.30106715  1
  Se  Se196  1  0.57869619  0.57809999  0.81547829  1
  Se  Se197  1  0.58840768  0.91587603  0.30559982  1
  Se  Se198  1  0.58368736  0.91088440  0.80662731  1
  Se  Se199  1  0.90628985  0.25658587  0.30578842  1
  Se  Se200  1  0.91561796  0.25669848  0.80472642  1
  Se  Se201  1  0.91565597  0.58597321  0.30545469  1
  Se  Se202  1  0.91715867  0.58674467  0.79883967  1
  Se  Se203  1  0.91440699  0.90790795  0.31367999  1
  Se  Se204  1  0.91620496  0.92069115  0.79788278  1
  Se  Se205  1  0.09091198  0.09274600  0.31498687  1
  Se  Se206  1  0.08533625  0.09188361  0.80158674  1
  Se  Se207  1  0.07703931  0.41374435  0.30445046  1
  Se  Se208  1  0.08175621  0.41470274  0.79671796  1
  Se  Se209  1  0.08467804  0.74898935  0.30086311  1
  Se  Se210  1  0.07911188  0.74813931  0.79890046  1
  Se  Se211  1  0.41714004  0.07916581  0.30186949  1
  Se  Se212  1  0.41882593  0.07808804  0.79975697  1
  Se  Se213  1  0.41205003  0.41099540  0.29578305  1
  Se  Se214  1  0.42136444  0.41844140  0.80960013  1
  Se  Se215  1  0.41941799  0.75570514  0.31136712  1
  Se  Se216  1  0.41661261  0.74760352  0.80772044  1
  Se  Se217  1  0.75745522  0.07970963  0.29629644  1
  Se  Se218  1  0.74855265  0.09275826  0.81203396  1
  Se  Se219  1  0.75713892  0.41500238  0.31327019  1
  Se  Se220  1  0.75294439  0.42179779  0.80859272  1
  Se  Se221  1  0.74755035  0.74467184  0.30908132  1
  Se  Se222  1  0.75742948  0.76117308  0.80710291  1
  Se  Se223  1  0.24951156  0.08013365  0.20096759  1
  Se  Se224  1  0.25052797  0.07708846  0.70777132  1
  Se  Se225  1  0.24712788  0.41555256  0.19950701  1
  Se  Se226  1  0.24204404  0.42376049  0.68338770  1
  Se  Se227  1  0.24435563  0.75475911  0.18542021  1
  Se  Se228  1  0.25464057  0.74408622  0.69698897  1
  Se  Se229  1  0.58808776  0.08097100  0.19069923  1
  Se  Se230  1  0.58022431  0.09185098  0.68668975  1
  Se  Se231  1  0.57757779  0.42146156  0.18566897  1
  Se  Se232  1  0.58575751  0.42020113  0.70748409  1
  Se  Se233  1  0.58435392  0.74842975  0.20120929  1
  Se  Se234  1  0.58355279  0.76095949  0.69137903  1
  Se  Se235  1  0.91314514  0.08913290  0.19221305  1
  Se  Se236  1  0.90442921  0.08000029  0.70066138  1
  Se  Se237  1  0.91375928  0.41179074  0.19471303  1
  Se  Se238  1  0.92088895  0.41231338  0.69563944  1
  Se  Se239  1  0.92035252  0.74660041  0.20153814  1
  Se  Se240  1  0.91817228  0.74556535  0.69113120  1
  Se  Se241  1  0.07910624  0.25240672  0.20161678  1
  Se  Se242  1  0.09814981  0.23100763  0.70176618  1
  Se  Se243  1  0.07932632  0.58318754  0.19665407  1
  Se  Se244  1  0.07802553  0.58569507  0.69312191  1
  Se  Se245  1  0.08714852  0.91223271  0.18877718  1
  Se  Se246  1  0.08125845  0.91114285  0.69459856  1
  Se  Se247  1  0.41909762  0.24619898  0.19583563  1
  Se  Se248  1  0.42382165  0.24277413  0.68747849  1
  Se  Se249  1  0.42078801  0.57942608  0.18629061  1
  Se  Se250  1  0.42824978  0.58055349  0.70540658  1
  Se  Se251  1  0.41722803  0.91677568  0.19601439  1
  Se  Se252  1  0.41205865  0.91748508  0.69916330  1
  Se  Se253  1  0.75230899  0.24493620  0.18294992  1
  Se  Se254  1  0.74644285  0.25763156  0.69827292  1
  Se  Se255  1  0.75124340  0.57921037  0.19998646  1
  Se  Se256  1  0.76002803  0.58022531  0.68803726  1
  Se  Se257  1  0.75276278  0.91417890  0.20387051  1
  Se  Se258  1  0.75207774  0.90394788  0.68045294  1
