# generated using pymatgen
data_In86Cu29Se144
_symmetry_space_group_name_H-M   'P 1'
_cell_length_a   17.57537731
_cell_length_b   17.57671650
_cell_length_c   23.43330829
_cell_angle_alpha   90.00627223
_cell_angle_beta   89.98241189
_cell_angle_gamma   89.98558454
_symmetry_Int_Tables_number   1
_chemical_formula_structural   In86Cu29Se144
_chemical_formula_sum   'In86 Cu29 Se144'
_cell_volume   7238.95662773
_cell_formula_units_Z   1
loop_
 _symmetry_equiv_pos_site_id
 _symmetry_equiv_pos_as_xyz
  1  'x, y, z'
loop_
 _atom_site_type_symbol
 _atom_site_label
 _atom_site_symmetry_multiplicity
 _atom_site_fract_x
 _atom_site_fract_y
 _atom_site_fract_z
 _atom_site_occupancy
  In  In0  1  -0.00253491  0.16434635  0.12712124  1
  In  In1  1  0.00089604  0.16301775  0.62544779  1
  In  In2  1  -0.02017321  0.50701913  0.14369918  1
  In  In3  1  0.00164114  0.48643821  0.62478041  1
  In  In4  1  0.00199867  0.83469153  0.12253431  1
  In  In5  1  0.00565414  0.84190263  0.61760345  1
  In  In6  1  0.30259037  0.13111772  0.08847691  1
  In  In7  1  0.33295263  0.17536152  0.62480325  1
  In  In8  1  0.34174564  0.49953797  0.12549389  1
  In  In9  1  0.32180759  0.48750267  0.61680079  1
  In  In10  1  0.33753204  0.85405602  0.11534466  1
  In  In11  1  0.32022820  0.84558862  0.62423815  1
  In  In12  1  0.66822409  0.16681192  0.11282913  1
  In  In13  1  0.67755581  0.16352621  0.63119627  1
  In  In14  1  0.67423137  0.48575681  0.12169371  1
  In  In15  1  0.66263227  0.50518840  0.63130008  1
  In  In16  1  0.66759148  0.82717065  0.11848672  1
  In  In17  1  0.66889790  0.82107441  0.62974642  1
  In  In18  1  0.16463611  0.00435541  0.37346236  1
  In  In19  1  0.16227824  0.01630883  0.88381753  1
  In  In20  1  0.16044023  0.34100649  0.38302326  1
  In  In21  1  0.15689578  0.32457110  0.86912436  1
  In  In22  1  0.15733400  0.67524297  0.37906793  1
  In  In23  1  0.16907765  0.67147123  0.87970306  1
  In  In24  1  0.49339990  0.00681816  0.36728652  1
  In  In25  1  0.48749226  0.01218517  0.89312754  1
  In  In26  1  0.51061344  0.33610297  0.38153737  1
  In  In27  1  0.48784919  0.31278011  0.85213840  1
  In  In28  1  0.48682963  0.66730057  0.37615632  1
  In  In29  1  0.51036012  0.66770718  0.87628271  1
  In  In30  1  0.84268565  -0.01012960  0.38221669  1
  In  In31  1  0.84558910  -0.00620870  0.88056541  1
  In  In32  1  0.83329599  0.32521480  0.37496000  1
  In  In33  1  0.83544992  0.33280043  0.87322831  1
  In  In34  1  0.85481885  0.66755682  0.36992413  1
  In  In35  1  0.82458236  0.68069241  0.88625017  1
  In  In36  1  0.00345094  0.16629869  0.37358685  1
  In  In37  1  0.00131269  0.16671756  0.87627822  1
  In  In38  1  0.00540126  0.51181246  0.36352463  1
  In  In39  1  0.00461591  0.48606198  0.87272000  1
  In  In40  1  0.00085194  0.83651450  0.37057512  1
  In  In41  1  -0.01061878  0.84182208  0.88482291  1
  In  In42  1  0.32247229  0.14757632  0.36908318  1
  In  In43  1  0.32654802  0.17780331  0.88619312  1
  In  In44  1  0.33518203  0.50196364  0.38633365  1
  In  In45  1  0.34321545  0.49339168  0.87441029  1
  In  In46  1  0.31986795  0.83998233  0.37583639  1
  In  In47  1  0.31953252  0.85361244  0.89956896  1
  In  In48  1  0.66809349  0.17879759  0.38082160  1
  In  In49  1  0.65945346  0.18090000  0.87756151  1
  In  In50  1  0.66930314  0.48759643  0.38060671  1
  In  In51  1  0.66965887  0.50625030  0.86685903  1
  In  In52  1  0.67257055  0.84775224  0.37677392  1
  In  In53  1  0.67085155  0.83103011  0.88090348  1
  In  In54  1  0.16024965  -0.00774064  0.12467974  1
  In  In55  1  0.16041797  -0.01288148  0.61283836  1
  In  In56  1  0.16108738  0.31151108  0.11657514  1
  In  In57  1  0.16489017  0.32742260  0.62333551  1
  In  In58  1  0.14141713  0.67174875  0.12532919  1
  In  In59  1  0.16865615  0.67123057  0.61641622  1
  In  In60  1  0.48298508  -0.01215101  0.10728445  1
  In  In61  1  0.49466474  0.01028617  0.62950756  1
  In  In62  1  0.49627182  0.32800269  0.11800571  1
  In  In63  1  0.48544718  0.33499880  0.63717646  1
  In  In64  1  0.48998633  0.67676489  0.12789366  1
  In  In65  1  0.51564243  0.66774850  0.63033052  1
  In  In66  1  0.84134811  0.01093004  0.11995402  1
  In  In67  1  0.84418224  0.01318880  0.61877662  1
  In  In68  1  0.84186889  0.34275540  0.11357561  1
  In  In69  1  0.85059993  0.32424174  0.63592318  1
  In  In70  1  0.84957407  0.66927780  0.11271871  1
  In  In71  1  0.82351349  0.66355528  0.62617762  1
  In  In72  1  0.32938119  0.00760278  0.75812359  1
  In  In73  1  0.49571589  0.16840749  0.50535954  1
  In  In74  1  0.34255935  0.66578238  0.75871788  1
  In  In75  1  0.67434113  0.33201183  0.25309996  1
  In  In76  1  0.83966388  0.50045570  0.50147249  1
  In  In77  1  0.67113235  0.66561500  0.23907344  1
  In  In78  1  0.50580946  0.49656658  -0.00135667  1
  In  In79  1  0.66950245  -0.00041208  0.75455208  1
  In  In80  1  0.49920733  0.83233847  0.50115720  1
  In  In81  1  0.66991254  0.00423267  0.24966685  1
  In  In82  1  0.16032023  0.49837832  -0.00014993  1
  In  In83  1  0.31966159  0.67924937  0.25706315  1
  In  In84  1  0.32878261  0.32804276  0.24386251  1
  In  In85  1  -0.00437172  0.66102752  0.75041739  1
  Cu  Cu86  1  0.83991773  0.16634710  0.25026350  1
  Cu  Cu87  1  0.16166789  0.49277499  0.25092595  1
  Cu  Cu88  1  0.15872539  0.83773244  0.74666787  1
  Cu  Cu89  1  0.67474661  -0.00120096  -0.00382975  1
  Cu  Cu90  1  0.16273914  0.16566848  0.74935720  1
  Cu  Cu91  1  0.33791423  0.66069973  0.50194026  1
  Cu  Cu92  1  0.67155027  0.00107584  0.50445408  1
  Cu  Cu93  1  0.16421277  0.15912620  0.24269939  1
  Cu  Cu94  1  0.67108385  0.66626273  0.50470417  1
  Cu  Cu95  1  0.16078144  0.83762847  0.24940938  1
  Cu  Cu96  1  0.32729330  0.67328662  0.00591298  1
  Cu  Cu97  1  0.50019894  0.49800562  0.74918955  1
  Cu  Cu98  1  0.83423089  0.83362086  0.75736768  1
  Cu  Cu99  1  0.00141717  0.00356739  0.00313603  1
  Cu  Cu100  1  0.82949903  0.49969852  0.75112710  1
  Cu  Cu101  1  0.83921772  0.16670685  0.75281421  1
  Cu  Cu102  1  0.00281392  0.32825562  0.50214212  1
  Cu  Cu103  1  0.00281821  0.32656476  -0.00104914  1
  Cu  Cu104  1  0.50046810  0.83496709  0.75935666  1
  Cu  Cu105  1  -0.00077734  0.00303675  0.49510409  1
  Cu  Cu106  1  0.50246066  0.50006371  0.25718748  1
  Cu  Cu107  1  0.66856937  0.33821820  0.50716892  1
  Cu  Cu108  1  0.66862709  0.66506513  -0.00000736  1
  Cu  Cu109  1  0.33214059  0.33058959  0.50253973  1
  Cu  Cu110  1  0.17127348  0.48801812  0.74602585  1
  Cu  Cu111  1  0.49287047  0.16074806  0.24082762  1
  Cu  Cu112  1  0.83884892  0.83197565  0.24713454  1
  Cu  Cu113  1  0.67083256  0.33731306  -0.01053833  1
  Cu  Cu114  1  0.00726074  0.67222104  0.49396367  1
  Se  Se115  1  0.08408686  0.08635181  0.05747518  1
  Se  Se116  1  0.08149605  0.08330941  0.55272366  1
  Se  Se117  1  0.07287464  0.41210003  0.06337126  1
  Se  Se118  1  0.08610501  0.41503601  0.55254146  1
  Se  Se119  1  0.07296229  0.74818463  0.04854818  1
  Se  Se120  1  0.08766362  0.75635989  0.55022710  1
  Se  Se121  1  0.43951431  0.10721499  0.05349471  1
  Se  Se122  1  0.40207749  0.07165595  0.55539510  1
  Se  Se123  1  0.40384669  0.40896285  0.04999276  1
  Se  Se124  1  0.41996699  0.41094896  0.55519750  1
  Se  Se125  1  0.41637732  0.75492151  0.05430138  1
  Se  Se126  1  0.41110546  0.74369101  0.56634164  1
  Se  Se127  1  0.75625937  0.08571645  0.04813055  1
  Se  Se128  1  0.75214174  0.09079637  0.55303918  1
  Se  Se129  1  0.75374810  0.41961412  0.04396297  1
  Se  Se130  1  0.75392421  0.41355850  0.56721268  1
  Se  Se131  1  0.75432515  0.74862225  0.05119555  1
  Se  Se132  1  0.75365661  0.75288435  0.55413529  1
  Se  Se133  1  0.25359249  0.25563011  0.04407598  1
  Se  Se134  1  0.24756634  0.24567860  0.55198447  1
  Se  Se135  1  0.25153367  0.58835711  0.06446425  1
  Se  Se136  1  0.24741071  0.58102056  0.55160830  1
  Se  Se137  1  0.24196020  0.91928180  0.04914089  1
  Se  Se138  1  0.24862762  0.91097753  0.54444013  1
  Se  Se139  1  0.58971895  0.26047794  0.04992761  1
  Se  Se140  1  0.58801013  0.25497455  0.56535671  1
  Se  Se141  1  0.58771043  0.59003349  0.06497269  1
  Se  Se142  1  0.58575200  0.58405488  0.55547834  1
  Se  Se143  1  0.59128635  0.91767914  0.05206606  1
  Se  Se144  1  0.58852528  0.92421483  0.56493368  1
  Se  Se145  1  0.91698837  0.24437312  0.05311720  1
  Se  Se146  1  0.91700986  0.24792635  0.55577646  1
  Se  Se147  1  0.91809215  0.56434706  0.05460980  1
  Se  Se148  1  0.93004658  0.59403693  0.56060398  1
  Se  Se149  1  0.91664169  0.91870544  0.05415607  1
  Se  Se150  1  0.91595930  0.91990404  0.55110114  1
  Se  Se151  1  0.08548811  0.24578073  0.44656615  1
  Se  Se152  1  0.08903317  0.24441776  0.94736459  1
  Se  Se153  1  0.08328921  0.57894369  0.44369850  1
  Se  Se154  1  0.07209730  0.58924616  0.93965760  1
  Se  Se155  1  0.08168510  0.91802762  0.44129346  1
  Se  Se156  1  0.08343086  0.92200238  0.94628535  1
  Se  Se157  1  0.40866322  0.25228210  0.43628029  1
  Se  Se158  1  0.42872682  0.25503600  0.94178652  1
  Se  Se159  1  0.42653542  0.57977216  0.45217867  1
  Se  Se160  1  0.40865299  0.59306275  0.94541574  1
  Se  Se161  1  0.41319792  0.92481200  0.44183451  1
  Se  Se162  1  0.43058073  0.90754958  0.95665565  1
  Se  Se163  1  0.75057437  0.25599958  0.45170960  1
  Se  Se164  1  0.75691733  0.24837337  0.94444628  1
  Se  Se165  1  0.75069843  0.59107399  0.43936435  1
  Se  Se166  1  0.74655814  0.58006717  0.94432929  1
  Se  Se167  1  0.75348533  0.91500779  0.45280968  1
  Se  Se168  1  0.75830516  0.91173409  0.94681788  1
  Se  Se169  1  0.24551778  0.08281256  0.44671433  1
  Se  Se170  1  0.27025780  0.06920373  0.94739834  1
  Se  Se171  1  0.25029263  0.41751656  0.45033545  1
  Se  Se172  1  0.24979435  0.41215030  0.93696749  1
  Se  Se173  1  0.25742189  0.74228263  0.44434951  1
  Se  Se174  1  0.23927713  0.75318110  0.95474370  1
  Se  Se175  1  0.58805099  0.07654642  0.44260574  1
  Se  Se176  1  0.59152155  0.08732686  0.94754135  1
  Se  Se177  1  0.58322854  0.41981841  0.45487024  1
  Se  Se178  1  0.58378740  0.41063989  0.92946484  1
  Se  Se179  1  0.59182544  0.74392368  0.43956468  1
  Se  Se180  1  0.58378895  0.74953873  0.94944847  1
  Se  Se181  1  0.91495146  0.08869768  0.44404574  1
  Se  Se182  1  0.91876158  0.08646706  0.94765344  1
  Se  Se183  1  0.92643778  0.41192660  0.43946424  1
  Se  Se184  1  0.92129511  0.41167378  0.94490394  1
  Se  Se185  1  0.91962614  0.75388737  0.44380924  1
  Se  Se186  1  0.92453065  0.74420639  0.95026358  1
  Se  Se187  1  0.23830629  0.24360195  0.30695428  1
  Se  Se188  1  0.24886483  0.24386663  0.80513084  1
  Se  Se189  1  0.24272291  0.57279033  0.31153275  1
  Se  Se190  1  0.24153191  0.57326487  0.80926298  1
  Se  Se191  1  0.24645808  0.92012180  0.30156628  1
  Se  Se192  1  0.23991286  0.91102141  0.81213185  1
  Se  Se193  1  0.57109946  0.23982287  0.30385308  1
  Se  Se194  1  0.59799334  0.25487093  0.79478093  1
  Se  Se195  1  0.58456375  0.58100717  0.31264169  1
  Se  Se196  1  0.57978207  0.58689970  0.80015538  1
  Se  Se197  1  0.57646583  0.91057359  0.30529538  1
  Se  Se198  1  0.57464147  0.92042348  0.81888922  1
  Se  Se199  1  0.91959734  0.25161118  0.30474158  1
  Se  Se200  1  0.92269551  0.25148735  0.80533677  1
  Se  Se201  1  0.91483006  0.58220629  0.29494684  1
  Se  Se202  1  0.90673766  0.57848057  0.81521285  1
  Se  Se203  1  0.91562421  0.91971727  0.30208041  1
  Se  Se204  1  0.92193718  0.91739476  0.80377680  1
  Se  Se205  1  0.08043835  0.08150419  0.30154963  1
  Se  Se206  1  0.08236943  0.08197975  0.80497808  1
  Se  Se207  1  0.08074785  0.40918411  0.30516837  1
  Se  Se208  1  0.08142283  0.41047730  0.79742357  1
  Se  Se209  1  0.08179388  0.74867976  0.30193918  1
  Se  Se210  1  0.08441267  0.75446098  0.80853252  1
  Se  Se211  1  0.40941526  0.07947143  0.29481070  1
  Se  Se212  1  0.42290026  0.09520120  0.81299230  1
  Se  Se213  1  0.41899912  0.41691678  0.31127789  1
  Se  Se214  1  0.41060883  0.41579616  0.79619723  1
  Se  Se215  1  0.42172266  0.76592235  0.30784739  1
  Se  Se216  1  0.41423494  0.76524384  0.82244866  1
  Se  Se217  1  0.75596332  0.09301909  0.31388811  1
  Se  Se218  1  0.75899825  0.08786454  0.81488398  1
  Se  Se219  1  0.76419393  0.42870088  0.30621757  1
  Se  Se220  1  0.74898315  0.41330246  0.80363536  1
  Se  Se221  1  0.75384318  0.75668864  0.30734412  1
  Se  Se222  1  0.74802578  0.75035794  0.80637507  1
  Se  Se223  1  0.25021441  0.08328664  0.18532985  1
  Se  Se224  1  0.24041308  0.08340464  0.68787406  1
  Se  Se225  1  0.23991093  0.42136721  0.18506849  1
  Se  Se226  1  0.25430433  0.40544566  0.69330440  1
  Se  Se227  1  0.23984580  0.75996675  0.18476930  1
  Se  Se228  1  0.24576063  0.75271046  0.69696061  1
  Se  Se229  1  0.58189894  0.08677456  0.18424909  1
  Se  Se230  1  0.57615806  0.09272776  0.69886179  1
  Se  Se231  1  0.57447324  0.41846526  0.19350403  1
  Se  Se232  1  0.58389953  0.41441851  0.69625168  1
  Se  Se233  1  0.57343459  0.76325205  0.19570000  1
  Se  Se234  1  0.58365329  0.75319028  0.70517735  1
  Se  Se235  1  0.91958788  0.07828540  0.19907019  1
  Se  Se236  1  0.91956313  0.08119117  0.69844713  1
  Se  Se237  1  0.91801918  0.39599703  0.19844761  1
  Se  Se238  1  0.92099146  0.42048113  0.70241911  1
  Se  Se239  1  0.91793618  0.74828103  0.19132843  1
  Se  Se240  1  0.91170826  0.75683107  0.69007794  1
  Se  Se241  1  0.08129024  0.24863523  0.19635605  1
  Se  Se242  1  0.08044471  0.24972574  0.69449879  1
  Se  Se243  1  0.08134307  0.58300722  0.20148393  1
  Se  Se244  1  0.09437415  0.57790082  0.68996730  1
  Se  Se245  1  0.07425430  0.91931905  0.19744096  1
  Se  Se246  1  0.07987035  0.92203093  0.69291214  1
  Se  Se247  1  0.41224911  0.23887310  0.18147582  1
  Se  Se248  1  0.41659842  0.23738598  0.70087897  1
  Se  Se249  1  0.41869940  0.58215786  0.20201774  1
  Se  Se250  1  0.41767927  0.57732963  0.68754733  1
  Se  Se251  1  0.41725528  0.92220647  0.19179433  1
  Se  Se252  1  0.42016220  0.91029535  0.69680231  1
  Se  Se253  1  0.75653567  0.24190837  0.18878722  1
  Se  Se254  1  0.75486202  0.24952191  0.70008623  1
  Se  Se255  1  0.76049533  0.57400454  0.18456767  1
  Se  Se256  1  0.74706514  0.58707572  0.70047276  1
  Se  Se257  1  0.75628429  0.91155142  0.18836286  1
  Se  Se258  1  0.75905433  0.91380763  0.69068743  1
