# generated using pymatgen
data_In86Cu29Se144
_symmetry_space_group_name_H-M   'P 1'
_cell_length_a   17.58340810
_cell_length_b   17.58463765
_cell_length_c   23.44218283
_cell_angle_alpha   90.00272070
_cell_angle_beta   89.97641638
_cell_angle_gamma   90.00042356
_symmetry_Int_Tables_number   1
_chemical_formula_structural   In86Cu29Se144
_chemical_formula_sum   'In86 Cu29 Se144'
_cell_volume   7248.27214514
_cell_formula_units_Z   1
loop_
 _symmetry_equiv_pos_site_id
 _symmetry_equiv_pos_as_xyz
  1  'x, y, z'
loop_
 _atom_site_type_symbol
 _atom_site_label
 _atom_site_symmetry_multiplicity
 _atom_site_fract_x
 _atom_site_fract_y
 _atom_site_fract_z
 _atom_site_occupancy
  In  In0  1  -0.01345003  0.15554721  0.10914989  1
  In  In1  1  -0.00358170  0.15643844  0.62689768  1
  In  In2  1  -0.00102089  0.51464525  0.12690971  1
  In  In3  1  0.01233466  0.50400840  0.62018606  1
  In  In4  1  0.00407271  0.82882089  0.12437270  1
  In  In5  1  -0.01397778  0.83563710  0.62896084  1
  In  In6  1  0.33612795  0.16379247  0.12489527  1
  In  In7  1  0.35350031  0.15070421  0.63542713  1
  In  In8  1  0.31739813  0.49905144  0.12929427  1
  In  In9  1  0.33478508  0.49610990  0.63011115  1
  In  In10  1  0.33864286  0.84963907  0.12336353  1
  In  In11  1  0.32415984  0.83816284  0.63436598  1
  In  In12  1  0.66240734  0.16594629  0.11777961  1
  In  In13  1  0.66247395  0.17624284  0.63702499  1
  In  In14  1  0.67748158  0.49651365  0.12330515  1
  In  In15  1  0.65781462  0.50192060  0.62662182  1
  In  In16  1  0.67125621  0.83635172  0.13210696  1
  In  In17  1  0.67106888  0.83280816  0.63004479  1
  In  In18  1  0.17060194  0.00085382  0.36434034  1
  In  In19  1  0.17343239  -0.00234726  0.88056615  1
  In  In20  1  0.18380162  0.32882085  0.37545712  1
  In  In21  1  0.16561783  0.31758343  0.88077935  1
  In  In22  1  0.15275118  0.67228809  0.37858989  1
  In  In23  1  0.16991140  0.68486642  0.85700454  1
  In  In24  1  0.50339697  0.00339384  0.37703095  1
  In  In25  1  0.50915933  0.00898785  0.86882598  1
  In  In26  1  0.49264970  0.33343910  0.38039284  1
  In  In27  1  0.48727772  0.32402386  0.86828798  1
  In  In28  1  0.50273393  0.65293318  0.38000777  1
  In  In29  1  0.50391928  0.67416121  0.86122320  1
  In  In30  1  0.81889888  -0.01193762  0.35985107  1
  In  In31  1  0.82921760  0.01373051  0.87209298  1
  In  In32  1  0.83009758  0.32233385  0.37326886  1
  In  In33  1  0.83217518  0.33736390  0.88014757  1
  In  In34  1  0.84200225  0.67675566  0.37035337  1
  In  In35  1  0.82494284  0.65864782  0.86344193  1
  In  In36  1  0.00417280  0.16064220  0.36366015  1
  In  In37  1  -0.00134693  0.17995336  0.89446381  1
  In  In38  1  -0.00417105  0.51594602  0.37679878  1
  In  In39  1  -0.01447321  0.49806018  0.88160336  1
  In  In40  1  -0.00847637  0.82534794  0.36891709  1
  In  In41  1  0.01173069  0.83822338  0.87012722  1
  In  In42  1  0.33921899  0.16594091  0.37129473  1
  In  In43  1  0.33424116  0.16608711  0.87605741  1
  In  In44  1  0.34478766  0.49164430  0.38645590  1
  In  In45  1  0.33404598  0.50498001  0.86586115  1
  In  In46  1  0.32471060  0.83351077  0.37403211  1
  In  In47  1  0.32504427  0.83676715  0.86080742  1
  In  In48  1  0.65931463  0.12629474  0.37980447  1
  In  In49  1  0.66448545  0.16462155  0.87371322  1
  In  In50  1  0.65084001  0.49559429  0.37732396  1
  In  In51  1  0.67543492  0.50713722  0.86687209  1
  In  In52  1  0.68138822  0.84569603  0.37466535  1
  In  In53  1  0.67537653  0.83630711  0.85603436  1
  In  In54  1  0.16758836  0.00007911  0.12154207  1
  In  In55  1  0.17357815  0.00952238  0.62701379  1
  In  In56  1  0.18290245  0.33324437  0.12822129  1
  In  In57  1  0.16552799  0.34565401  0.62528325  1
  In  In58  1  0.15356363  0.66418905  0.12306104  1
  In  In59  1  0.17826343  0.66099866  0.63941620  1
  In  In60  1  0.49150729  0.01000984  0.13452666  1
  In  In61  1  0.49603555  0.00990884  0.62272729  1
  In  In62  1  0.50080434  0.31574561  0.12515440  1
  In  In63  1  0.49709765  0.33237149  0.62867527  1
  In  In64  1  0.50222842  0.68336913  0.12640696  1
  In  In65  1  0.50879117  0.65515063  0.62842547  1
  In  In66  1  0.82596890  0.01638497  0.13567480  1
  In  In67  1  0.83309616  -0.00913601  0.62819700  1
  In  In68  1  0.83318764  0.33196362  0.10874208  1
  In  In69  1  0.81870025  0.31976522  0.63246818  1
  In  In70  1  0.83766810  0.66244914  0.12596573  1
  In  In71  1  0.82114084  0.69116090  0.64813730  1
  In  In72  1  0.16654126  0.83302713  0.50861973  1
  In  In73  1  0.83852180  0.83756391  -0.00665499  1
  In  In74  1  0.33275953  0.66525066  0.25538920  1
  In  In75  1  0.50254492  0.83130040  0.50622616  1
  In  In76  1  0.00508776  0.33384051  0.24129235  1
  In  In77  1  0.17444878  0.17133250  0.49341875  1
  In  In78  1  0.15949070  0.49587726  -0.00204695  1
  In  In79  1  0.00065569  0.33601605  0.76074764  1
  In  In80  1  0.82905388  0.16209393  0.49896079  1
  In  In81  1  0.50249412  0.84014484  -0.00892175  1
  In  In82  1  0.50363336  0.49795667  -0.00251133  1
  In  In83  1  0.83110286  0.50727707  0.50592695  1
  In  In84  1  -0.00093313  0.00147537  0.75667697  1
  In  In85  1  0.66429159  0.33060292  0.24891949  1
  Cu  Cu86  1  0.49595752  0.49873629  0.25696914  1
  Cu  Cu87  1  0.49582488  0.83464681  0.74136619  1
  Cu  Cu88  1  0.65387290  0.32612005  0.50228690  1
  Cu  Cu89  1  0.67514684  0.66262357  -0.00693196  1
  Cu  Cu90  1  0.50281271  0.49605639  0.74804421  1
  Cu  Cu91  1  0.33270034  0.33406123  0.50606606  1
  Cu  Cu92  1  0.16741548  0.83388897  0.24670093  1
  Cu  Cu93  1  0.00028024  0.66687214  -0.00107813  1
  Cu  Cu94  1  -0.00337306  -0.00728621  0.49546048  1
  Cu  Cu95  1  0.83462338  0.49006624  0.74790335  1
  Cu  Cu96  1  -0.00310972  0.67029985  0.50064333  1
  Cu  Cu97  1  0.50044110  0.16557732  0.25165538  1
  Cu  Cu98  1  0.17136272  0.15733247  0.24560284  1
  Cu  Cu99  1  0.32600526  0.67455099  -0.01359048  1
  Cu  Cu100  1  0.82910319  0.51037016  0.24849231  1
  Cu  Cu101  1  0.66706105  0.33040274  -0.00510910  1
  Cu  Cu102  1  0.49892571  0.16616988  0.75138428  1
  Cu  Cu103  1  0.33824390  0.32798961  0.00102992  1
  Cu  Cu104  1  0.16884120  0.16872555  0.75453251  1
  Cu  Cu105  1  0.83647232  0.83406867  0.24610830  1
  Cu  Cu106  1  0.00276829  -0.00322016  -0.00185265  1
  Cu  Cu107  1  0.67246840  0.66914699  0.50695114  1
  Cu  Cu108  1  -0.00108543  0.33846818  0.50172268  1
  Cu  Cu109  1  0.33243298  0.65595736  0.51077483  1
  Cu  Cu110  1  0.66153317  0.00714241  0.00092414  1
  Cu  Cu111  1  0.51208537  0.83656742  0.25314293  1
  Cu  Cu112  1  0.33201994  0.00683694  0.00105807  1
  Cu  Cu113  1  0.17202385  0.50102455  0.74999726  1
  Cu  Cu114  1  0.16602518  0.49862856  0.25274212  1
  Se  Se115  1  0.08737236  0.08144505  0.04985985  1
  Se  Se116  1  0.07787032  0.07740109  0.55128197  1
  Se  Se117  1  0.07917148  0.41235911  0.06785255  1
  Se  Se118  1  0.08781306  0.41961003  0.54870014  1
  Se  Se119  1  0.08457842  0.75056454  0.05009431  1
  Se  Se120  1  0.07795150  0.74228319  0.56674563  1
  Se  Se121  1  0.42161041  0.08371246  0.05436363  1
  Se  Se122  1  0.41595195  0.08731200  0.54912565  1
  Se  Se123  1  0.41004223  0.41541711  0.06179513  1
  Se  Se124  1  0.41768047  0.41752912  0.55818299  1
  Se  Se125  1  0.40895806  0.74786620  0.05071250  1
  Se  Se126  1  0.40862063  0.74400453  0.56672340  1
  Se  Se127  1  0.75235359  0.08337093  0.05337335  1
  Se  Se128  1  0.74345430  0.08194020  0.56633123  1
  Se  Se129  1  0.74721524  0.41961562  0.04601777  1
  Se  Se130  1  0.74323611  0.40464273  0.55684722  1
  Se  Se131  1  0.74660003  0.74904500  0.05525235  1
  Se  Se132  1  0.75519023  0.75099029  0.55943276  1
  Se  Se133  1  0.25351675  0.24794770  0.05518484  1
  Se  Se134  1  0.25504501  0.25075971  0.56645370  1
  Se  Se135  1  0.25529572  0.59242630  0.05256393  1
  Se  Se136  1  0.24488789  0.57729552  0.56257979  1
  Se  Se137  1  0.25182736  0.91695640  0.05094674  1
  Se  Se138  1  0.26104500  0.92971735  0.55565603  1
  Se  Se139  1  0.58134687  0.24985078  0.04803458  1
  Se  Se140  1  0.57784470  0.24407574  0.56101267  1
  Se  Se141  1  0.58845463  0.59488687  0.05731499  1
  Se  Se142  1  0.58516232  0.58162359  0.55036001  1
  Se  Se143  1  0.58623424  0.92258185  0.06143445  1
  Se  Se144  1  0.59278113  0.92415033  0.56021286  1
  Se  Se145  1  0.91842123  0.25156194  0.04404047  1
  Se  Se146  1  0.92150351  0.25584906  0.55953954  1
  Se  Se147  1  0.91594309  0.58415961  0.05114186  1
  Se  Se148  1  0.91577537  0.59775205  0.56684882  1
  Se  Se149  1  0.91803759  0.92465488  0.06143767  1
  Se  Se150  1  0.91398303  0.91553288  0.55305014  1
  Se  Se151  1  0.07292966  0.25715796  0.43760020  1
  Se  Se152  1  0.09076012  0.25318413  0.96034167  1
  Se  Se153  1  0.08133624  0.58495373  0.45103416  1
  Se  Se154  1  0.08348511  0.59330572  0.93477889  1
  Se  Se155  1  0.08325805  0.91689139  0.43760044  1
  Se  Se156  1  0.08625026  0.91316973  0.94662875  1
  Se  Se157  1  0.40859078  0.24959086  0.44721426  1
  Se  Se158  1  0.42037777  0.24546757  0.94726564  1
  Se  Se159  1  0.42028564  0.58152047  0.45425630  1
  Se  Se160  1  0.41635153  0.59405940  0.93763555  1
  Se  Se161  1  0.41049173  0.91459033  0.44251187  1
  Se  Se162  1  0.40708241  0.92669687  0.93517451  1
  Se  Se163  1  0.73314812  0.24974558  0.43921739  1
  Se  Se164  1  0.74990958  0.24548145  0.94304936  1
  Se  Se165  1  0.74428111  0.58955378  0.43801645  1
  Se  Se166  1  0.75800990  0.57804093  0.94296824  1
  Se  Se167  1  0.75441233  0.92845808  0.44692130  1
  Se  Se168  1  0.73629558  0.92163142  0.94039540  1
  Se  Se169  1  0.25757748  0.07125885  0.43985219  1
  Se  Se170  1  0.24778241  0.08921813  0.94740892  1
  Se  Se171  1  0.24914966  0.41530702  0.45026328  1
  Se  Se172  1  0.26248323  0.41461466  0.94199142  1
  Se  Se173  1  0.25729182  0.73825333  0.44813999  1
  Se  Se174  1  0.24474925  0.75844661  0.93553488  1
  Se  Se175  1  0.56369966  0.08875794  0.45620445  1
  Se  Se176  1  0.57769524  0.08793176  0.94694340  1
  Se  Se177  1  0.57603731  0.41586407  0.45029827  1
  Se  Se178  1  0.58845772  0.41144437  0.93310728  1
  Se  Se179  1  0.59282985  0.74592794  0.44144733  1
  Se  Se180  1  0.59626215  0.74670625  0.93583882  1
  Se  Se181  1  0.92276408  0.07905808  0.43646218  1
  Se  Se182  1  0.91553175  0.07896854  0.94734030  1
  Se  Se183  1  0.91523454  0.41268134  0.44050600  1
  Se  Se184  1  0.92904724  0.40036476  0.94993045  1
  Se  Se185  1  0.91476626  0.75434844  0.44774262  1
  Se  Se186  1  0.92158850  0.74244551  0.93380717  1
  Se  Se187  1  0.25018602  0.24300716  0.30154456  1
  Se  Se188  1  0.25264175  0.25308629  0.80636278  1
  Se  Se189  1  0.24435490  0.57699507  0.31759921  1
  Se  Se190  1  0.25447038  0.59081973  0.79878217  1
  Se  Se191  1  0.25436472  0.91413501  0.29876784  1
  Se  Se192  1  0.23590669  0.92114653  0.79934779  1
  Se  Se193  1  0.58116703  0.24264359  0.31481857  1
  Se  Se194  1  0.58235611  0.25017026  0.80434853  1
  Se  Se195  1  0.58404621  0.58302622  0.30287763  1
  Se  Se196  1  0.58585639  0.58330850  0.79927031  1
  Se  Se197  1  0.58915513  0.92266931  0.30874482  1
  Se  Se198  1  0.57710352  0.91505512  0.79935981  1
  Se  Se199  1  0.91017732  0.24466038  0.29940608  1
  Se  Se200  1  0.91232408  0.23914084  0.81245365  1
  Se  Se201  1  0.91840679  0.58824076  0.30072538  1
  Se  Se202  1  0.91651780  0.57329510  0.80229383  1
  Se  Se203  1  0.92108203  0.91705369  0.29967868  1
  Se  Se204  1  0.90440853  0.90983564  0.81097416  1
  Se  Se205  1  0.08283848  0.07628377  0.29556630  1
  Se  Se206  1  0.08350588  0.09711218  0.81707697  1
  Se  Se207  1  0.08490464  0.41928944  0.31409491  1
  Se  Se208  1  0.09533691  0.42563870  0.81714518  1
  Se  Se209  1  0.08429228  0.75016775  0.30088506  1
  Se  Se210  1  0.06281382  0.74373294  0.79449014  1
  Se  Se211  1  0.41847048  0.07856771  0.30375376  1
  Se  Se212  1  0.41356872  0.08326097  0.80445487  1
  Se  Se213  1  0.41291294  0.41376155  0.30684914  1
  Se  Se214  1  0.41497253  0.41727488  0.80124095  1
  Se  Se215  1  0.42905320  0.75538157  0.31230811  1
  Se  Se216  1  0.41339039  0.75222591  0.79728404  1
  Se  Se217  1  0.75943252  0.10005526  0.30404834  1
  Se  Se218  1  0.73009213  0.06910903  0.80400604  1
  Se  Se219  1  0.75595645  0.42496244  0.30968525  1
  Se  Se220  1  0.75205232  0.41068414  0.80419847  1
  Se  Se221  1  0.75215187  0.75461782  0.30419731  1
  Se  Se222  1  0.74877992  0.74223392  0.79364444  1
  Se  Se223  1  0.25653182  0.07537552  0.19221344  1
  Se  Se224  1  0.25134414  0.08506710  0.70089693  1
  Se  Se225  1  0.25315094  0.41458370  0.20546800  1
  Se  Se226  1  0.25130834  0.41165944  0.69972623  1
  Se  Se227  1  0.24939833  0.75176598  0.18725735  1
  Se  Se228  1  0.24251351  0.76038051  0.70361041  1
  Se  Se229  1  0.58776020  0.08854476  0.19514026  1
  Se  Se230  1  0.58037313  0.08142334  0.69721135  1
  Se  Se231  1  0.57311874  0.42298796  0.18910852  1
  Se  Se232  1  0.58730855  0.41144844  0.69651809  1
  Se  Se233  1  0.58952786  0.74941196  0.19915248  1
  Se  Se234  1  0.58249397  0.74885776  0.69372596  1
  Se  Se235  1  0.92961143  0.08436972  0.19455875  1
  Se  Se236  1  0.90445145  0.09126567  0.69827442  1
  Se  Se237  1  0.90478443  0.42438254  0.18896744  1
  Se  Se238  1  0.91748880  0.41526581  0.68549801  1
  Se  Se239  1  0.91851761  0.74848790  0.19278266  1
  Se  Se240  1  0.93659208  0.74141160  0.70585346  1
  Se  Se241  1  0.09215867  0.23868619  0.18543576  1
  Se  Se242  1  0.08558315  0.24406931  0.69230679  1
  Se  Se243  1  0.08484584  0.58456756  0.20080904  1
  Se  Se244  1  0.08194565  0.57878644  0.69909809  1
  Se  Se245  1  0.08550111  0.91540504  0.19095662  1
  Se  Se246  1  0.08635325  0.91877915  0.68875520  1
  Se  Se247  1  0.41532398  0.24788016  0.19833163  1
  Se  Se248  1  0.41427926  0.25298637  0.70080619  1
  Se  Se249  1  0.42259681  0.57900173  0.18941348  1
  Se  Se250  1  0.41814115  0.58199353  0.69697924  1
  Se  Se251  1  0.42137664  0.91340677  0.20080917  1
  Se  Se252  1  0.41539078  0.92421448  0.69258513  1
  Se  Se253  1  0.75595186  0.24997467  0.18519177  1
  Se  Se254  1  0.75172763  0.24455862  0.70946841  1
  Se  Se255  1  0.74356035  0.58870915  0.19359216  1
  Se  Se256  1  0.75273446  0.57439368  0.69300894  1
  Se  Se257  1  0.74981773  0.92196147  0.19968189  1
  Se  Se258  1  0.76111002  0.90588959  0.69893591  1
