# generated using pymatgen
data_In86Cu29Se144
_symmetry_space_group_name_H-M   'P 1'
_cell_length_a   17.58281227
_cell_length_b   17.58696336
_cell_length_c   23.44237650
_cell_angle_alpha   90.01422558
_cell_angle_beta   90.01222123
_cell_angle_gamma   90.02099229
_symmetry_Int_Tables_number   1
_chemical_formula_structural   In86Cu29Se144
_chemical_formula_sum   'In86 Cu29 Se144'
_cell_volume   7249.04477365
_cell_formula_units_Z   1
loop_
 _symmetry_equiv_pos_site_id
 _symmetry_equiv_pos_as_xyz
  1  'x, y, z'
loop_
 _atom_site_type_symbol
 _atom_site_label
 _atom_site_symmetry_multiplicity
 _atom_site_fract_x
 _atom_site_fract_y
 _atom_site_fract_z
 _atom_site_occupancy
  In  In0  1  0.01200082  0.17351217  0.12044123  1
  In  In1  1  0.00812379  0.15746987  0.61763266  1
  In  In2  1  0.00639651  0.48669629  0.13089182  1
  In  In3  1  0.00625795  0.51370772  0.62226808  1
  In  In4  1  -0.00007508  0.83074134  0.11544166  1
  In  In5  1  -0.00903407  0.82954000  0.62599723  1
  In  In6  1  0.33344993  0.16456734  0.12897117  1
  In  In7  1  0.33095772  0.16230697  0.61940050  1
  In  In8  1  0.33463679  0.49728683  0.11541206  1
  In  In9  1  0.33964212  0.50426217  0.62236222  1
  In  In10  1  0.34398424  0.83450164  0.11170558  1
  In  In11  1  0.34398057  0.82302346  0.63564963  1
  In  In12  1  0.65340504  0.14757660  0.12195918  1
  In  In13  1  0.65403198  0.16496267  0.62447685  1
  In  In14  1  0.66553276  0.51990301  0.12478320  1
  In  In15  1  0.65917287  0.50015736  0.61687366  1
  In  In16  1  0.66587586  0.83672559  0.12520524  1
  In  In17  1  0.66229810  0.84801125  0.63247381  1
  In  In18  1  0.18393799  -0.00255544  0.37388635  1
  In  In19  1  0.17749962  -0.00986536  0.88412502  1
  In  In20  1  0.15282591  0.32387962  0.35984628  1
  In  In21  1  0.17303052  0.33138242  0.88254280  1
  In  In22  1  0.17584326  0.66510368  0.37446989  1
  In  In23  1  0.16706770  0.67276004  0.87847482  1
  In  In24  1  0.50045753  0.00007241  0.37494818  1
  In  In25  1  0.49901433  -0.00032774  0.87440749  1
  In  In26  1  0.48905855  0.34077592  0.37404273  1
  In  In27  1  0.48404946  0.34204177  0.88436844  1
  In  In28  1  0.50185783  0.65766427  0.38063918  1
  In  In29  1  0.46202686  0.70216579  0.92333459  1
  In  In30  1  0.82670504  0.00514502  0.37014580  1
  In  In31  1  0.82594056  0.00281263  0.88259970  1
  In  In32  1  0.85220662  0.33708520  0.37140460  1
  In  In33  1  0.82223392  0.33238613  0.88218252  1
  In  In34  1  0.81483442  0.66765820  0.37188550  1
  In  In35  1  0.84371593  0.66739756  0.87585431  1
  In  In36  1  0.00096034  0.17885656  0.37637322  1
  In  In37  1  0.00287173  0.16263302  0.88362687  1
  In  In38  1  0.00117433  0.47076565  0.37684260  1
  In  In39  1  -0.00354997  0.51794433  0.87506667  1
  In  In40  1  0.00342891  0.83507661  0.37190457  1
  In  In41  1  0.01054701  0.82536888  0.88346989  1
  In  In42  1  0.33314698  0.16677454  0.37397449  1
  In  In43  1  0.34442961  0.15568908  0.88215064  1
  In  In44  1  0.34656866  0.50179008  0.36999079  1
  In  In45  1  0.31308304  0.52721790  0.90358894  1
  In  In46  1  0.33484262  0.84483915  0.37326250  1
  In  In47  1  0.32906811  0.83986018  0.87381738  1
  In  In48  1  0.66608792  0.14960814  0.36975413  1
  In  In49  1  0.67126861  0.16114074  0.88508269  1
  In  In50  1  0.65417637  0.51115864  0.37840649  1
  In  In51  1  0.65596279  0.50457794  0.88120323  1
  In  In52  1  0.65576245  0.81641949  0.35905574  1
  In  In53  1  0.64395273  0.84088441  0.89216557  1
  In  In54  1  0.17799958  0.00865529  0.11799048  1
  In  In55  1  0.17094988  0.01489110  0.62136767  1
  In  In56  1  0.17501524  0.33555336  0.12984274  1
  In  In57  1  0.17330230  0.33151061  0.61947602  1
  In  In58  1  0.17727274  0.66124174  0.10644048  1
  In  In59  1  0.16811393  0.66717137  0.63592577  1
  In  In60  1  0.49668590  -0.00332389  0.12631161  1
  In  In61  1  0.49757322  -0.00314538  0.62757066  1
  In  In62  1  0.49110877  0.32041998  0.12323328  1
  In  In63  1  0.49990787  0.33298508  0.61431267  1
  In  In64  1  0.51998014  0.68150585  0.09834333  1
  In  In65  1  0.48563000  0.66442284  0.61644972  1
  In  In66  1  0.81918147  -0.01492834  0.11984895  1
  In  In67  1  0.83419728  -0.00947660  0.62759493  1
  In  In68  1  0.85075585  0.33332950  0.12978526  1
  In  In69  1  0.81569902  0.33126464  0.61893629  1
  In  In70  1  0.81876110  0.67635082  0.12653578  1
  In  In71  1  0.84186695  0.67100022  0.62684502  1
  In  In72  1  0.17398204  0.83539286  0.49571433  1
  In  In73  1  -0.00187514  0.65932992  0.23891423  1
  In  In74  1  0.66718791  0.33345376  0.25016797  1
  In  In75  1  0.65855711  0.33452131  0.75959479  1
  In  In76  1  0.00516559  -0.00423695  0.74660419  1
  In  In77  1  0.33568139  0.33618820  0.74225396  1
  In  In78  1  0.83227591  0.17163347  0.49221903  1
  In  In79  1  0.33891684  0.66254081  0.24067295  1
  In  In80  1  -0.00036585  0.33763262  0.74347592  1
  In  In81  1  0.83870007  0.49728560  0.00713998  1
  In  In82  1  0.82825403  0.83447441  0.50428880  1
  In  In83  1  -0.00485712  0.00418218  0.24976041  1
  In  In84  1  0.66168827  0.67368789  0.76049498  1
  In  In85  1  0.16862199  0.49502160  0.49850949  1
  Cu  Cu86  1  0.65756385  0.66675784  0.49829406  1
  Cu  Cu87  1  0.34100138  0.00332093  0.49914024  1
  Cu  Cu88  1  0.66067938  -0.00108534  0.49945859  1
  Cu  Cu89  1  0.66037726  -0.00249635  0.00210587  1
  Cu  Cu90  1  0.50392144  0.15553807  0.75253403  1
  Cu  Cu91  1  0.83673982  0.50417787  0.24988430  1
  Cu  Cu92  1  -0.00380727  0.66258295  0.50055600  1
  Cu  Cu93  1  0.33104165  0.32891926  0.49480246  1
  Cu  Cu94  1  0.49818649  0.83267632  0.24209296  1
  Cu  Cu95  1  0.17044922  0.83116791  0.75725713  1
  Cu  Cu96  1  0.83426657  0.50914589  0.74695210  1
  Cu  Cu97  1  0.49330749  0.15955957  0.24867294  1
  Cu  Cu98  1  0.49241171  0.50829133  0.75061354  1
  Cu  Cu99  1  0.33256738  0.32615001  0.00714915  1
  Cu  Cu100  1  0.66353396  0.33756692  0.49303857  1
  Cu  Cu101  1  0.49736783  0.83040540  0.76124936  1
  Cu  Cu102  1  0.00984349  0.33154235  0.00462258  1
  Cu  Cu103  1  -0.00562447  0.00293263  0.00290157  1
  Cu  Cu104  1  0.17791222  0.15979164  0.75069067  1
  Cu  Cu105  1  0.83121627  0.16322223  0.24814343  1
  Cu  Cu106  1  0.33617765  0.00403115  0.00173348  1
  Cu  Cu107  1  0.16491097  0.51018404  0.75903364  1
  Cu  Cu108  1  0.83036683  0.16413950  0.76029450  1
  Cu  Cu109  1  0.50291677  0.50772254  0.24665641  1
  Cu  Cu110  1  0.00350473  0.66562583  0.00101253  1
  Cu  Cu111  1  0.83453978  0.83434360  0.75300618  1
  Cu  Cu112  1  0.67082529  0.32194338  0.00756823  1
  Cu  Cu113  1  0.17097097  0.16741545  0.24478910  1
  Cu  Cu114  1  0.16711508  0.83506904  0.24335532  1
  Se  Se115  1  0.08509728  0.08351936  0.05195499  1
  Se  Se116  1  0.08846285  0.08263463  0.54695405  1
  Se  Se117  1  0.09037404  0.41695408  0.05734950  1
  Se  Se118  1  0.07279499  0.40852209  0.55831955  1
  Se  Se119  1  0.08884945  0.75240270  0.04920559  1
  Se  Se120  1  0.07919506  0.74426729  0.55729574  1
  Se  Se121  1  0.41811895  0.08540441  0.05820541  1
  Se  Se122  1  0.42428972  0.08546092  0.55558110  1
  Se  Se123  1  0.42278573  0.41103820  0.05207452  1
  Se  Se124  1  0.40943549  0.41430583  0.55209777  1
  Se  Se125  1  0.40799563  0.73890327  0.04022607  1
  Se  Se126  1  0.42103609  0.76533968  0.55316261  1
  Se  Se127  1  0.74828045  0.08069880  0.05295392  1
  Se  Se128  1  0.74779366  0.07713477  0.55743202  1
  Se  Se129  1  0.74550595  0.40847425  0.06746149  1
  Se  Se130  1  0.74483705  0.41925887  0.54917661  1
  Se  Se131  1  0.74416852  0.75222194  0.05311206  1
  Se  Se132  1  0.73600155  0.74382129  0.56385488  1
  Se  Se133  1  0.24736365  0.24407764  0.05965495  1
  Se  Se134  1  0.24956677  0.24682729  0.55081382  1
  Se  Se135  1  0.26473487  0.58250547  0.04075261  1
  Se  Se136  1  0.25056355  0.59336845  0.55768632  1
  Se  Se137  1  0.25103324  0.91674439  0.05013818  1
  Se  Se138  1  0.26034854  0.92204822  0.56034113  1
  Se  Se139  1  0.58074224  0.24212467  0.05647069  1
  Se  Se140  1  0.58757943  0.25059464  0.54971645  1
  Se  Se141  1  0.58215562  0.56902294  0.04346187  1
  Se  Se142  1  0.57413521  0.58217337  0.55152643  1
  Se  Se143  1  0.57669520  0.91404163  0.05538083  1
  Se  Se144  1  0.58144986  0.91553903  0.55596438  1
  Se  Se145  1  0.91953811  0.25156071  0.05378379  1
  Se  Se146  1  0.91943005  0.25489355  0.55991154  1
  Se  Se147  1  0.92614287  0.58949149  0.06795027  1
  Se  Se148  1  0.91100920  0.58307300  0.55432010  1
  Se  Se149  1  0.91266508  0.91415652  0.05151663  1
  Se  Se150  1  0.92898376  0.92773631  0.55362356  1
  Se  Se151  1  0.08183603  0.26094318  0.44345105  1
  Se  Se152  1  0.08835517  0.24682935  0.94789291  1
  Se  Se153  1  0.07684959  0.58727155  0.43757782  1
  Se  Se154  1  0.08560160  0.58219636  0.94716016  1
  Se  Se155  1  0.07937754  0.92548513  0.43978232  1
  Se  Se156  1  0.08030395  0.92089753  0.94929256  1
  Se  Se157  1  0.41893069  0.24824665  0.44317603  1
  Se  Se158  1  0.41744250  0.24549360  0.95134714  1
  Se  Se159  1  0.41088317  0.58308318  0.44659805  1
  Se  Se160  1  0.44763771  0.55586708  0.93893219  1
  Se  Se161  1  0.41986258  0.91621433  0.44607166  1
  Se  Se162  1  0.41529422  0.91994280  0.94452445  1
  Se  Se163  1  0.74107273  0.25884846  0.42973594  1
  Se  Se164  1  0.75692837  0.24290758  0.95368055  1
  Se  Se165  1  0.74582736  0.58564028  0.44751216  1
  Se  Se166  1  0.75294873  0.58548452  0.94402234  1
  Se  Se167  1  0.74140591  0.91936356  0.43902408  1
  Se  Se168  1  0.74711230  0.91531778  0.94990992  1
  Se  Se169  1  0.25320924  0.08344172  0.44676953  1
  Se  Se170  1  0.24865763  0.08674901  0.94945405  1
  Se  Se171  1  0.25445613  0.41027569  0.43286090  1
  Se  Se172  1  0.25037176  0.41192518  0.95442639  1
  Se  Se173  1  0.26617676  0.74123893  0.44225083  1
  Se  Se174  1  0.24335440  0.76263730  0.94371813  1
  Se  Se175  1  0.58160371  0.08559989  0.44590583  1
  Se  Se176  1  0.57863243  0.08183413  0.94723455  1
  Se  Se177  1  0.57578069  0.41981785  0.44278853  1
  Se  Se178  1  0.59612078  0.39952590  0.94332243  1
  Se  Se179  1  0.58218429  0.75391106  0.44240690  1
  Se  Se180  1  0.59748048  0.73464281  0.95879518  1
  Se  Se181  1  0.92286691  0.07554320  0.43855994  1
  Se  Se182  1  0.91196708  0.08647517  0.94863920  1
  Se  Se183  1  0.90982695  0.41724147  0.45201952  1
  Se  Se184  1  0.92837058  0.41000762  0.94134135  1
  Se  Se185  1  0.91964326  0.74648048  0.44023593  1
  Se  Se186  1  0.91775945  0.74875630  0.94966275  1
  Se  Se187  1  0.25345213  0.24924739  0.30168410  1
  Se  Se188  1  0.25244371  0.24648603  0.80856450  1
  Se  Se189  1  0.24650038  0.57631162  0.30255044  1
  Se  Se190  1  0.25342953  0.58579003  0.81258567  1
  Se  Se191  1  0.25194929  0.91500679  0.29770899  1
  Se  Se192  1  0.25057922  0.92421838  0.80176278  1
  Se  Se193  1  0.57525926  0.24235704  0.30797030  1
  Se  Se194  1  0.57016908  0.24248287  0.81665555  1
  Se  Se195  1  0.58357498  0.59135103  0.30155964  1
  Se  Se196  1  0.56898979  0.58454634  0.81441035  1
  Se  Se197  1  0.57707803  0.91503975  0.30185895  1
  Se  Se198  1  0.58566519  0.91521122  0.80727929  1
  Se  Se199  1  0.91750180  0.24531387  0.29916853  1
  Se  Se200  1  0.91284711  0.25077977  0.81097265  1
  Se  Se201  1  0.91743307  0.58033819  0.31447244  1
  Se  Se202  1  0.91897936  0.59074101  0.79884891  1
  Se  Se203  1  0.90716590  0.90718494  0.30579773  1
  Se  Se204  1  0.91678991  0.91433801  0.81353295  1
  Se  Se205  1  0.09144337  0.08859064  0.30908081  1
  Se  Se206  1  0.09084820  0.08611539  0.80972468  1
  Se  Se207  1  0.08891716  0.42713874  0.29705044  1
  Se  Se208  1  0.08730410  0.42038141  0.81198840  1
  Se  Se209  1  0.09149609  0.75206835  0.30307359  1
  Se  Se210  1  0.08153480  0.74882343  0.80504497  1
  Se  Se211  1  0.41206034  0.07778121  0.30611138  1
  Se  Se212  1  0.41280392  0.07836799  0.80317600  1
  Se  Se213  1  0.42012177  0.42009686  0.29552601  1
  Se  Se214  1  0.41167550  0.42660243  0.80937901  1
  Se  Se215  1  0.42080168  0.75307816  0.30680890  1
  Se  Se216  1  0.42224406  0.74631162  0.82027696  1
  Se  Se217  1  0.74609573  0.07664985  0.29442567  1
  Se  Se218  1  0.74537235  0.08116854  0.80907822  1
  Se  Se219  1  0.75379780  0.42557669  0.31136407  1
  Se  Se220  1  0.75724009  0.43030347  0.80909773  1
  Se  Se221  1  0.75515135  0.75141396  0.29536155  1
  Se  Se222  1  0.75359064  0.76296592  0.81801436  1
  Se  Se223  1  0.25273411  0.07726469  0.19813045  1
  Se  Se224  1  0.25982409  0.07943974  0.69548861  1
  Se  Se225  1  0.26577384  0.41759973  0.19227497  1
  Se  Se226  1  0.23658529  0.43100396  0.69144424  1
  Se  Se227  1  0.24575251  0.75438276  0.18346809  1
  Se  Se228  1  0.25383276  0.74679473  0.70299057  1
  Se  Se229  1  0.57932595  0.07519449  0.20013914  1
  Se  Se230  1  0.58807277  0.07669928  0.69680701  1
  Se  Se231  1  0.57999331  0.42143880  0.18716308  1
  Se  Se232  1  0.57183910  0.42325812  0.69346259  1
  Se  Se233  1  0.57725245  0.74677785  0.18794838  1
  Se  Se234  1  0.57340948  0.75482492  0.69279931  1
  Se  Se235  1  0.91065604  0.08832777  0.18254858  1
  Se  Se236  1  0.91116132  0.09375731  0.69315019  1
  Se  Se237  1  0.92150327  0.41582722  0.20488583  1
  Se  Se238  1  0.90410102  0.42354558  0.68509320  1
  Se  Se239  1  0.91109189  0.76218843  0.19198344  1
  Se  Se240  1  0.91778557  0.75053325  0.70122752  1
  Se  Se241  1  0.08471261  0.25246757  0.19636129  1
  Se  Se242  1  0.09471834  0.24002872  0.69280323  1
  Se  Se243  1  0.10199220  0.57979239  0.18614365  1
  Se  Se244  1  0.07879835  0.58651084  0.70120220  1
  Se  Se245  1  0.08543274  0.91658099  0.18681835  1
  Se  Se246  1  0.09625176  0.90591473  0.68670786  1
  Se  Se247  1  0.41309787  0.24931928  0.20038990  1
  Se  Se248  1  0.43053381  0.24152756  0.69052667  1
  Se  Se249  1  0.43302627  0.58496698  0.17734489  1
  Se  Se250  1  0.41089271  0.58981452  0.69518570  1
  Se  Se251  1  0.40934692  0.91237393  0.19251775  1
  Se  Se252  1  0.42035908  0.91453923  0.70140618  1
  Se  Se253  1  0.75160056  0.24320115  0.18627254  1
  Se  Se254  1  0.75047993  0.24399247  0.69814864  1
  Se  Se255  1  0.75157325  0.58693454  0.19965692  1
  Se  Se256  1  0.74492099  0.58354473  0.69055570  1
  Se  Se257  1  0.74152881  0.92012353  0.19803105  1
  Se  Se258  1  0.75216239  0.92053344  0.70236997  1
