# generated using pymatgen
data_In86Cu29Se144
_symmetry_space_group_name_H-M   'P 1'
_cell_length_a   17.59518794
_cell_length_b   17.59248788
_cell_length_c   23.45425268
_cell_angle_alpha   89.99817918
_cell_angle_beta   90.03032013
_cell_angle_gamma   90.04616041
_symmetry_Int_Tables_number   1
_chemical_formula_structural   In86Cu29Se144
_chemical_formula_sum   'In86 Cu29 Se144'
_cell_volume   7260.09942371
_cell_formula_units_Z   1
loop_
 _symmetry_equiv_pos_site_id
 _symmetry_equiv_pos_as_xyz
  1  'x, y, z'
loop_
 _atom_site_type_symbol
 _atom_site_label
 _atom_site_symmetry_multiplicity
 _atom_site_fract_x
 _atom_site_fract_y
 _atom_site_fract_z
 _atom_site_occupancy
  In  In0  1  0.01139518  0.15777194  0.12090694  1
  In  In1  1  0.00756241  0.15904671  0.63584446  1
  In  In2  1  0.00538844  0.50356359  0.11855882  1
  In  In3  1  -0.00602808  0.49475517  0.62246381  1
  In  In4  1  -0.00098646  0.81866982  0.12811491  1
  In  In5  1  0.01381433  0.82410101  0.62729383  1
  In  In6  1  0.33378533  0.16780715  0.12498887  1
  In  In7  1  0.33169695  0.16257893  0.61786894  1
  In  In8  1  0.32368417  0.49266233  0.12326921  1
  In  In9  1  0.32154124  0.50762986  0.62129187  1
  In  In10  1  0.33735684  0.83914632  0.12395592  1
  In  In11  1  0.32421736  0.82039600  0.60747127  1
  In  In12  1  0.64409792  0.19051609  0.13302970  1
  In  In13  1  0.66609383  0.17782360  0.62457404  1
  In  In14  1  0.66082405  0.48702926  0.11170421  1
  In  In15  1  0.66895787  0.48306413  0.62559415  1
  In  In16  1  0.66267709  0.84742317  0.13034683  1
  In  In17  1  0.65850341  0.84121991  0.62083297  1
  In  In18  1  0.17968735  -0.01573305  0.38615623  1
  In  In19  1  0.16783561  0.00372456  0.87874055  1
  In  In20  1  0.17306014  0.32869132  0.38108363  1
  In  In21  1  0.15867489  0.34379894  0.87865264  1
  In  In22  1  0.15343460  0.68347867  0.39262415  1
  In  In23  1  0.16391507  0.67281532  0.87760940  1
  In  In24  1  0.49598241  0.00540892  0.37003494  1
  In  In25  1  0.49653401  0.00531583  0.88442511  1
  In  In26  1  0.48808731  0.32435678  0.36392219  1
  In  In27  1  0.51929358  0.32109428  0.88727796  1
  In  In28  1  0.49971922  0.67402278  0.37996927  1
  In  In29  1  0.49872233  0.66797673  0.88597303  1
  In  In30  1  0.83232411  0.01198036  0.37372859  1
  In  In31  1  0.83988468  -0.01076433  0.87326218  1
  In  In32  1  0.83201235  0.35123732  0.36775813  1
  In  In33  1  0.84078819  0.33948114  0.87021000  1
  In  In34  1  0.84223936  0.64452170  0.38157670  1
  In  In35  1  0.84031554  0.65339479  0.87523254  1
  In  In36  1  0.00663270  0.16466434  0.38423649  1
  In  In37  1  0.00814458  0.17359586  0.86823876  1
  In  In38  1  -0.00476782  0.51490734  0.38725313  1
  In  In39  1  0.00285945  0.50142855  0.87165744  1
  In  In40  1  0.02099058  0.82793255  0.37838289  1
  In  In41  1  0.01494405  0.83871379  0.86553777  1
  In  In42  1  0.33395898  0.16821399  0.37231046  1
  In  In43  1  0.34180196  0.16311723  0.87994695  1
  In  In44  1  0.32931526  0.48692703  0.37223030  1
  In  In45  1  0.33072609  0.49973509  0.88463089  1
  In  In46  1  0.31758551  0.84635783  0.37715778  1
  In  In47  1  0.33263882  0.83367221  0.88578743  1
  In  In48  1  0.65551326  0.15993569  0.36497206  1
  In  In49  1  0.65303048  0.17607679  0.87752335  1
  In  In50  1  0.67903509  0.49520153  0.37246736  1
  In  In51  1  0.68664457  0.48220283  0.89580529  1
  In  In52  1  0.65209580  0.83368538  0.37250162  1
  In  In53  1  0.66379004  0.82899473  0.88046653  1
  In  In54  1  0.17362231  0.00508284  0.12047300  1
  In  In55  1  0.15331751  -0.00844492  0.61069082  1
  In  In56  1  0.17546959  0.34226311  0.11927568  1
  In  In57  1  0.15641691  0.31758025  0.61903589  1
  In  In58  1  0.15899422  0.66288615  0.12334738  1
  In  In59  1  0.13205638  0.63300514  0.57885723  1
  In  In60  1  0.49567180  0.00498057  0.12685946  1
  In  In61  1  0.49362894  -0.00459845  0.61787174  1
  In  In62  1  0.49855145  0.32916193  0.11993053  1
  In  In63  1  0.51324649  0.32937372  0.63021148  1
  In  In64  1  0.50054534  0.66646480  0.11967892  1
  In  In65  1  0.48677858  0.67186578  0.62331690  1
  In  In66  1  0.83088211  -0.01141676  0.13140620  1
  In  In67  1  0.83556899  0.01205923  0.62676951  1
  In  In68  1  0.81859022  0.34005996  0.12034150  1
  In  In69  1  0.82786592  0.34154290  0.62911793  1
  In  In70  1  0.84842449  0.66047985  0.12942671  1
  In  In71  1  0.85789464  0.66165345  0.62117365  1
  In  In72  1  0.00237235  -0.00360831  0.25500623  1
  In  In73  1  0.33372136  0.00207793  0.75331764  1
  In  In74  1  0.67271443  0.00658461  0.74990226  1
  In  In75  1  0.66885273  0.66059001  0.25113975  1
  In  In76  1  0.83430795  0.83135991  0.50431654  1
  In  In77  1  0.32597421  0.66901711  0.74258812  1
  In  In78  1  0.83307005  0.16600546  0.00497238  1
  In  In79  1  -0.00337458  0.33620698  0.25024012  1
  In  In80  1  0.32363720  0.66659773  0.25222749  1
  In  In81  1  0.83454923  0.17241189  0.49791018  1
  In  In82  1  0.83291262  0.82814143  0.00646507  1
  In  In83  1  0.33390204  0.33155412  0.74980164  1
  In  In84  1  0.49839894  0.49695206  0.50123537  1
  In  In85  1  0.67195952  0.66088706  0.75708764  1
  Cu  Cu86  1  0.83865105  0.49857014  0.75146551  1
  Cu  Cu87  1  0.17584866  0.16853949  0.25040360  1
  Cu  Cu88  1  0.33681340  0.00047866  0.00435021  1
  Cu  Cu89  1  0.49669838  0.83574137  0.75031244  1
  Cu  Cu90  1  0.65488224  0.00125403  0.49323671  1
  Cu  Cu91  1  0.33470994  0.33012793  0.49653636  1
  Cu  Cu92  1  0.66757823  0.66276092  0.49715852  1
  Cu  Cu93  1  0.00168957  0.33507194  -0.00653868  1
  Cu  Cu94  1  0.15945353  0.49998887  0.24813019  1
  Cu  Cu95  1  0.82649200  0.16922506  0.25009247  1
  Cu  Cu96  1  0.50047079  0.49308328  0.24555956  1
  Cu  Cu97  1  0.65972886  0.00650175  0.00839659  1
  Cu  Cu98  1  0.84825900  0.83176723  0.74837114  1
  Cu  Cu99  1  0.49360930  0.84613620  0.25014484  1
  Cu  Cu100  1  0.50602451  0.49529306  0.75814453  1
  Cu  Cu101  1  0.16164787  0.83034711  0.74383855  1
  Cu  Cu102  1  0.00174076  0.33676770  0.50070466  1
  Cu  Cu103  1  0.00339364  0.66512973  -0.00159633  1
  Cu  Cu104  1  0.32739157  0.66717145  0.00783635  1
  Cu  Cu105  1  0.83188680  0.82703728  0.25246176  1
  Cu  Cu106  1  0.83610630  0.17414320  0.75009945  1
  Cu  Cu107  1  0.66167587  0.66765092  0.00188960  1
  Cu  Cu108  1  0.01150867  -0.00103582  -0.00411463  1
  Cu  Cu109  1  0.16565832  0.16335301  0.75154090  1
  Cu  Cu110  1  0.15779923  0.50361757  0.74457316  1
  Cu  Cu111  1  0.33242729  0.33040589  0.00187234  1
  Cu  Cu112  1  0.49596293  0.16805137  0.24622667  1
  Cu  Cu113  1  0.66441725  0.32952716  0.49844552  1
  Cu  Cu114  1  0.33835964  0.00742460  0.49382028  1
  Se  Se115  1  0.09260478  0.08601345  0.04736487  1
  Se  Se116  1  0.08864849  0.10124722  0.55589388  1
  Se  Se117  1  0.08421529  0.41613970  0.05157680  1
  Se  Se118  1  0.08716150  0.41635448  0.55554435  1
  Se  Se119  1  0.08231904  0.75132030  0.05252482  1
  Se  Se120  1  0.08663652  0.76415782  0.54423483  1
  Se  Se121  1  0.41897173  0.08817142  0.05455594  1
  Se  Se122  1  0.42149850  0.08725296  0.55018177  1
  Se  Se123  1  0.41254247  0.41702715  0.05536766  1
  Se  Se124  1  0.40986571  0.40681258  0.56455644  1
  Se  Se125  1  0.41537225  0.75135899  0.05566358  1
  Se  Se126  1  0.43422849  0.76203835  0.54865399  1
  Se  Se127  1  0.74512557  0.07948951  0.06919332  1
  Se  Se128  1  0.73858725  0.07783569  0.55410759  1
  Se  Se129  1  0.75405494  0.41884293  0.04241164  1
  Se  Se130  1  0.74971906  0.41232241  0.55001050  1
  Se  Se131  1  0.74054752  0.74276173  0.06824328  1
  Se  Se132  1  0.74350509  0.73893560  0.56490663  1
  Se  Se133  1  0.24780235  0.24688738  0.05429755  1
  Se  Se134  1  0.25050242  0.24787866  0.55152698  1
  Se  Se135  1  0.24358521  0.58023529  0.05655298  1
  Se  Se136  1  0.27537025  0.61279604  0.55600614  1
  Se  Se137  1  0.25067779  0.91557102  0.05285561  1
  Se  Se138  1  0.25486195  0.92422761  0.54859910  1
  Se  Se139  1  0.58520140  0.25621103  0.04743731  1
  Se  Se140  1  0.57991128  0.24890864  0.55144851  1
  Se  Se141  1  0.57815542  0.58101157  0.05131186  1
  Se  Se142  1  0.58888015  0.58653138  0.56383244  1
  Se  Se143  1  0.57816940  0.91762080  0.05773589  1
  Se  Se144  1  0.57715602  0.91464846  0.54812481  1
  Se  Se145  1  0.92776708  0.25791032  0.06151611  1
  Se  Se146  1  0.92168165  0.25631079  0.56321831  1
  Se  Se147  1  0.91687384  0.58411402  0.05038706  1
  Se  Se148  1  0.91810410  0.57508713  0.54733337  1
  Se  Se149  1  0.92831367  0.92440296  0.05839023  1
  Se  Se150  1  0.92040176  0.92192915  0.56493776  1
  Se  Se151  1  0.08522569  0.25146434  0.45033442  1
  Se  Se152  1  0.08534186  0.24785372  0.94472353  1
  Se  Se153  1  0.09195455  0.57910926  0.45617032  1
  Se  Se154  1  0.08559872  0.58193760  0.94297679  1
  Se  Se155  1  0.07526435  0.92506162  0.44911403  1
  Se  Se156  1  0.09016640  0.91064738  0.94410086  1
  Se  Se157  1  0.41902043  0.24913723  0.44354915  1
  Se  Se158  1  0.41863281  0.24953135  0.94843953  1
  Se  Se159  1  0.41021877  0.58364867  0.43928783  1
  Se  Se160  1  0.41053582  0.58754711  0.95066465  1
  Se  Se161  1  0.41671465  0.92014474  0.43939495  1
  Se  Se162  1  0.42016898  0.91565288  0.95034036  1
  Se  Se163  1  0.74414324  0.25475014  0.43338919  1
  Se  Se164  1  0.75121385  0.25563108  0.94058715  1
  Se  Se165  1  0.74893694  0.57433566  0.45004497  1
  Se  Se166  1  0.75375435  0.59152016  0.95108207  1
  Se  Se167  1  0.74429164  0.92201421  0.44031199  1
  Se  Se168  1  0.74290023  0.92663399  0.94877780  1
  Se  Se169  1  0.25017816  0.08942868  0.44365284  1
  Se  Se170  1  0.25575106  0.08157469  0.94565713  1
  Se  Se171  1  0.25031480  0.41796164  0.45043892  1
  Se  Se172  1  0.24725837  0.41488127  0.94995906  1
  Se  Se173  1  0.26468092  0.74466994  0.44620384  1
  Se  Se174  1  0.24719898  0.74931458  0.94950117  1
  Se  Se175  1  0.57650091  0.08966261  0.44188826  1
  Se  Se176  1  0.58307433  0.08823772  0.94935582  1
  Se  Se177  1  0.58381416  0.40906358  0.43663839  1
  Se  Se178  1  0.56450888  0.43740793  0.94442911  1
  Se  Se179  1  0.58570172  0.75064091  0.44950982  1
  Se  Se180  1  0.58046974  0.75619506  0.95203473  1
  Se  Se181  1  0.92535383  0.07091780  0.45017889  1
  Se  Se182  1  0.92295556  0.07735056  0.94154774  1
  Se  Se183  1  0.91596571  0.41417307  0.44519812  1
  Se  Se184  1  0.91930829  0.42019594  0.94239140  1
  Se  Se185  1  0.92213173  0.74449738  0.44230232  1
  Se  Se186  1  0.92382774  0.75035481  0.93902622  1
  Se  Se187  1  0.25265435  0.25683195  0.30454570  1
  Se  Se188  1  0.24529797  0.24256661  0.81254431  1
  Se  Se189  1  0.23643063  0.57776514  0.31344168  1
  Se  Se190  1  0.24452547  0.57511180  0.80636252  1
  Se  Se191  1  0.24158508  0.91797976  0.30092234  1
  Se  Se192  1  0.24489139  0.90377525  0.80708574  1
  Se  Se193  1  0.58256894  0.25223211  0.29762400  1
  Se  Se194  1  0.58534637  0.25668260  0.80195907  1
  Se  Se195  1  0.57191189  0.57490406  0.31072700  1
  Se  Se196  1  0.58156272  0.57737129  0.81902962  1
  Se  Se197  1  0.58409471  0.92319928  0.30183757  1
  Se  Se198  1  0.57928932  0.91394771  0.80900871  1
  Se  Se199  1  0.91192421  0.23970173  0.31295307  1
  Se  Se200  1  0.92211938  0.25534257  0.80252167  1
  Se  Se201  1  0.91543482  0.57227262  0.30481305  1
  Se  Se202  1  0.92244242  0.58582599  0.79984489  1
  Se  Se203  1  0.91048149  0.90668433  0.31547126  1
  Se  Se204  1  0.92552086  0.92071272  0.80063093  1
  Se  Se205  1  0.09164549  0.09153486  0.30981479  1
  Se  Se206  1  0.08461022  0.07741686  0.80534214  1
  Se  Se207  1  0.08533421  0.42050248  0.31448204  1
  Se  Se208  1  0.08239031  0.41636634  0.80087245  1
  Se  Se209  1  0.09024854  0.74523243  0.30522906  1
  Se  Se210  1  0.08472486  0.74212182  0.79929690  1
  Se  Se211  1  0.41230469  0.08551904  0.30024910  1
  Se  Se212  1  0.43215750  0.09174485  0.80472302  1
  Se  Se213  1  0.41112816  0.41523914  0.29762442  1
  Se  Se214  1  0.41857282  0.41931595  0.81454116  1
  Se  Se215  1  0.41970415  0.75757095  0.30820445  1
  Se  Se216  1  0.41798287  0.75327495  0.80931359  1
  Se  Se217  1  0.74712347  0.08008018  0.30028936  1
  Se  Se218  1  0.75992816  0.09398392  0.81488525  1
  Se  Se219  1  0.74333669  0.41477590  0.29535156  1
  Se  Se220  1  0.74966433  0.42246413  0.80646085  1
  Se  Se221  1  0.75556838  0.74790934  0.31693717  1
  Se  Se222  1  0.76314981  0.76048104  0.81126493  1
  Se  Se223  1  0.25211318  0.08250733  0.19463053  1
  Se  Se224  1  0.24214822  0.08396046  0.68935761  1
  Se  Se225  1  0.24650405  0.41622910  0.19948165  1
  Se  Se226  1  0.24107725  0.41976858  0.68950015  1
  Se  Se227  1  0.24155237  0.75687931  0.18894405  1
  Se  Se228  1  0.23553195  0.75113698  0.68097263  1
  Se  Se229  1  0.58358015  0.08462385  0.19539380  1
  Se  Se230  1  0.57757988  0.08477458  0.68769996  1
  Se  Se231  1  0.58272882  0.41488714  0.18896405  1
  Se  Se232  1  0.58752680  0.41432222  0.70209706  1
  Se  Se233  1  0.57400890  0.75600713  0.19655412  1
  Se  Se234  1  0.58039678  0.75251212  0.69561402  1
  Se  Se235  1  0.91232343  0.09085106  0.19281094  1
  Se  Se236  1  0.91549272  0.08273225  0.70226161  1
  Se  Se237  1  0.91088315  0.42266197  0.18663686  1
  Se  Se238  1  0.91967959  0.41350226  0.69782831  1
  Se  Se239  1  0.91862697  0.74548490  0.20306959  1
  Se  Se240  1  0.92620052  0.74515283  0.69574819  1
  Se  Se241  1  0.08982879  0.24563950  0.19193466  1
  Se  Se242  1  0.08354265  0.25210971  0.70198269  1
  Se  Se243  1  0.07775519  0.58351465  0.19532332  1
  Se  Se244  1  0.08798845  0.58507902  0.67945946  1
  Se  Se245  1  0.08650421  0.91371791  0.18775330  1
  Se  Se246  1  0.08370907  0.92232510  0.69383219  1
  Se  Se247  1  0.41431272  0.25386427  0.19328337  1
  Se  Se248  1  0.42120910  0.23909467  0.69117420  1
  Se  Se249  1  0.41937605  0.58022787  0.19149183  1
  Se  Se250  1  0.42548876  0.57083580  0.69518502  1
  Se  Se251  1  0.40929972  0.92550710  0.19645144  1
  Se  Se252  1  0.41228662  0.90619918  0.68855164  1
  Se  Se253  1  0.75017552  0.25439891  0.19449063  1
  Se  Se254  1  0.74872170  0.25214485  0.69663325  1
  Se  Se255  1  0.74920763  0.57415254  0.18453748  1
  Se  Se256  1  0.75776669  0.57774191  0.68884562  1
  Se  Se257  1  0.74919075  0.91487415  0.20502106  1
  Se  Se258  1  0.75915193  0.90701143  0.69175932  1
