# generated using pymatgen
data_In86Cu29Se144
_symmetry_space_group_name_H-M   'P 1'
_cell_length_a   17.58074265
_cell_length_b   17.57974794
_cell_length_c   23.44583268
_cell_angle_alpha   89.98072694
_cell_angle_beta   89.99746490
_cell_angle_gamma   89.99531096
_symmetry_Int_Tables_number   1
_chemical_formula_structural   In86Cu29Se144
_chemical_formula_sum   'In86 Cu29 Se144'
_cell_volume   7246.28640963
_cell_formula_units_Z   1
loop_
 _symmetry_equiv_pos_site_id
 _symmetry_equiv_pos_as_xyz
  1  'x, y, z'
loop_
 _atom_site_type_symbol
 _atom_site_label
 _atom_site_symmetry_multiplicity
 _atom_site_fract_x
 _atom_site_fract_y
 _atom_site_fract_z
 _atom_site_occupancy
  In  In0  1  -0.00651591  0.16300075  0.11747993  1
  In  In1  1  0.00544715  0.18348400  0.63306203  1
  In  In2  1  0.01030563  0.49092021  0.12506519  1
  In  In3  1  0.00029484  0.49838431  0.62961616  1
  In  In4  1  0.01315716  0.84055072  0.11670329  1
  In  In5  1  -0.01570374  0.83431667  0.62809582  1
  In  In6  1  0.32252817  0.17875532  0.12851793  1
  In  In7  1  0.34248856  0.18024959  0.62578100  1
  In  In8  1  0.33289229  0.49952241  0.12347870  1
  In  In9  1  0.32426992  0.49003574  0.61644398  1
  In  In10  1  0.33909109  0.83067933  0.12622874  1
  In  In11  1  0.32725846  0.83153859  0.62671010  1
  In  In12  1  0.68102205  0.16897221  0.12537854  1
  In  In13  1  0.65956840  0.18444721  0.62807015  1
  In  In14  1  0.65690887  0.51585229  0.14373547  1
  In  In15  1  0.65550404  0.49781208  0.60912062  1
  In  In16  1  0.65306847  0.82445106  0.11731494  1
  In  In17  1  0.67337171  0.81318613  0.62056350  1
  In  In18  1  0.16678337  0.00155510  0.35993879  1
  In  In19  1  0.16652956  -0.00019643  0.88476315  1
  In  In20  1  0.17672333  0.33590288  0.37452679  1
  In  In21  1  0.16906699  0.32970016  0.87306120  1
  In  In22  1  0.16854003  0.65269840  0.37479747  1
  In  In23  1  0.15515137  0.67164795  0.88500110  1
  In  In24  1  0.49819607  0.01156773  0.37297153  1
  In  In25  1  0.48869347  -0.00154308  0.88056250  1
  In  In26  1  0.50059087  0.33673381  0.37390770  1
  In  In27  1  0.51434695  0.34269584  0.86639640  1
  In  In28  1  0.49519711  0.65838620  0.36818216  1
  In  In29  1  0.49003391  0.66275497  0.89314901  1
  In  In30  1  0.83127515  -0.01250978  0.37016392  1
  In  In31  1  0.84034436  -0.00562572  0.88465770  1
  In  In32  1  0.82495743  0.36395399  0.37926513  1
  In  In33  1  0.82338300  0.33406350  0.86804504  1
  In  In34  1  0.82940526  0.66354451  0.37650960  1
  In  In35  1  0.85403424  0.65903960  0.87370119  1
  In  In36  1  0.01081732  0.16937770  0.37070644  1
  In  In37  1  -0.00240497  0.16889815  0.87857014  1
  In  In38  1  0.00234577  0.50604594  0.38629611  1
  In  In39  1  -0.00113558  0.50815074  0.86208589  1
  In  In40  1  -0.01262447  0.83258544  0.36795821  1
  In  In41  1  0.01376580  0.81960797  0.88488644  1
  In  In42  1  0.34110018  0.18141268  0.36271797  1
  In  In43  1  0.32399040  0.17348975  0.87436237  1
  In  In44  1  0.33603393  0.49984876  0.37353287  1
  In  In45  1  0.34418238  0.49628197  0.88719830  1
  In  In46  1  0.33528846  0.83202528  0.36059572  1
  In  In47  1  0.32182315  0.83222043  0.89177967  1
  In  In48  1  0.64817766  0.16733503  0.37817986  1
  In  In49  1  0.66867524  0.18869816  0.87525810  1
  In  In50  1  0.66824607  0.49692274  0.36949700  1
  In  In51  1  0.66886477  0.48798367  0.87253281  1
  In  In52  1  0.68395667  0.83016988  0.37299454  1
  In  In53  1  0.66496008  0.83385537  0.88543924  1
  In  In54  1  0.16676666  0.00095857  0.12372818  1
  In  In55  1  0.15875777  0.00105534  0.62770184  1
  In  In56  1  0.17859985  0.34620825  0.11243145  1
  In  In57  1  0.15311363  0.34577082  0.64629400  1
  In  In58  1  0.19164583  0.68127151  0.10362629  1
  In  In59  1  0.17197471  0.65129179  0.63110265  1
  In  In60  1  0.49891386  -0.01596804  0.12552392  1
  In  In61  1  0.48712833  0.00950866  0.62002473  1
  In  In62  1  0.48873750  0.34496068  0.13016786  1
  In  In63  1  0.49741313  0.33750215  0.62315412  1
  In  In64  1  0.49905723  0.66308540  0.12480319  1
  In  In65  1  0.51280536  0.65121624  0.62138738  1
  In  In66  1  0.84362439  0.00702142  0.12122495  1
  In  In67  1  0.83776272  -0.01288863  0.61979887  1
  In  In68  1  0.83395190  0.33120632  0.12686639  1
  In  In69  1  0.81680006  0.35436305  0.64586972  1
  In  In70  1  0.81499945  0.66493249  0.12948172  1
  In  In71  1  0.83608700  0.67222621  0.61616640  1
  In  In72  1  0.66508197  -0.00248646  0.24899899  1
  In  In73  1  0.00045372  0.00099600  0.75395058  1
  In  In74  1  0.83060347  0.16632593  0.50670724  1
  In  In75  1  -0.00035898  0.33146683  0.24858617  1
  In  In76  1  0.66813086  0.65665285  0.74820117  1
  In  In77  1  0.83325472  0.49976884  -0.00074662  1
  In  In78  1  0.32671670  0.00720593  0.76417997  1
  In  In79  1  0.16441446  0.82872668  0.50056579  1
  In  In80  1  0.66744040  0.00863240  0.74214861  1
  In  In81  1  0.32982717  0.66639483  0.75758439  1
  In  In82  1  0.50613726  0.82901095  0.49208899  1
  In  In83  1  0.00702329  0.66649378  0.24969433  1
  In  In84  1  0.50372483  0.16558478  0.00006779  1
  In  In85  1  0.17013911  0.17036695  0.50742753  1
  Cu  Cu86  1  0.83515474  0.16766918  0.75443165  1
  Cu  Cu87  1  0.67380547  0.00138364  0.00437590  1
  Cu  Cu88  1  -0.00003142  0.66269074  0.49981147  1
  Cu  Cu89  1  0.49897492  0.49816135  0.74788363  1
  Cu  Cu90  1  0.34115991  0.66125876  0.49803322  1
  Cu  Cu91  1  0.83466517  0.17128243  0.24853055  1
  Cu  Cu92  1  0.16687393  0.49782656  0.75367232  1
  Cu  Cu93  1  0.33351593  0.33300998  0.00042797  1
  Cu  Cu94  1  0.49486424  0.16762747  0.24952529  1
  Cu  Cu95  1  0.33214874  0.01255747  0.49462141  1
  Cu  Cu96  1  0.33236586  -0.00345692  0.00468261  1
  Cu  Cu97  1  0.33882127  0.33863429  0.49565057  1
  Cu  Cu98  1  0.16328728  0.16537905  0.24332885  1
  Cu  Cu99  1  -0.00693326  -0.00587635  0.49552498  1
  Cu  Cu100  1  0.00068506  0.00042993  0.00089684  1
  Cu  Cu101  1  0.66416933  0.33537370  0.50035716  1
  Cu  Cu102  1  0.49616901  0.49518298  0.25077393  1
  Cu  Cu103  1  0.50144563  0.82373622  0.24566724  1
  Cu  Cu104  1  0.66223214  -0.00376308  0.49609888  1
  Cu  Cu105  1  0.17129464  0.83420303  0.23883337  1
  Cu  Cu106  1  -0.00564665  0.66597215  -0.00070590  1
  Cu  Cu107  1  0.83761790  0.81982883  0.75222228  1
  Cu  Cu108  1  0.49604857  0.83836077  0.75552571  1
  Cu  Cu109  1  0.17548981  0.50107907  0.24627353  1
  Cu  Cu110  1  0.83665492  0.83420038  0.24564209  1
  Cu  Cu111  1  0.00261843  0.34210889  0.51120566  1
  Cu  Cu112  1  0.66581778  0.34024621  -0.00074479  1
  Cu  Cu113  1  0.00120256  0.32788875  -0.00289686  1
  Cu  Cu114  1  0.66320796  0.66500337  0.00438561  1
  Se  Se115  1  0.08514443  0.08421639  0.05328721  1
  Se  Se116  1  0.06652912  0.07841547  0.55761208  1
  Se  Se117  1  0.08176065  0.41691895  0.04650203  1
  Se  Se118  1  0.09324838  0.41983204  0.56169695  1
  Se  Se119  1  0.08368414  0.74918475  0.04762020  1
  Se  Se120  1  0.07723571  0.74286308  0.56411604  1
  Se  Se121  1  0.41283777  0.08009654  0.06307156  1
  Se  Se122  1  0.41232735  0.09475359  0.54982250  1
  Se  Se123  1  0.41708095  0.41819342  0.05151847  1
  Se  Se124  1  0.42183268  0.42308367  0.55005346  1
  Se  Se125  1  0.42495109  0.75363556  0.05756563  1
  Se  Se126  1  0.41393474  0.74577500  0.55991197  1
  Se  Se127  1  0.75653824  0.08807567  0.05312784  1
  Se  Se128  1  0.73675698  0.07438005  0.56415859  1
  Se  Se129  1  0.74150432  0.41953939  0.06412585  1
  Se  Se130  1  0.75390581  0.41073334  0.55505645  1
  Se  Se131  1  0.74973691  0.74916516  0.05328993  1
  Se  Se132  1  0.75346675  0.74943457  0.54456755  1
  Se  Se133  1  0.24791728  0.24589069  0.04751970  1
  Se  Se134  1  0.25341926  0.26953439  0.56108163  1
  Se  Se135  1  0.22587436  0.55401560  0.05783583  1
  Se  Se136  1  0.25068922  0.58636203  0.55179782  1
  Se  Se137  1  0.25059386  0.91333564  0.05901201  1
  Se  Se138  1  0.25544195  0.92919568  0.55518909  1
  Se  Se139  1  0.58852609  0.25819465  0.06202367  1
  Se  Se140  1  0.57899983  0.25217950  0.55184695  1
  Se  Se141  1  0.58606272  0.57682042  0.05840410  1
  Se  Se142  1  0.59183160  0.59530237  0.54131311  1
  Se  Se143  1  0.58243188  0.91861244  0.04921639  1
  Se  Se144  1  0.58576034  0.91878144  0.56282582  1
  Se  Se145  1  0.91260736  0.25382753  0.05328644  1
  Se  Se146  1  0.91657929  0.26078364  0.56467840  1
  Se  Se147  1  0.92045305  0.58814601  0.06502175  1
  Se  Se148  1  0.92089098  0.57923038  0.55654301  1
  Se  Se149  1  0.91672227  0.91572673  0.05312420  1
  Se  Se150  1  0.91319019  0.90669937  0.54677040  1
  Se  Se151  1  0.07693646  0.26122011  0.44656311  1
  Se  Se152  1  0.08762471  0.24659487  0.94493597  1
  Se  Se153  1  0.09269420  0.58254531  0.45314425  1
  Se  Se154  1  0.07040986  0.57755836  0.94417820  1
  Se  Se155  1  0.08119127  0.92221172  0.43662020  1
  Se  Se156  1  0.08557876  0.91411550  0.95108553  1
  Se  Se157  1  0.41637069  0.25006956  0.44224155  1
  Se  Se158  1  0.41915899  0.25781586  0.93921409  1
  Se  Se159  1  0.42224083  0.57868880  0.44407385  1
  Se  Se160  1  0.40312617  0.58930677  0.96078048  1
  Se  Se161  1  0.40667550  0.92127001  0.43962342  1
  Se  Se162  1  0.41681344  0.91392238  0.95181360  1
  Se  Se163  1  0.74534863  0.25299599  0.44047396  1
  Se  Se164  1  0.75307996  0.25771891  0.94915769  1
  Se  Se165  1  0.76733915  0.55983207  0.43770992  1
  Se  Se166  1  0.74287567  0.59080995  0.93826795  1
  Se  Se167  1  0.75178638  0.91746098  0.44697259  1
  Se  Se168  1  0.75343313  0.91364597  0.95094260  1
  Se  Se169  1  0.24903381  0.08653482  0.43375046  1
  Se  Se170  1  0.25779552  0.08237266  0.94641108  1
  Se  Se171  1  0.25035883  0.42061222  0.44516228  1
  Se  Se172  1  0.24840120  0.41255172  0.94500553  1
  Se  Se173  1  0.26175287  0.74643254  0.44010727  1
  Se  Se174  1  0.25122951  0.73538669  0.95351946  1
  Se  Se175  1  0.57570975  0.08220112  0.45090380  1
  Se  Se176  1  0.59616426  0.07823066  0.93808726  1
  Se  Se177  1  0.58435465  0.41756156  0.44266609  1
  Se  Se178  1  0.58102658  0.42174525  0.94659462  1
  Se  Se179  1  0.59436286  0.73944411  0.43412685  1
  Se  Se180  1  0.58080486  0.75045757  0.95130197  1
  Se  Se181  1  0.91905052  0.08220862  0.43777086  1
  Se  Se182  1  0.91715361  0.08597845  0.94899776  1
  Se  Se183  1  0.92029183  0.41954663  0.45217840  1
  Se  Se184  1  0.92101827  0.41118197  0.93761250  1
  Se  Se185  1  0.92191016  0.74527133  0.44106603  1
  Se  Se186  1  0.91073801  0.75148510  0.94822689  1
  Se  Se187  1  0.24212688  0.25138688  0.29870552  1
  Se  Se188  1  0.25540829  0.25584536  0.80065748  1
  Se  Se189  1  0.25535210  0.58513412  0.30219038  1
  Se  Se190  1  0.24405763  0.57572445  0.81808066  1
  Se  Se191  1  0.25267531  0.91822726  0.29551361  1
  Se  Se192  1  0.23902044  0.90494435  0.81238871  1
  Se  Se193  1  0.57980341  0.24866301  0.30294977  1
  Se  Se194  1  0.58765173  0.25175772  0.79910210  1
  Se  Se195  1  0.58256346  0.57968828  0.30063026  1
  Se  Se196  1  0.56924569  0.58183324  0.81264971  1
  Se  Se197  1  0.57633016  0.90631343  0.31085050  1
  Se  Se198  1  0.58206825  0.91761478  0.80930335  1
  Se  Se199  1  0.90744729  0.25076075  0.31565783  1
  Se  Se200  1  0.91758462  0.25026741  0.80755981  1
  Se  Se201  1  0.91918764  0.57564272  0.30830109  1
  Se  Se202  1  0.89221142  0.56317559  0.79759492  1
  Se  Se203  1  0.91893215  0.92191091  0.29561028  1
  Se  Se204  1  0.91347685  0.90479061  0.81098001  1
  Se  Se205  1  0.07751407  0.08444717  0.29626901  1
  Se  Se206  1  0.09366309  0.08830065  0.81053459  1
  Se  Se207  1  0.08866451  0.42674806  0.30774802  1
  Se  Se208  1  0.08278679  0.41293695  0.80494285  1
  Se  Se209  1  0.09752488  0.75984819  0.30982188  1
  Se  Se210  1  0.07513083  0.73848777  0.80662932  1
  Se  Se211  1  0.41230575  0.08038861  0.29986648  1
  Se  Se212  1  0.42908578  0.09751916  0.81024713  1
  Se  Se213  1  0.41188629  0.41195815  0.30371440  1
  Se  Se214  1  0.41613820  0.42190958  0.80748788  1
  Se  Se215  1  0.41506257  0.74166495  0.29781398  1
  Se  Se216  1  0.42026368  0.75830444  0.81676434  1
  Se  Se217  1  0.75218132  0.09168633  0.31042014  1
  Se  Se218  1  0.75721692  0.08355573  0.81305532  1
  Se  Se219  1  0.73785598  0.40379649  0.29828498  1
  Se  Se220  1  0.75362943  0.42473262  0.79802723  1
  Se  Se221  1  0.75812518  0.74848333  0.30011313  1
  Se  Se222  1  0.75010408  0.74996962  0.81292099  1
  Se  Se223  1  0.25102017  0.08240786  0.19381777  1
  Se  Se224  1  0.24852338  0.08739126  0.68844843  1
  Se  Se225  1  0.25334787  0.41095708  0.19444941  1
  Se  Se226  1  0.25804101  0.42182535  0.70098205  1
  Se  Se227  1  0.25305752  0.74373004  0.19241594  1
  Se  Se228  1  0.23904740  0.75776691  0.69718956  1
  Se  Se229  1  0.57657544  0.08974460  0.18753938  1
  Se  Se230  1  0.56686179  0.09494622  0.69160622  1
  Se  Se231  1  0.58269560  0.41144963  0.19978742  1
  Se  Se232  1  0.58385282  0.42378797  0.68916626  1
  Se  Se233  1  0.58819574  0.74253988  0.19511299  1
  Se  Se234  1  0.57242300  0.75489603  0.69466817  1
  Se  Se235  1  0.91741387  0.08848251  0.19595428  1
  Se  Se236  1  0.90680281  0.08726630  0.68925690  1
  Se  Se237  1  0.91010319  0.42813788  0.19463878  1
  Se  Se238  1  0.94279497  0.39045722  0.69301166  1
  Se  Se239  1  0.91870382  0.75455198  0.18582751  1
  Se  Se240  1  0.91756914  0.73888072  0.69609418  1
  Se  Se241  1  0.08888228  0.25071341  0.18232208  1
  Se  Se242  1  0.10332540  0.23124620  0.70436195  1
  Se  Se243  1  0.09751254  0.58325297  0.18589105  1
  Se  Se244  1  0.08288849  0.58177695  0.70110935  1
  Se  Se245  1  0.08221870  0.91908998  0.19454565  1
  Se  Se246  1  0.08717360  0.90514754  0.69441859  1
  Se  Se247  1  0.41272657  0.25282898  0.19639089  1
  Se  Se248  1  0.41326886  0.26448570  0.69672587  1
  Se  Se249  1  0.41607663  0.57937464  0.19394151  1
  Se  Se250  1  0.41704382  0.58049045  0.69026052  1
  Se  Se251  1  0.41749523  0.91387580  0.20035093  1
  Se  Se252  1  0.41607545  0.91576991  0.69489253  1
  Se  Se253  1  0.74948770  0.25478903  0.19925227  1
  Se  Se254  1  0.74710450  0.24789987  0.70257557  1
  Se  Se255  1  0.75719479  0.58160552  0.20718618  1
  Se  Se256  1  0.75140538  0.57641778  0.67978293  1
  Se  Se257  1  0.75257477  0.91179187  0.18473869  1
  Se  Se258  1  0.75591065  0.90158468  0.69361423  1
