# generated using pymatgen
data_In86Cu29Se144
_symmetry_space_group_name_H-M   'P 1'
_cell_length_a   17.58102782
_cell_length_b   17.58163092
_cell_length_c   23.44721450
_cell_angle_alpha   90.01582823
_cell_angle_beta   90.00593586
_cell_angle_gamma   90.00148006
_symmetry_Int_Tables_number   1
_chemical_formula_structural   In86Cu29Se144
_chemical_formula_sum   'In86 Cu29 Se144'
_cell_volume   7247.60736331
_cell_formula_units_Z   1
loop_
 _symmetry_equiv_pos_site_id
 _symmetry_equiv_pos_as_xyz
  1  'x, y, z'
loop_
 _atom_site_type_symbol
 _atom_site_label
 _atom_site_symmetry_multiplicity
 _atom_site_fract_x
 _atom_site_fract_y
 _atom_site_fract_z
 _atom_site_occupancy
  In  In0  1  0.00653632  0.17494596  0.11560689  1
  In  In1  1  0.00575458  0.16204690  0.63522284  1
  In  In2  1  0.00895727  0.50172370  0.13474772  1
  In  In3  1  0.00684597  0.50034898  0.62091813  1
  In  In4  1  -0.00202568  0.81680905  0.12653585  1
  In  In5  1  0.01895259  0.81633948  0.64710007  1
  In  In6  1  0.34157757  0.16941824  0.12027856  1
  In  In7  1  0.33052848  0.17184124  0.63726131  1
  In  In8  1  0.32397080  0.50573240  0.12727875  1
  In  In9  1  0.32456223  0.49946030  0.61829078  1
  In  In10  1  0.31303734  0.80158510  0.09797455  1
  In  In11  1  0.33722848  0.83008784  0.62244833  1
  In  In12  1  0.66059942  0.16172168  0.11322878  1
  In  In13  1  0.65984698  0.16498974  0.63016728  1
  In  In14  1  0.66835873  0.51452901  0.12918545  1
  In  In15  1  0.67030460  0.49703477  0.61166611  1
  In  In16  1  0.66362426  0.82539173  0.12536345  1
  In  In17  1  0.66469449  0.84459987  0.62582025  1
  In  In18  1  0.15690852  -0.00845944  0.38017747  1
  In  In19  1  0.16013656  -0.01651341  0.86466780  1
  In  In20  1  0.19196780  0.37864516  0.34121806  1
  In  In21  1  0.17759744  0.34201145  0.86970763  1
  In  In22  1  0.17173085  0.65888502  0.37230029  1
  In  In23  1  0.15866065  0.67865235  0.89115752  1
  In  In24  1  0.48683988  -0.00432736  0.37794967  1
  In  In25  1  0.49989029  0.00194957  0.87224673  1
  In  In26  1  0.50063894  0.35653919  0.37690812  1
  In  In27  1  0.48553238  0.33994123  0.88409350  1
  In  In28  1  0.49761264  0.66711232  0.37246195  1
  In  In29  1  0.47847061  0.67893957  0.90156592  1
  In  In30  1  0.83722761  0.00672344  0.37890068  1
  In  In31  1  0.84947649  0.01213489  0.86781288  1
  In  In32  1  0.85034513  0.33373988  0.37441687  1
  In  In33  1  0.83604237  0.32305154  0.87611741  1
  In  In34  1  0.82491318  0.66712954  0.36684804  1
  In  In35  1  0.84710458  0.65486226  0.87464535  1
  In  In36  1  -0.00651241  0.17668420  0.37492908  1
  In  In37  1  -0.01025879  0.15700409  0.87224415  1
  In  In38  1  0.00661029  0.50316243  0.37541407  1
  In  In39  1  0.01617798  0.51340217  0.86322203  1
  In  In40  1  0.00961905  0.82722768  0.38145944  1
  In  In41  1  0.02315708  0.84126563  0.85876707  1
  In  In42  1  0.31710661  0.17607528  0.37361142  1
  In  In43  1  0.34161709  0.17422653  0.87034689  1
  In  In44  1  0.33298665  0.50924731  0.37082853  1
  In  In45  1  0.33533825  0.49995669  0.88526276  1
  In  In46  1  0.34424015  0.82348755  0.38126441  1
  In  In47  1  0.31957271  0.84303655  0.88304210  1
  In  In48  1  0.67702243  0.16721991  0.37332422  1
  In  In49  1  0.67638723  0.16136277  0.88016575  1
  In  In50  1  0.64999537  0.50930247  0.38550218  1
  In  In51  1  0.65614832  0.48972629  0.87469044  1
  In  In52  1  0.66527782  0.81607628  0.37232676  1
  In  In53  1  0.65229930  0.83450991  0.87454142  1
  In  In54  1  0.17486457  -0.00569002  0.11538372  1
  In  In55  1  0.18398808  -0.01913271  0.64530532  1
  In  In56  1  0.15622833  0.35404799  0.13557372  1
  In  In57  1  0.16377233  0.33753270  0.63078170  1
  In  In58  1  0.16658359  0.66309020  0.12795652  1
  In  In59  1  0.15928588  0.66397090  0.61394717  1
  In  In60  1  0.49568498  -0.00924126  0.11204505  1
  In  In61  1  0.50282966  -0.00389002  0.63458060  1
  In  In62  1  0.48977766  0.32849118  0.12010688  1
  In  In63  1  0.49322460  0.33902223  0.62417440  1
  In  In64  1  0.49744697  0.66722883  0.12341776  1
  In  In65  1  0.49519430  0.66326545  0.61786219  1
  In  In66  1  0.82596306  -0.00228760  0.11576304  1
  In  In67  1  0.83169944  -0.00088624  0.63466379  1
  In  In68  1  0.84509009  0.33207832  0.12401127  1
  In  In69  1  0.84753153  0.35080662  0.61670772  1
  In  In70  1  0.84466102  0.66709801  0.14680784  1
  In  In71  1  0.84917876  0.66135239  0.61724071  1
  In  In72  1  0.66546867  0.66344986  0.75236576  1
  In  In73  1  0.66568249  0.33803362  0.25305361  1
  In  In74  1  0.83094364  0.83090780  0.49816687  1
  In  In75  1  0.83299888  0.49529538  0.00503496  1
  In  In76  1  0.83586819  0.83388195  0.00047713  1
  In  In77  1  0.83482217  0.17251989  0.50067233  1
  In  In78  1  0.32479562  0.66781647  0.75593897  1
  In  In79  1  0.33333729  -0.00279370  0.23855446  1
  In  In80  1  0.49859163  0.17273207  0.51271621  1
  In  In81  1  0.66922945  0.33041017  0.74885630  1
  In  In82  1  -0.00102807  -0.00615338  0.25320717  1
  In  In83  1  0.66060908  -0.01296968  0.23230082  1
  In  In84  1  0.16003846  0.17058096  0.50138787  1
  In  In85  1  0.16683748  0.16680359  -0.00800589  1
  Cu  Cu86  1  0.65935165  0.66496300  0.49587927  1
  Cu  Cu87  1  0.01515012  0.34215186  0.49518306  1
  Cu  Cu88  1  0.66562450  0.66416101  0.00360684  1
  Cu  Cu89  1  0.17552084  0.82948658  0.25030407  1
  Cu  Cu90  1  0.33189367  0.66641257  0.49497672  1
  Cu  Cu91  1  0.49634182  0.50163171  0.75779843  1
  Cu  Cu92  1  0.82923586  0.83186476  0.74769590  1
  Cu  Cu93  1  0.32413279  0.33627186  0.00274005  1
  Cu  Cu94  1  0.49838447  0.82292223  0.24695600  1
  Cu  Cu95  1  0.65621939  0.33128848  -0.00184448  1
  Cu  Cu96  1  0.83400241  0.16834206  0.75325998  1
  Cu  Cu97  1  0.49415691  0.83883905  0.75113822  1
  Cu  Cu98  1  0.16809701  0.16675780  0.75773468  1
  Cu  Cu99  1  0.00597272  0.66619533  0.00259936  1
  Cu  Cu100  1  0.00831997  -0.01184628  0.51154725  1
  Cu  Cu101  1  0.67041362  0.00511217  -0.00656962  1
  Cu  Cu102  1  0.00161054  0.33759903  0.00039773  1
  Cu  Cu103  1  0.49483681  0.50730341  0.25027972  1
  Cu  Cu104  1  0.83568703  0.50113512  0.25487404  1
  Cu  Cu105  1  0.15981926  0.18005843  0.24661495  1
  Cu  Cu106  1  0.33451632  0.34298746  0.49630153  1
  Cu  Cu107  1  0.17168160  0.49602557  0.74488988  1
  Cu  Cu108  1  0.83240720  0.16179545  0.24409347  1
  Cu  Cu109  1  0.65393144  -0.00159315  0.50285334  1
  Cu  Cu110  1  0.84486282  0.49884982  0.74374035  1
  Cu  Cu111  1  0.33532372  -0.00258793  -0.00638506  1
  Cu  Cu112  1  0.32912078  -0.01107766  0.50597224  1
  Cu  Cu113  1  0.49300654  0.17446177  0.24738136  1
  Cu  Cu114  1  0.50279759  0.16593331  0.75288443  1
  Se  Se115  1  0.07819616  0.07381538  0.05145443  1
  Se  Se116  1  0.08914896  0.07298375  0.56752633  1
  Se  Se117  1  0.07912370  0.42286081  0.05619242  1
  Se  Se118  1  0.09736053  0.41952899  0.55367964  1
  Se  Se119  1  0.08803356  0.75118818  0.05525813  1
  Se  Se120  1  0.06684194  0.75045353  0.55671250  1
  Se  Se121  1  0.41410676  0.08212775  0.04967070  1
  Se  Se122  1  0.40482150  0.07740421  0.56385963  1
  Se  Se123  1  0.40671695  0.41808712  0.05847608  1
  Se  Se124  1  0.41824803  0.42251353  0.55256242  1
  Se  Se125  1  0.44342336  0.77184993  0.05574282  1
  Se  Se126  1  0.41547444  0.74863797  0.55051804  1
  Se  Se127  1  0.75370429  0.08770953  0.04737673  1
  Se  Se128  1  0.74193022  0.07690324  0.55765133  1
  Se  Se129  1  0.73711988  0.40633282  0.06322586  1
  Se  Se130  1  0.75743514  0.41702227  0.54785146  1
  Se  Se131  1  0.75600696  0.73443823  0.06244034  1
  Se  Se132  1  0.73860421  0.74180445  0.56104415  1
  Se  Se133  1  0.24268434  0.25633737  0.06284528  1
  Se  Se134  1  0.26052234  0.25643209  0.55748309  1
  Se  Se135  1  0.25639456  0.59589009  0.05541290  1
  Se  Se136  1  0.24812629  0.58379761  0.54850052  1
  Se  Se137  1  0.24823048  0.91306291  0.04232855  1
  Se  Se138  1  0.24269890  0.90989580  0.55874633  1
  Se  Se139  1  0.57339885  0.24676980  0.05111501  1
  Se  Se140  1  0.59807989  0.26470235  0.56045669  1
  Se  Se141  1  0.58207455  0.58014046  0.05526597  1
  Se  Se142  1  0.57883410  0.58040059  0.55105685  1
  Se  Se143  1  0.59908317  0.91896776  0.05411422  1
  Se  Se144  1  0.57332804  0.91542281  0.55664979  1
  Se  Se145  1  0.91597073  0.25141206  0.04812292  1
  Se  Se146  1  0.93876533  0.25427185  0.55495784  1
  Se  Se147  1  0.91826042  0.59181342  0.06241742  1
  Se  Se148  1  0.90836370  0.56248856  0.55158515  1
  Se  Se149  1  0.93058308  0.92062580  0.05881644  1
  Se  Se150  1  0.91579273  0.91569569  0.56530133  1
  Se  Se151  1  0.08948186  0.26167015  0.43177602  1
  Se  Se152  1  0.07671413  0.25936140  0.93470802  1
  Se  Se153  1  0.09342879  0.57797877  0.44478453  1
  Se  Se154  1  0.08300862  0.57641833  0.94979495  1
  Se  Se155  1  0.08855991  0.90765359  0.45449108  1
  Se  Se156  1  0.08560024  0.91070459  0.94262745  1
  Se  Se157  1  0.41165897  0.25379299  0.44077217  1
  Se  Se158  1  0.40848765  0.25031895  0.95166890  1
  Se  Se159  1  0.41820290  0.58319877  0.44333727  1
  Se  Se160  1  0.42095181  0.57054032  0.95845064  1
  Se  Se161  1  0.41821037  0.91292935  0.45202842  1
  Se  Se162  1  0.42245338  0.91524205  0.94243572  1
  Se  Se163  1  0.74454447  0.26234169  0.44202874  1
  Se  Se164  1  0.74839315  0.25460343  0.94818690  1
  Se  Se165  1  0.74901306  0.58908176  0.44268645  1
  Se  Se166  1  0.74278206  0.58485089  0.94063488  1
  Se  Se167  1  0.73783853  0.92564845  0.43986876  1
  Se  Se168  1  0.74934229  0.92087035  0.93503821  1
  Se  Se169  1  0.25547111  0.07395314  0.44481930  1
  Se  Se170  1  0.25486243  0.07609903  0.93183415  1
  Se  Se171  1  0.25023847  0.41951218  0.43837698  1
  Se  Se172  1  0.24180978  0.42003356  0.94990404  1
  Se  Se173  1  0.24703281  0.75007123  0.44301857  1
  Se  Se174  1  0.27485173  0.73013251  0.94526764  1
  Se  Se175  1  0.58318705  0.08461869  0.44069934  1
  Se  Se176  1  0.58085741  0.08571031  0.94335905  1
  Se  Se177  1  0.58544335  0.41333012  0.45360401  1
  Se  Se178  1  0.57529702  0.42036279  0.95002625  1
  Se  Se179  1  0.57718979  0.75191890  0.44523503  1
  Se  Se180  1  0.58720965  0.75337423  0.95242072  1
  Se  Se181  1  0.93373069  0.07454135  0.45077422  1
  Se  Se182  1  0.91209774  0.08713593  0.94935058  1
  Se  Se183  1  0.92156266  0.41863615  0.44630450  1
  Se  Se184  1  0.92394912  0.41893219  0.93686330  1
  Se  Se185  1  0.91928912  0.73772149  0.44252605  1
  Se  Se186  1  0.92689153  0.74523319  0.94064280  1
  Se  Se187  1  0.25281917  0.25585239  0.29600269  1
  Se  Se188  1  0.25555934  0.25409444  0.80217245  1
  Se  Se189  1  0.23928732  0.57086963  0.29824052  1
  Se  Se190  1  0.23967280  0.57451808  0.81473035  1
  Se  Se191  1  0.24984451  0.91568432  0.31040468  1
  Se  Se192  1  0.24744395  0.90224838  0.79947864  1
  Se  Se193  1  0.57489492  0.24414324  0.31204846  1
  Se  Se194  1  0.57856008  0.24996716  0.81469713  1
  Se  Se195  1  0.58366290  0.58422542  0.30439131  1
  Se  Se196  1  0.56980366  0.58703874  0.81747659  1
  Se  Se197  1  0.57171375  0.91266208  0.30584048  1
  Se  Se198  1  0.58326013  0.91942157  0.80108536  1
  Se  Se199  1  0.91306711  0.24571850  0.29812077  1
  Se  Se200  1  0.92011776  0.25229731  0.80276634  1
  Se  Se201  1  0.91923204  0.58491207  0.30689010  1
  Se  Se202  1  0.92389310  0.58751194  0.79566324  1
  Se  Se203  1  0.90877354  0.90791725  0.31526424  1
  Se  Se204  1  0.91466413  0.91077436  0.80340122  1
  Se  Se205  1  0.09074913  0.09232965  0.30896587  1
  Se  Se206  1  0.08188904  0.08228295  0.80576821  1
  Se  Se207  1  0.05698779  0.39887504  0.30519596  1
  Se  Se208  1  0.08616620  0.41438471  0.79976697  1
  Se  Se209  1  0.09062677  0.75365887  0.30762458  1
  Se  Se210  1  0.08421552  0.73019813  0.80465661  1
  Se  Se211  1  0.41491478  0.09095090  0.30706480  1
  Se  Se212  1  0.41565806  0.08267989  0.80260184  1
  Se  Se213  1  0.41534279  0.41959364  0.30223169  1
  Se  Se214  1  0.41110311  0.41911443  0.80902951  1
  Se  Se215  1  0.41101736  0.74583808  0.30196546  1
  Se  Se216  1  0.42239324  0.75376408  0.81301535  1
  Se  Se217  1  0.75107792  0.07835322  0.29925292  1
  Se  Se218  1  0.74952588  0.08357141  0.80361004  1
  Se  Se219  1  0.75384333  0.42376062  0.31613103  1
  Se  Se220  1  0.76098760  0.42562055  0.80683551  1
  Se  Se221  1  0.74829119  0.75366370  0.29733980  1
  Se  Se222  1  0.75642688  0.75165860  0.81411987  1
  Se  Se223  1  0.23737028  0.09476474  0.18758677  1
  Se  Se224  1  0.25417977  0.08418824  0.70471301  1
  Se  Se225  1  0.24676330  0.42611399  0.20243091  1
  Se  Se226  1  0.25952197  0.41436070  0.69475435  1
  Se  Se227  1  0.25705760  0.75071878  0.19199015  1
  Se  Se228  1  0.24109464  0.75052352  0.68802365  1
  Se  Se229  1  0.56736352  0.08985594  0.18764522  1
  Se  Se230  1  0.58661276  0.08174837  0.70135197  1
  Se  Se231  1  0.57466112  0.42323292  0.19061275  1
  Se  Se232  1  0.58012615  0.42927980  0.69432597  1
  Se  Se233  1  0.58717045  0.74239945  0.19628395  1
  Se  Se234  1  0.57319807  0.75374796  0.69221510  1
  Se  Se235  1  0.91514220  0.08339489  0.18559498  1
  Se  Se236  1  0.91636979  0.08260223  0.70008827  1
  Se  Se237  1  0.91276760  0.41978072  0.19525481  1
  Se  Se238  1  0.92927011  0.41369840  0.69454204  1
  Se  Se239  1  0.92953871  0.75199709  0.20913372  1
  Se  Se240  1  0.90906067  0.74343399  0.69740279  1
  Se  Se241  1  0.07263367  0.25624555  0.19267772  1
  Se  Se242  1  0.08822635  0.24909031  0.69935421  1
  Se  Se243  1  0.07359416  0.59900811  0.19984219  1
  Se  Se244  1  0.09016270  0.58100298  0.69127000  1
  Se  Se245  1  0.09592216  0.91269645  0.19145088  1
  Se  Se246  1  0.06629146  0.93412277  0.70020677  1
  Se  Se247  1  0.40819763  0.25538779  0.19570182  1
  Se  Se248  1  0.42523860  0.25289628  0.69766338  1
  Se  Se249  1  0.41406046  0.58798357  0.19360057  1
  Se  Se250  1  0.41832622  0.58012292  0.69408492  1
  Se  Se251  1  0.42072706  0.90264796  0.18397499  1
  Se  Se252  1  0.40849959  0.91682986  0.69616803  1
  Se  Se253  1  0.74718181  0.24237504  0.18834808  1
  Se  Se254  1  0.76386549  0.24806063  0.68566162  1
  Se  Se255  1  0.74892208  0.58416571  0.20451323  1
  Se  Se256  1  0.75361445  0.57541747  0.68923884  1
  Se  Se257  1  0.76756692  0.90039286  0.18969843  1
  Se  Se258  1  0.74356057  0.91783142  0.70078490  1
