# generated using pymatgen
data_In86Cu29Se144
_symmetry_space_group_name_H-M   'P 1'
_cell_length_a   17.57425329
_cell_length_b   17.57963391
_cell_length_c   23.43265025
_cell_angle_alpha   89.99938237
_cell_angle_beta   90.01666751
_cell_angle_gamma   89.99688000
_symmetry_Int_Tables_number   1
_chemical_formula_structural   In86Cu29Se144
_chemical_formula_sum   'In86 Cu29 Se144'
_cell_volume   7239.49211618
_cell_formula_units_Z   1
loop_
 _symmetry_equiv_pos_site_id
 _symmetry_equiv_pos_as_xyz
  1  'x, y, z'
loop_
 _atom_site_type_symbol
 _atom_site_label
 _atom_site_symmetry_multiplicity
 _atom_site_fract_x
 _atom_site_fract_y
 _atom_site_fract_z
 _atom_site_occupancy
  In  In0  1  -0.00814160  0.16425507  0.11379726  1
  In  In1  1  0.01034256  0.16493641  0.63460551  1
  In  In2  1  -0.01058793  0.48264937  0.10158714  1
  In  In3  1  -0.00827602  0.50715056  0.64110548  1
  In  In4  1  0.01516540  0.83341834  0.12191423  1
  In  In5  1  -0.00663501  0.82597189  0.63008523  1
  In  In6  1  0.32216350  0.17491488  0.12870818  1
  In  In7  1  0.31501292  0.16729969  0.62934305  1
  In  In8  1  0.33368210  0.49871314  0.12111711  1
  In  In9  1  0.34284368  0.50488076  0.62931513  1
  In  In10  1  0.32256103  0.83870888  0.13216586  1
  In  In11  1  0.32888855  0.83786303  0.63308914  1
  In  In12  1  0.68286665  0.16958006  0.12027050  1
  In  In13  1  0.66856947  0.16416381  0.62753613  1
  In  In14  1  0.66817948  0.49846748  0.12467802  1
  In  In15  1  0.69680483  0.49710243  0.62207945  1
  In  In16  1  0.65525395  0.83049878  0.12718823  1
  In  In17  1  0.70049520  0.80930642  0.65216219  1
  In  In18  1  0.16812645  0.00735482  0.37109641  1
  In  In19  1  0.16164875  -0.00005977  0.87612248  1
  In  In20  1  0.16008482  0.32189865  0.37303605  1
  In  In21  1  0.15165399  0.33277882  0.88467393  1
  In  In22  1  0.16641224  0.65643494  0.37108588  1
  In  In23  1  0.16974422  0.66590381  0.87532249  1
  In  In24  1  0.49672779  0.01063207  0.37302437  1
  In  In25  1  0.49636983  -0.00166917  0.86759253  1
  In  In26  1  0.50398172  0.33896932  0.35991994  1
  In  In27  1  0.51480561  0.34712047  0.88517136  1
  In  In28  1  0.49782834  0.66450264  0.36979107  1
  In  In29  1  0.49837539  0.66001290  0.87286206  1
  In  In30  1  0.83165075  -0.01213386  0.37688867  1
  In  In31  1  0.85077945  0.01261578  0.85454720  1
  In  In32  1  0.83430104  0.34730326  0.38007573  1
  In  In33  1  0.85312067  0.31687842  0.90218450  1
  In  In34  1  0.82854029  0.67549298  0.38164483  1
  In  In35  1  0.82903359  0.66406765  0.86306379  1
  In  In36  1  0.02038985  0.17581752  0.37879433  1
  In  In37  1  0.00322499  0.16431626  0.87517771  1
  In  In38  1  -0.01232712  0.49619061  0.37802128  1
  In  In39  1  -0.00109354  0.49544142  0.87755278  1
  In  In40  1  -0.01784016  0.83685914  0.37746037  1
  In  In41  1  0.00830976  0.84624701  0.86117140  1
  In  In42  1  0.32499046  0.16139912  0.36389468  1
  In  In43  1  0.32461453  0.15171372  0.87462968  1
  In  In44  1  0.33404652  0.50312042  0.35949354  1
  In  In45  1  0.32936250  0.50757258  0.88292838  1
  In  In46  1  0.32807687  0.83160437  0.36985967  1
  In  In47  1  0.32404948  0.82532767  0.87240304  1
  In  In48  1  0.65843486  0.16460516  0.37096823  1
  In  In49  1  0.68588875  0.17741263  0.87435768  1
  In  In50  1  0.67228082  0.50442406  0.36910547  1
  In  In51  1  0.66827895  0.50188267  0.88559931  1
  In  In52  1  0.68317738  0.82936887  0.37982752  1
  In  In53  1  0.67626674  0.83323863  0.86029806  1
  In  In54  1  0.16254328  -0.00025429  0.12403800  1
  In  In55  1  0.15345542  0.01370073  0.63810833  1
  In  In56  1  0.16880501  0.34120521  0.11024893  1
  In  In57  1  0.16575013  0.31655431  0.62511999  1
  In  In58  1  0.17231229  0.66790313  0.11698281  1
  In  In59  1  0.16196289  0.67051883  0.63846517  1
  In  In60  1  0.49373659  -0.01322634  0.12666066  1
  In  In61  1  0.50603861  -0.00384511  0.63263363  1
  In  In62  1  0.49210982  0.34110399  0.12775805  1
  In  In63  1  0.50606114  0.33007243  0.62317456  1
  In  In64  1  0.50853812  0.65578056  0.13139645  1
  In  In65  1  0.50021593  0.67654612  0.63105702  1
  In  In66  1  0.83553507  0.01671296  0.11956254  1
  In  In67  1  0.85425218  -0.01857487  0.64405854  1
  In  In68  1  0.82429047  0.32425215  0.11110334  1
  In  In69  1  0.84155938  0.36337332  0.61445881  1
  In  In70  1  0.82971623  0.65314054  0.12378881  1
  In  In71  1  0.83641347  0.65597718  0.63138189  1
  In  In72  1  0.83943224  0.16616879  0.50271194  1
  In  In73  1  0.15635318  0.49546752  0.49744787  1
  In  In74  1  0.67263590  0.33824346  0.75180598  1
  In  In75  1  0.50137975  0.16860254  0.49928084  1
  In  In76  1  0.00125479  0.33313235  0.24924842  1
  In  In77  1  0.49525099  0.17274651  0.00420427  1
  In  In78  1  0.00817729  0.66569993  0.24262378  1
  In  In79  1  0.50506334  0.50131417  0.49248770  1
  In  In80  1  0.15451451  0.83619045  0.51672724  1
  In  In81  1  0.66250902  -0.00463170  0.25240679  1
  In  In82  1  0.49684221  0.82872001  0.00157531  1
  In  In83  1  0.32323876  0.33749579  0.76424386  1
  In  In84  1  0.50389060  0.83709619  0.49545712  1
  In  In85  1  0.83597363  0.83327161  -0.01579876  1
  Cu  Cu86  1  0.50594920  0.51039867  0.75147937  1
  Cu  Cu87  1  0.83980920  0.17163225  0.24308225  1
  Cu  Cu88  1  -0.00033657  0.00044837  0.51013569  1
  Cu  Cu89  1  0.49041792  0.17016633  0.75229930  1
  Cu  Cu90  1  0.66830653  0.66655828  -0.00051132  1
  Cu  Cu91  1  0.49363530  0.82469747  0.25043353  1
  Cu  Cu92  1  0.67031340  0.01184295  -0.00874974  1
  Cu  Cu93  1  0.49799842  0.49897500  0.24358631  1
  Cu  Cu94  1  0.33095930  0.32912427  0.49432071  1
  Cu  Cu95  1  0.17533697  0.83266640  0.75311957  1
  Cu  Cu96  1  0.32007786  -0.00364172  0.00191455  1
  Cu  Cu97  1  0.16576917  0.16486671  0.24580335  1
  Cu  Cu98  1  0.83205649  0.83034705  0.25277801  1
  Cu  Cu99  1  0.33150909  0.33252083  0.00172337  1
  Cu  Cu100  1  0.32541177  0.01348265  0.49877394  1
  Cu  Cu101  1  0.67568846  0.65749093  0.50699591  1
  Cu  Cu102  1  -0.00175832  -0.00166022  -0.00860159  1
  Cu  Cu103  1  0.00982416  0.66642205  -0.00558313  1
  Cu  Cu104  1  0.33481641  0.66168615  -0.00074310  1
  Cu  Cu105  1  0.16974766  0.50012801  0.23815438  1
  Cu  Cu106  1  0.50051674  0.83295221  0.75362395  1
  Cu  Cu107  1  0.49772246  0.16669448  0.24566214  1
  Cu  Cu108  1  0.16720875  0.50025090  0.75882964  1
  Cu  Cu109  1  0.16591700  0.83990046  0.24877159  1
  Cu  Cu110  1  0.83562437  0.49495844  0.75726514  1
  Cu  Cu111  1  0.83627409  0.17364761  0.75216228  1
  Cu  Cu112  1  0.67743812  -0.01174542  0.50949852  1
  Cu  Cu113  1  0.32137703  0.66972215  0.50209206  1
  Cu  Cu114  1  0.82819985  0.50048756  0.24688827  1
  Se  Se115  1  0.07956258  0.07749328  0.05186202  1
  Se  Se116  1  0.08496561  0.08675891  0.55670917  1
  Se  Se117  1  0.08337627  0.41136154  0.03795024  1
  Se  Se118  1  0.07915387  0.41669064  0.57091401  1
  Se  Se119  1  0.08847240  0.75178717  0.04917221  1
  Se  Se120  1  0.06937888  0.72924381  0.56067923  1
  Se  Se121  1  0.40757780  0.07345243  0.06001259  1
  Se  Se122  1  0.41371219  0.08077122  0.56176248  1
  Se  Se123  1  0.41718189  0.41673055  0.05079875  1
  Se  Se124  1  0.41103945  0.40909367  0.55388062  1
  Se  Se125  1  0.41001345  0.74199754  0.06471339  1
  Se  Se126  1  0.40772359  0.74994428  0.55608092  1
  Se  Se127  1  0.75655787  0.09071861  0.04446753  1
  Se  Se128  1  0.75641113  0.07336249  0.56575990  1
  Se  Se129  1  0.77268552  0.44189760  0.05869687  1
  Se  Se130  1  0.73922721  0.40661295  0.54297562  1
  Se  Se131  1  0.74673076  0.75289706  0.05666785  1
  Se  Se132  1  0.75385191  0.74394077  0.56190664  1
  Se  Se133  1  0.24823961  0.24394316  0.04879936  1
  Se  Se134  1  0.25040267  0.24743320  0.54982945  1
  Se  Se135  1  0.24861226  0.57730645  0.05018376  1
  Se  Se136  1  0.24836347  0.58501530  0.56169939  1
  Se  Se137  1  0.24236232  0.90947589  0.05602995  1
  Se  Se138  1  0.25375083  0.93082265  0.56258935  1
  Se  Se139  1  0.58882715  0.25850651  0.06166003  1
  Se  Se140  1  0.59843086  0.25804559  0.55297205  1
  Se  Se141  1  0.58602372  0.58498194  0.05455054  1
  Se  Se142  1  0.58659964  0.58506451  0.56443125  1
  Se  Se143  1  0.59384119  0.92863076  0.05166335  1
  Se  Se144  1  0.59193173  0.91048274  0.56553357  1
  Se  Se145  1  0.92185061  0.25661912  0.04682119  1
  Se  Se146  1  0.92456829  0.25367910  0.56614343  1
  Se  Se147  1  0.91987995  0.59345941  0.04957246  1
  Se  Se148  1  0.90209108  0.55950181  0.56286712  1
  Se  Se149  1  0.91888397  0.91851538  0.05568916  1
  Se  Se150  1  0.91741453  0.91300157  0.55838297  1
  Se  Se151  1  0.08031902  0.26419566  0.45341564  1
  Se  Se152  1  0.07377248  0.24593261  0.95197784  1
  Se  Se153  1  0.06921560  0.59430796  0.44194490  1
  Se  Se154  1  0.08983183  0.57843713  0.94280875  1
  Se  Se155  1  0.07827496  0.92295398  0.44347649  1
  Se  Se156  1  0.08228577  0.91022819  0.94469576  1
  Se  Se157  1  0.41507150  0.25485226  0.43311381  1
  Se  Se158  1  0.40877961  0.25643380  0.93507655  1
  Se  Se159  1  0.40184408  0.59068337  0.44198296  1
  Se  Se160  1  0.42425046  0.58161123  0.94912787  1
  Se  Se161  1  0.40461028  0.92873557  0.44233012  1
  Se  Se162  1  0.40906885  0.92287142  0.94347427  1
  Se  Se163  1  0.74611288  0.24702433  0.43794785  1
  Se  Se164  1  0.73092196  0.26757391  0.95210983  1
  Se  Se165  1  0.75236725  0.57856965  0.44438658  1
  Se  Se166  1  0.75727369  0.59292102  0.94426576  1
  Se  Se167  1  0.75990820  0.90814106  0.45344293  1
  Se  Se168  1  0.74709389  0.93047097  0.93074302  1
  Se  Se169  1  0.24455546  0.09348093  0.44245247  1
  Se  Se170  1  0.24100537  0.08317949  0.94947852  1
  Se  Se171  1  0.25732712  0.41662368  0.43559604  1
  Se  Se172  1  0.25019886  0.41344740  0.94392942  1
  Se  Se173  1  0.24200430  0.75173741  0.44462132  1
  Se  Se174  1  0.25139614  0.74745252  0.94839105  1
  Se  Se175  1  0.59675094  0.06772851  0.44825686  1
  Se  Se176  1  0.58168823  0.08750280  0.93593151  1
  Se  Se177  1  0.59101988  0.40638677  0.43674403  1
  Se  Se178  1  0.58782837  0.42391449  0.95863598  1
  Se  Se179  1  0.59320944  0.73478216  0.44434353  1
  Se  Se180  1  0.59407853  0.75154445  0.93853925  1
  Se  Se181  1  0.92689499  0.07592058  0.43943798  1
  Se  Se182  1  0.91094783  0.08055469  0.94128218  1
  Se  Se183  1  0.93147418  0.40294370  0.45018200  1
  Se  Se184  1  0.90271529  0.43812956  0.95069302  1
  Se  Se185  1  0.91908193  0.74793100  0.44875955  1
  Se  Se186  1  0.92991304  0.74303867  0.93067835  1
  Se  Se187  1  0.24573983  0.25310005  0.29918644  1
  Se  Se188  1  0.23359707  0.23968929  0.81300036  1
  Se  Se189  1  0.24656621  0.58696295  0.29497823  1
  Se  Se190  1  0.25638311  0.58404254  0.80556864  1
  Se  Se191  1  0.24999561  0.92081907  0.30438746  1
  Se  Se192  1  0.25215093  0.92077892  0.80743444  1
  Se  Se193  1  0.58581034  0.24662459  0.29754075  1
  Se  Se194  1  0.57499693  0.24918029  0.81013310  1
  Se  Se195  1  0.57895725  0.57943826  0.30339342  1
  Se  Se196  1  0.59337481  0.58308475  0.80931832  1
  Se  Se197  1  0.57453001  0.90275226  0.31509389  1
  Se  Se198  1  0.58497666  0.92014747  0.80165589  1
  Se  Se199  1  0.91258807  0.24479283  0.31308451  1
  Se  Se200  1  0.91338719  0.25392403  0.81333795  1
  Se  Se201  1  0.91196796  0.58249415  0.30445319  1
  Se  Se202  1  0.92333325  0.58086876  0.80394202  1
  Se  Se203  1  0.91452102  0.91918976  0.30032186  1
  Se  Se204  1  0.90300332  0.90131198  0.79582933  1
  Se  Se205  1  0.08082765  0.08711523  0.30269374  1
  Se  Se206  1  0.06305020  0.06246536  0.80830812  1
  Se  Se207  1  0.09027579  0.42962142  0.30695074  1
  Se  Se208  1  0.08299224  0.41378741  0.80698743  1
  Se  Se209  1  0.08595657  0.75972296  0.31088804  1
  Se  Se210  1  0.08999962  0.74861109  0.80370481  1
  Se  Se211  1  0.41582302  0.08117102  0.29839308  1
  Se  Se212  1  0.41036488  0.08139086  0.80184534  1
  Se  Se213  1  0.41181618  0.41355282  0.29433006  1
  Se  Se214  1  0.42831384  0.42590877  0.81078366  1
  Se  Se215  1  0.40847519  0.74366223  0.30450901  1
  Se  Se216  1  0.41805547  0.74932028  0.80796716  1
  Se  Se217  1  0.75985803  0.08878456  0.30556298  1
  Se  Se218  1  0.74629882  0.08975743  0.79868427  1
  Se  Se219  1  0.75134448  0.41346332  0.30281958  1
  Se  Se220  1  0.75975889  0.41490623  0.82082030  1
  Se  Se221  1  0.74850921  0.74577280  0.30307605  1
  Se  Se222  1  0.76250937  0.75740512  0.79250241  1
  Se  Se223  1  0.24951422  0.07932430  0.19386025  1
  Se  Se224  1  0.25544813  0.07732019  0.70193553  1
  Se  Se225  1  0.24920604  0.41095727  0.18764180  1
  Se  Se226  1  0.24529903  0.42420362  0.69186844  1
  Se  Se227  1  0.24118004  0.74788725  0.19611954  1
  Se  Se228  1  0.25782511  0.74560772  0.70094915  1
  Se  Se229  1  0.58012899  0.08679944  0.18535525  1
  Se  Se230  1  0.57810184  0.09384319  0.69675123  1
  Se  Se231  1  0.58524403  0.41571847  0.19415905  1
  Se  Se232  1  0.58077520  0.42736116  0.68869433  1
  Se  Se233  1  0.58462254  0.74700362  0.20014387  1
  Se  Se234  1  0.58559759  0.74645301  0.70404166  1
  Se  Se235  1  0.92141678  0.08494481  0.19326619  1
  Se  Se236  1  0.92175286  0.08683243  0.70263463  1
  Se  Se237  1  0.91152440  0.42149281  0.18872289  1
  Se  Se238  1  0.91569097  0.40834634  0.70368978  1
  Se  Se239  1  0.91132305  0.75602863  0.18637026  1
  Se  Se240  1  0.90706450  0.75049356  0.69905550  1
  Se  Se241  1  0.08762807  0.24665470  0.18435048  1
  Se  Se242  1  0.09188833  0.24802703  0.70337338  1
  Se  Se243  1  0.08114951  0.56875440  0.17718580  1
  Se  Se244  1  0.08285414  0.58528757  0.70632933  1
  Se  Se245  1  0.07879188  0.92023239  0.19704802  1
  Se  Se246  1  0.08753816  0.90488074  0.69362780  1
  Se  Se247  1  0.41381579  0.25113259  0.19419476  1
  Se  Se248  1  0.41510118  0.25481923  0.69331524  1
  Se  Se249  1  0.41099143  0.58298342  0.19421540  1
  Se  Se250  1  0.41823945  0.59006856  0.69846512  1
  Se  Se251  1  0.41351924  0.91442286  0.20094033  1
  Se  Se252  1  0.41829760  0.91644031  0.69880112  1
  Se  Se253  1  0.75313351  0.25457032  0.19410560  1
  Se  Se254  1  0.76158888  0.25305754  0.68680411  1
  Se  Se255  1  0.74361542  0.58697942  0.19798220  1
  Se  Se256  1  0.74980342  0.57735789  0.70422405  1
  Se  Se257  1  0.75624253  0.91287377  0.18776281  1
  Se  Se258  1  0.72639354  0.94373012  0.68980692  1
