# generated using pymatgen
data_In86Cu29Se144
_symmetry_space_group_name_H-M   'P 1'
_cell_length_a   17.58587601
_cell_length_b   17.58098756
_cell_length_c   23.44255948
_cell_angle_alpha   89.99352000
_cell_angle_beta   89.97892897
_cell_angle_gamma   89.99866742
_symmetry_Int_Tables_number   1
_chemical_formula_structural   In86Cu29Se144
_chemical_formula_sum   'In86 Cu29 Se144'
_cell_volume   7247.90125330
_cell_formula_units_Z   1
loop_
 _symmetry_equiv_pos_site_id
 _symmetry_equiv_pos_as_xyz
  1  'x, y, z'
loop_
 _atom_site_type_symbol
 _atom_site_label
 _atom_site_symmetry_multiplicity
 _atom_site_fract_x
 _atom_site_fract_y
 _atom_site_fract_z
 _atom_site_occupancy
  In  In0  1  0.01475749  0.16329941  0.13917168  1
  In  In1  1  0.00522769  0.17530601  0.62604032  1
  In  In2  1  -0.00154414  0.50605487  0.12410062  1
  In  In3  1  -0.03638155  0.51560364  0.63344794  1
  In  In4  1  -0.00971719  0.84189106  0.12485222  1
  In  In5  1  -0.01423035  0.83844522  0.62176029  1
  In  In6  1  0.33488598  0.15556276  0.12701351  1
  In  In7  1  0.34068477  0.14801921  0.63159652  1
  In  In8  1  0.34938413  0.52698651  0.09927730  1
  In  In9  1  0.34668099  0.50399855  0.63165687  1
  In  In10  1  0.34533647  0.82302985  0.12944290  1
  In  In11  1  0.34893268  0.82195831  0.63680101  1
  In  In12  1  0.66093713  0.17536932  0.12239413  1
  In  In13  1  0.65445831  0.17642404  0.62790268  1
  In  In14  1  0.68482643  0.51745607  0.11228800  1
  In  In15  1  0.67044797  0.50534700  0.63736331  1
  In  In16  1  0.65499242  0.82221871  0.11602574  1
  In  In17  1  0.66757973  0.83042561  0.63161827  1
  In  In18  1  0.16776405  0.00253239  0.35831946  1
  In  In19  1  0.17260924  -0.01390143  0.87703710  1
  In  In20  1  0.16235876  0.34091616  0.37250429  1
  In  In21  1  0.16327600  0.34987396  0.87732570  1
  In  In22  1  0.17130055  0.67140291  0.35903033  1
  In  In23  1  0.16438222  0.65702394  0.88352191  1
  In  In24  1  0.49498200  -0.00735455  0.37919157  1
  In  In25  1  0.50218572  0.00073744  0.87435178  1
  In  In26  1  0.49380357  0.32808079  0.37873340  1
  In  In27  1  0.50655478  0.32806171  0.87843794  1
  In  In28  1  0.51345581  0.67817287  0.36263308  1
  In  In29  1  0.49959731  0.66813700  0.87956051  1
  In  In30  1  0.82920431  -0.01278805  0.37277969  1
  In  In31  1  0.82611310  0.00152443  0.87670910  1
  In  In32  1  0.84029529  0.33059739  0.37503944  1
  In  In33  1  0.83627404  0.34364115  0.85988953  1
  In  In34  1  0.83256013  0.66648690  0.37201935  1
  In  In35  1  0.83024860  0.67023644  0.88204037  1
  In  In36  1  0.00684867  0.17171049  0.36191986  1
  In  In37  1  -0.01420072  0.17032024  0.87754737  1
  In  In38  1  -0.00996286  0.49528830  0.36633758  1
  In  In39  1  -0.00067650  0.49870807  0.88316565  1
  In  In40  1  -0.00550718  0.82561068  0.35913529  1
  In  In41  1  -0.00302204  0.81987375  0.88933834  1
  In  In42  1  0.34362607  0.15693324  0.37737984  1
  In  In43  1  0.34892197  0.16394172  0.87642130  1
  In  In44  1  0.33025170  0.49633922  0.37016671  1
  In  In45  1  0.32422081  0.51804136  0.88915563  1
  In  In46  1  0.33876758  0.83489524  0.36892224  1
  In  In47  1  0.34113613  0.83997384  0.87315322  1
  In  In48  1  0.66482996  0.15567719  0.38337189  1
  In  In49  1  0.66051893  0.16044555  0.86499686  1
  In  In50  1  0.66662562  0.52250719  0.37740756  1
  In  In51  1  0.66887969  0.49836035  0.87257277  1
  In  In52  1  0.67580764  0.80982629  0.39034324  1
  In  In53  1  0.66658034  0.83260402  0.87519573  1
  In  In54  1  0.17030796  0.00664401  0.13589618  1
  In  In55  1  0.17037296  0.01132949  0.62746239  1
  In  In56  1  0.15238276  0.34562205  0.12875233  1
  In  In57  1  0.15613684  0.33295417  0.62709100  1
  In  In58  1  0.17639407  0.65792378  0.12418990  1
  In  In59  1  0.17333837  0.67236769  0.62715721  1
  In  In60  1  0.49042857  -0.01235358  0.11665058  1
  In  In61  1  0.50275893  -0.00447079  0.62815364  1
  In  In62  1  0.49872918  0.33474226  0.11373292  1
  In  In63  1  0.53287662  0.33479882  0.62294133  1
  In  In64  1  0.50220092  0.67240130  0.12064534  1
  In  In65  1  0.49928930  0.67059630  0.63448828  1
  In  In66  1  0.84783386  -0.00849894  0.12228745  1
  In  In67  1  0.82723121  -0.02125730  0.62146087  1
  In  In68  1  0.84355705  0.35358007  0.12010448  1
  In  In69  1  0.80514630  0.36449986  0.65378594  1
  In  In70  1  0.83245500  0.66799624  0.12431140  1
  In  In71  1  0.81291316  0.65229446  0.60263214  1
  In  In72  1  0.16163271  0.49648613  0.49039048  1
  In  In73  1  0.16952130  0.17044897  0.01505430  1
  In  In74  1  0.32074362  0.33140732  0.24754091  1
  In  In75  1  0.16554242  0.83406638  0.49742024  1
  In  In76  1  0.66509595  -0.00403584  0.25483980  1
  In  In77  1  0.16717083  0.83082548  0.00866822  1
  In  In78  1  0.50725753  0.49954474  0.50220071  1
  In  In79  1  0.16824833  0.16633036  0.48963040  1
  In  In80  1  0.66742289  0.34058989  0.24918907  1
  In  In81  1  0.82963309  0.16999865  0.50258542  1
  In  In82  1  0.82834647  0.16600601  0.00004735  1
  In  In83  1  -0.00227893  0.66403229  0.76131803  1
  In  In84  1  0.00253683  -0.00086479  0.75100042  1
  In  In85  1  0.33808740  0.33672064  0.75565545  1
  Cu  Cu86  1  0.83694514  0.50782043  0.24500103  1
  Cu  Cu87  1  0.34241573  -0.01475931  0.50477599  1
  Cu  Cu88  1  0.84208117  0.17380049  0.24636648  1
  Cu  Cu89  1  0.33423074  0.33857036  -0.00471099  1
  Cu  Cu90  1  0.66348264  0.33105176  -0.00544577  1
  Cu  Cu91  1  0.49847893  0.50956260  0.75747013  1
  Cu  Cu92  1  0.66517435  0.66768396  -0.00423921  1
  Cu  Cu93  1  -0.00396083  0.33349029  0.00170553  1
  Cu  Cu94  1  0.49880094  0.16418539  0.74892960  1
  Cu  Cu95  1  -0.01290492  0.34515773  0.50519588  1
  Cu  Cu96  1  0.34174980  0.31651214  0.50693662  1
  Cu  Cu97  1  0.49912407  0.83196593  0.24659297  1
  Cu  Cu98  1  0.83374964  0.16193572  0.75042830  1
  Cu  Cu99  1  0.17053095  0.50306139  0.24397512  1
  Cu  Cu100  1  -0.00774700  0.67162679  0.49052448  1
  Cu  Cu101  1  0.33943321  0.66304765  0.50268397  1
  Cu  Cu102  1  0.50016578  0.50386403  0.23783592  1
  Cu  Cu103  1  0.16901771  0.16793606  0.75123661  1
  Cu  Cu104  1  0.16555972  0.83155834  0.24006130  1
  Cu  Cu105  1  0.65536515  -0.00641675  0.50381638  1
  Cu  Cu106  1  -0.00415345  -0.00122353  0.49028707  1
  Cu  Cu107  1  0.17834433  0.83278168  0.75059525  1
  Cu  Cu108  1  0.33962191  0.00163883  0.00094211  1
  Cu  Cu109  1  0.16081563  0.50288080  0.75760771  1
  Cu  Cu110  1  0.66540960  -0.00240394  -0.00705471  1
  Cu  Cu111  1  0.82896580  0.83044739  0.24883629  1
  Cu  Cu112  1  0.49719594  0.15819142  0.25290557  1
  Cu  Cu113  1  0.50571318  0.83569750  0.75447980  1
  Cu  Cu114  1  0.83176588  0.82809744  0.75232179  1
  Se  Se115  1  0.07525141  0.07215255  0.06017136  1
  Se  Se116  1  0.07470815  0.07682057  0.55230077  1
  Se  Se117  1  0.07884300  0.42070568  0.05203126  1
  Se  Se118  1  0.07267625  0.42376406  0.56231113  1
  Se  Se119  1  0.07530399  0.74260583  0.06523327  1
  Se  Se120  1  0.07323045  0.74145614  0.55690026  1
  Se  Se121  1  0.42136096  0.08910694  0.05263507  1
  Se  Se122  1  0.41903354  0.07705055  0.55578878  1
  Se  Se123  1  0.42304022  0.42133528  0.04447891  1
  Se  Se124  1  0.41548258  0.40557874  0.56320817  1
  Se  Se125  1  0.42377476  0.75899353  0.05163226  1
  Se  Se126  1  0.41851231  0.74537380  0.55833585  1
  Se  Se127  1  0.74019737  0.07343366  0.06158907  1
  Se  Se128  1  0.74137212  0.07476220  0.56057118  1
  Se  Se129  1  0.74725389  0.41132171  0.04945880  1
  Se  Se130  1  0.74232537  0.41870517  0.56465329  1
  Se  Se131  1  0.74978259  0.74862667  0.05184345  1
  Se  Se132  1  0.77054673  0.77883779  0.56084053  1
  Se  Se133  1  0.26201786  0.26581592  0.06686497  1
  Se  Se134  1  0.25141460  0.24598341  0.56432104  1
  Se  Se135  1  0.23893403  0.58327193  0.04145672  1
  Se  Se136  1  0.25508164  0.58081759  0.55684687  1
  Se  Se137  1  0.25859767  0.92619880  0.06390131  1
  Se  Se138  1  0.25414787  0.91545908  0.56546968  1
  Se  Se139  1  0.58073049  0.24686471  0.04771753  1
  Se  Se140  1  0.58261451  0.24407092  0.54641731  1
  Se  Se141  1  0.58228080  0.58476621  0.05122852  1
  Se  Se142  1  0.58966111  0.59184027  0.56364604  1
  Se  Se143  1  0.58226572  0.91602894  0.04934395  1
  Se  Se144  1  0.57991040  0.90712712  0.56015572  1
  Se  Se145  1  0.92495061  0.24709496  0.06342155  1
  Se  Se146  1  0.91373295  0.26039632  0.56525655  1
  Se  Se147  1  0.88840659  0.55862051  0.06209425  1
  Se  Se148  1  0.91466723  0.58084816  0.54171650  1
  Se  Se149  1  0.90833761  0.90692776  0.04633388  1
  Se  Se150  1  0.91486636  0.91625556  0.54461115  1
  Se  Se151  1  0.06893392  0.26438483  0.44456218  1
  Se  Se152  1  0.07993944  0.25229319  0.94471098  1
  Se  Se153  1  0.07940031  0.59501798  0.43258415  1
  Se  Se154  1  0.06078586  0.60093061  0.94783967  1
  Se  Se155  1  0.08020232  0.92143146  0.43237609  1
  Se  Se156  1  0.07667742  0.92356376  0.94788482  1
  Se  Se157  1  0.42224190  0.23824544  0.44878693  1
  Se  Se158  1  0.41804751  0.25042721  0.94807207  1
  Se  Se159  1  0.41301635  0.58156850  0.43906873  1
  Se  Se160  1  0.41967434  0.58851028  0.95211363  1
  Se  Se161  1  0.41938356  0.90133004  0.44754265  1
  Se  Se162  1  0.42066045  0.91884371  0.94590901  1
  Se  Se163  1  0.73979683  0.26019897  0.44213485  1
  Se  Se164  1  0.74624378  0.25289807  0.93341446  1
  Se  Se165  1  0.74865410  0.59669026  0.44787355  1
  Se  Se166  1  0.74742497  0.58002723  0.94568012  1
  Se  Se167  1  0.74271126  0.92004585  0.44563695  1
  Se  Se168  1  0.75292407  0.91353864  0.94580193  1
  Se  Se169  1  0.25751927  0.06200253  0.44335491  1
  Se  Se170  1  0.25298898  0.08128225  0.94497513  1
  Se  Se171  1  0.26459344  0.39945916  0.44583987  1
  Se  Se172  1  0.24421368  0.42183268  0.95045758  1
  Se  Se173  1  0.25514929  0.73879905  0.44135734  1
  Se  Se174  1  0.25563206  0.75065441  0.94163171  1
  Se  Se175  1  0.57648606  0.07767604  0.44805677  1
  Se  Se176  1  0.58487500  0.08659907  0.94296971  1
  Se  Se177  1  0.59209612  0.41233247  0.43557829  1
  Se  Se178  1  0.58257524  0.41964898  0.94396873  1
  Se  Se179  1  0.57321666  0.74163811  0.44982409  1
  Se  Se180  1  0.58220065  0.75566222  0.94661640  1
  Se  Se181  1  0.91910309  0.08613547  0.43415957  1
  Se  Se182  1  0.92397733  0.07210471  0.94738869  1
  Se  Se183  1  0.91031389  0.42387174  0.44372937  1
  Se  Se184  1  0.91095788  0.40784938  0.94301261  1
  Se  Se185  1  0.91472817  0.75927620  0.43762846  1
  Se  Se186  1  0.92436791  0.73088115  0.95526203  1
  Se  Se187  1  0.24408686  0.23947432  0.31578917  1
  Se  Se188  1  0.24532540  0.24687592  0.81563112  1
  Se  Se189  1  0.25748917  0.58132545  0.29886160  1
  Se  Se190  1  0.24620496  0.58480286  0.80809024  1
  Se  Se191  1  0.25000315  0.90920760  0.29928550  1
  Se  Se192  1  0.25688456  0.92123152  0.80190115  1
  Se  Se193  1  0.58103026  0.24075494  0.30800109  1
  Se  Se194  1  0.57968754  0.25157531  0.80062593  1
  Se  Se195  1  0.58347346  0.58114643  0.29720518  1
  Se  Se196  1  0.58574295  0.59003344  0.80906468  1
  Se  Se197  1  0.58136275  0.90135766  0.31349148  1
  Se  Se198  1  0.58873537  0.92086015  0.80609954  1
  Se  Se199  1  0.92124501  0.26037962  0.29971390  1
  Se  Se200  1  0.91817770  0.24722481  0.79979783  1
  Se  Se201  1  0.91953312  0.59103593  0.30055792  1
  Se  Se202  1  0.90382047  0.57162905  0.81202210  1
  Se  Se203  1  0.91242778  0.91941034  0.29759371  1
  Se  Se204  1  0.91776522  0.90542090  0.81196806  1
  Se  Se205  1  0.07586993  0.07873230  0.29623214  1
  Se  Se206  1  0.08989518  0.08929359  0.81497466  1
  Se  Se207  1  0.08741898  0.42241594  0.30118481  1
  Se  Se208  1  0.07528428  0.41882003  0.80614743  1
  Se  Se209  1  0.08171095  0.74674437  0.29235127  1
  Se  Se210  1  0.09359054  0.76050775  0.81251662  1
  Se  Se211  1  0.41651779  0.07270201  0.30471210  1
  Se  Se212  1  0.41670666  0.08036378  0.80207788  1
  Se  Se213  1  0.42741481  0.41894153  0.30118657  1
  Se  Se214  1  0.41802373  0.42920124  0.81882376  1
  Se  Se215  1  0.41369113  0.74607194  0.29899708  1
  Se  Se216  1  0.42053158  0.75197980  0.80655757  1
  Se  Se217  1  0.75920379  0.09548037  0.30628464  1
  Se  Se218  1  0.75083358  0.07713489  0.80141997  1
  Se  Se219  1  0.75736402  0.42904043  0.30920756  1
  Se  Se220  1  0.73549938  0.40938068  0.79806640  1
  Se  Se221  1  0.74539419  0.74972140  0.30406084  1
  Se  Se222  1  0.75010992  0.74645480  0.80789983  1
  Se  Se223  1  0.25206294  0.09120085  0.20206450  1
  Se  Se224  1  0.25143285  0.07991079  0.70380026  1
  Se  Se225  1  0.25677184  0.43230344  0.18132139  1
  Se  Se226  1  0.24258525  0.42461228  0.69381566  1
  Se  Se227  1  0.25266839  0.74588799  0.19350833  1
  Se  Se228  1  0.25634797  0.74185501  0.70076832  1
  Se  Se229  1  0.57848987  0.08405543  0.18972472  1
  Se  Se230  1  0.58440650  0.08224640  0.69564966  1
  Se  Se231  1  0.58359651  0.42442954  0.18089002  1
  Se  Se232  1  0.57821593  0.42487396  0.70247121  1
  Se  Se233  1  0.58483613  0.74816797  0.19591381  1
  Se  Se234  1  0.58724307  0.74811443  0.70258622  1
  Se  Se235  1  0.91536539  0.08154972  0.19439672  1
  Se  Se236  1  0.91209232  0.08310466  0.68607248  1
  Se  Se237  1  0.92208361  0.41947189  0.19853617  1
  Se  Se238  1  0.93411224  0.40246267  0.69759902  1
  Se  Se239  1  0.91446848  0.75158525  0.19370256  1
  Se  Se240  1  0.91415006  0.75001146  0.69319216  1
  Se  Se241  1  0.09453407  0.25317573  0.20123606  1
  Se  Se242  1  0.08366094  0.25061239  0.70120904  1
  Se  Se243  1  0.08412818  0.58557780  0.19324288  1
  Se  Se244  1  0.08515819  0.57945058  0.68922054  1
  Se  Se245  1  0.07990870  0.91814008  0.19368040  1
  Se  Se246  1  0.09220767  0.90629841  0.68889570  1
  Se  Se247  1  0.42684311  0.24897156  0.19358554  1
  Se  Se248  1  0.42364700  0.25175497  0.68815509  1
  Se  Se249  1  0.41506059  0.58699638  0.18751020  1
  Se  Se250  1  0.41270787  0.59032142  0.70444670  1
  Se  Se251  1  0.41612801  0.91934194  0.19730830  1
  Se  Se252  1  0.41906890  0.91824668  0.70127714  1
  Se  Se253  1  0.75978811  0.25125637  0.18729330  1
  Se  Se254  1  0.74656310  0.24361241  0.69937378  1
  Se  Se255  1  0.74652146  0.58871647  0.19699297  1
  Se  Se256  1  0.76606001  0.58921980  0.69418026  1
  Se  Se257  1  0.74901300  0.91038926  0.18742589  1
  Se  Se258  1  0.74976660  0.91634716  0.70220632  1
