# generated using pymatgen
data_In86Cu29Se144
_symmetry_space_group_name_H-M   'P 1'
_cell_length_a   17.57493199
_cell_length_b   17.57197778
_cell_length_c   23.43246673
_cell_angle_alpha   89.99645068
_cell_angle_beta   90.05576443
_cell_angle_gamma   90.00163420
_symmetry_Int_Tables_number   1
_chemical_formula_structural   In86Cu29Se144
_chemical_formula_sum   'In86 Cu29 Se144'
_cell_volume   7236.55889682
_cell_formula_units_Z   1
loop_
 _symmetry_equiv_pos_site_id
 _symmetry_equiv_pos_as_xyz
  1  'x, y, z'
loop_
 _atom_site_type_symbol
 _atom_site_label
 _atom_site_symmetry_multiplicity
 _atom_site_fract_x
 _atom_site_fract_y
 _atom_site_fract_z
 _atom_site_occupancy
  In  In0  1  0.01177813  0.17639340  0.11583497  1
  In  In1  1  0.00343486  0.17034768  0.62465368  1
  In  In2  1  -0.00340689  0.48388231  0.12676686  1
  In  In3  1  0.00614309  0.50197018  0.62365804  1
  In  In4  1  0.00527627  0.84361584  0.12388142  1
  In  In5  1  -0.00496815  0.84311541  0.62950086  1
  In  In6  1  0.33116641  0.16771276  0.12878103  1
  In  In7  1  0.32261467  0.16749425  0.62546508  1
  In  In8  1  0.32508913  0.50552179  0.13149211  1
  In  In9  1  0.32993101  0.49975346  0.60775394  1
  In  In10  1  0.34008540  0.81860551  0.13772435  1
  In  In11  1  0.33691834  0.83823877  0.62736349  1
  In  In12  1  0.66416571  0.16725815  0.12736658  1
  In  In13  1  0.68029739  0.15945057  0.62535611  1
  In  In14  1  0.66650807  0.50355986  0.14020988  1
  In  In15  1  0.66635856  0.49112980  0.61588439  1
  In  In16  1  0.65283633  0.84830969  0.13739737  1
  In  In17  1  0.66584313  0.82245256  0.62059771  1
  In  In18  1  0.18424614  0.01680009  0.37533574  1
  In  In19  1  0.17649922  0.00922728  0.86826762  1
  In  In20  1  0.16899297  0.32795818  0.37653464  1
  In  In21  1  0.15696355  0.33910203  0.87887398  1
  In  In22  1  0.16866479  0.65665610  0.37610222  1
  In  In23  1  0.16107858  0.66484035  0.86991222  1
  In  In24  1  0.49603693  -0.00372920  0.36550831  1
  In  In25  1  0.48144753  0.01762718  0.88954965  1
  In  In26  1  0.50749565  0.34106459  0.36621291  1
  In  In27  1  0.48532712  0.32337259  0.87461862  1
  In  In28  1  0.48567920  0.65165290  0.36889955  1
  In  In29  1  0.50996485  0.66980032  0.87999567  1
  In  In30  1  0.82848671  0.00969734  0.37992069  1
  In  In31  1  0.84302631  0.00718825  0.87088373  1
  In  In32  1  0.83275729  0.33463806  0.37844234  1
  In  In33  1  0.83756682  0.32257855  0.87509333  1
  In  In34  1  0.83148982  0.66548740  0.38042822  1
  In  In35  1  0.83753703  0.65731892  0.87158069  1
  In  In36  1  -0.00946763  0.18813418  0.39034389  1
  In  In37  1  0.00174138  0.17043946  0.87343317  1
  In  In38  1  0.01982922  0.47093529  0.39741152  1
  In  In39  1  0.01780156  0.50645579  0.85522697  1
  In  In40  1  0.00070884  0.82383366  0.38065596  1
  In  In41  1  -0.00020867  0.83750212  0.86214932  1
  In  In42  1  0.32291156  0.15904976  0.37043643  1
  In  In43  1  0.33917975  0.15660349  0.88189134  1
  In  In44  1  0.33648259  0.50248508  0.37592688  1
  In  In45  1  0.32458406  0.48367455  0.87284231  1
  In  In46  1  0.33148955  0.84188284  0.36372610  1
  In  In47  1  0.33030448  0.84833475  0.87855024  1
  In  In48  1  0.66893611  0.17098543  0.36515430  1
  In  In49  1  0.66775217  0.16867246  0.88513347  1
  In  In50  1  0.66449624  0.49910541  0.37523136  1
  In  In51  1  0.66651801  0.50750568  0.87431815  1
  In  In52  1  0.67428495  0.83648600  0.36748881  1
  In  In53  1  0.65912111  0.82476855  0.88153819  1
  In  In54  1  0.16276294  0.01331744  0.12890143  1
  In  In55  1  0.16302828  0.00421886  0.62962326  1
  In  In56  1  0.16549501  0.33398009  0.12720862  1
  In  In57  1  0.15897136  0.33244601  0.61398108  1
  In  In58  1  0.18240051  0.66294005  0.12786750  1
  In  In59  1  0.15679476  0.63502001  0.61570826  1
  In  In60  1  0.49692645  0.00200081  0.12648924  1
  In  In61  1  0.49458493  0.00121900  0.63189286  1
  In  In62  1  0.50579689  0.32724751  0.13314327  1
  In  In63  1  0.49033274  0.33694647  0.62320718  1
  In  In64  1  0.49513170  0.67426822  0.13270354  1
  In  In65  1  0.50177294  0.66221105  0.61926037  1
  In  In66  1  0.82030432  0.00543822  0.12889191  1
  In  In67  1  0.85078547  0.02005845  0.60992432  1
  In  In68  1  0.84286353  0.32398320  0.13515823  1
  In  In69  1  0.86639292  0.35456364  0.59511271  1
  In  In70  1  0.83509595  0.65370977  0.13249513  1
  In  In71  1  0.83901836  0.67680106  0.61627815  1
  In  In72  1  0.16860207  0.83210883  0.49733364  1
  In  In73  1  0.66849653  -0.00309588  0.74952654  1
  In  In74  1  0.00036099  0.65826348  0.26360354  1
  In  In75  1  0.82562307  0.83505812  0.00044203  1
  In  In76  1  0.16828007  0.83819710  0.00172247  1
  In  In77  1  0.00546511  0.00509881  0.25114171  1
  In  In78  1  0.83271126  0.48966160  -0.00299442  1
  In  In79  1  0.49846575  0.82884828  0.48838561  1
  In  In80  1  0.67053646  0.32952667  0.74982594  1
  In  In81  1  0.66801575  0.66431747  0.75268921  1
  In  In82  1  0.32862732  0.66547448  0.74056304  1
  In  In83  1  0.32589016  0.33105937  0.74193843  1
  In  In84  1  0.49513363  0.49097276  -0.00366688  1
  In  In85  1  0.49963413  0.16986366  0.50206762  1
  Cu  Cu86  1  0.83690334  0.82946402  0.25220772  1
  Cu  Cu87  1  0.16384253  0.83179087  0.74732795  1
  Cu  Cu88  1  0.65829695  0.67481341  0.01151900  1
  Cu  Cu89  1  0.16395333  0.17663874  0.25022931  1
  Cu  Cu90  1  0.16480991  0.16687395  0.75044534  1
  Cu  Cu91  1  0.66214457  0.00449328  0.00794938  1
  Cu  Cu92  1  0.32625763  0.32579743  0.00278088  1
  Cu  Cu93  1  0.84077212  0.49806919  0.74084257  1
  Cu  Cu94  1  0.83537055  0.83862611  0.74079207  1
  Cu  Cu95  1  0.00272403  0.00050593  0.50521887  1
  Cu  Cu96  1  0.33498119  0.33687423  0.49490749  1
  Cu  Cu97  1  -0.00481799  0.66560846  0.50044731  1
  Cu  Cu98  1  0.83288776  0.49567746  0.25984096  1
  Cu  Cu99  1  0.00529285  0.33170377  -0.00052860  1
  Cu  Cu100  1  0.33431851  0.66412441  0.00754585  1
  Cu  Cu101  1  0.16626113  0.49512070  0.25607725  1
  Cu  Cu102  1  0.50769648  0.83121589  0.25082911  1
  Cu  Cu103  1  0.33470546  0.00053577  0.00571380  1
  Cu  Cu104  1  0.66468651  -0.00698706  0.49470838  1
  Cu  Cu105  1  -0.00132846  0.01106247  -0.00568293  1
  Cu  Cu106  1  0.49123785  0.83955147  0.75553447  1
  Cu  Cu107  1  0.66823353  0.33038828  0.49011011  1
  Cu  Cu108  1  0.83213661  0.16833264  0.25482578  1
  Cu  Cu109  1  0.00575226  0.66209444  -0.00790524  1
  Cu  Cu110  1  0.49609214  0.50051838  0.25104484  1
  Cu  Cu111  1  0.66690225  0.32852882  0.00723169  1
  Cu  Cu112  1  0.49692089  0.16529210  0.24721747  1
  Cu  Cu113  1  0.66863143  0.66045445  0.49745581  1
  Cu  Cu114  1  0.84435965  0.17336575  0.74422604  1
  Se  Se115  1  0.08764223  0.08418982  0.04992046  1
  Se  Se116  1  0.08704231  0.08463570  0.55611753  1
  Se  Se117  1  0.08446133  0.41735151  0.05439270  1
  Se  Se118  1  0.07752557  0.41835232  0.54860583  1
  Se  Se119  1  0.07756614  0.74216825  0.05840081  1
  Se  Se120  1  0.07736350  0.74709853  0.56076404  1
  Se  Se121  1  0.41587713  0.08734424  0.05815991  1
  Se  Se122  1  0.40996595  0.07641888  0.55807312  1
  Se  Se123  1  0.40802855  0.40833303  0.06245342  1
  Se  Se124  1  0.42293602  0.41713586  0.54659382  1
  Se  Se125  1  0.41647977  0.75016587  0.05706894  1
  Se  Se126  1  0.40955776  0.74626888  0.55576694  1
  Se  Se127  1  0.75012042  0.08840185  0.05509942  1
  Se  Se128  1  0.74556928  0.08146398  0.54606025  1
  Se  Se129  1  0.74320534  0.41291278  0.06613755  1
  Se  Se130  1  0.74979199  0.41599363  0.54447339  1
  Se  Se131  1  0.74633658  0.74733469  0.06985487  1
  Se  Se132  1  0.74811708  0.75115312  0.54722560  1
  Se  Se133  1  0.24323953  0.24517470  0.05865315  1
  Se  Se134  1  0.25562298  0.25405840  0.55214157  1
  Se  Se135  1  0.24773457  0.57765744  0.05219064  1
  Se  Se136  1  0.25660077  0.59383760  0.54319236  1
  Se  Se137  1  0.25583855  0.92068006  0.06766360  1
  Se  Se138  1  0.25498083  0.92412431  0.55809979  1
  Se  Se139  1  0.57855772  0.24817376  0.05701221  1
  Se  Se140  1  0.59467338  0.25755479  0.56132572  1
  Se  Se141  1  0.58272010  0.57990634  0.06176610  1
  Se  Se142  1  0.58381415  0.58065503  0.55166327  1
  Se  Se143  1  0.58021401  0.91654104  0.05657910  1
  Se  Se144  1  0.58204162  0.92082006  0.55762085  1
  Se  Se145  1  0.91558829  0.25468362  0.05351887  1
  Se  Se146  1  0.89871622  0.22297673  0.55592470  1
  Se  Se147  1  0.92298273  0.58662358  0.05463806  1
  Se  Se148  1  0.91469687  0.58092330  0.55490390  1
  Se  Se149  1  0.92083309  0.92847607  0.05520075  1
  Se  Se150  1  0.91621463  0.91231900  0.55081905  1
  Se  Se151  1  0.08964612  0.25504525  0.45308814  1
  Se  Se152  1  0.08664618  0.24514288  0.94677452  1
  Se  Se153  1  0.08356148  0.58608058  0.44904921  1
  Se  Se154  1  0.08582506  0.57722162  0.93978473  1
  Se  Se155  1  0.08119421  0.92743680  0.43816892  1
  Se  Se156  1  0.07631695  0.92268888  0.93794591  1
  Se  Se157  1  0.41515450  0.25502225  0.43523425  1
  Se  Se158  1  0.41562479  0.24637079  0.95172391  1
  Se  Se159  1  0.41745701  0.58122664  0.44897020  1
  Se  Se160  1  0.40631851  0.58660800  0.93779372  1
  Se  Se161  1  0.40631916  0.92775982  0.44163065  1
  Se  Se162  1  0.41674473  0.91389890  0.95343496  1
  Se  Se163  1  0.74900600  0.24144493  0.44157876  1
  Se  Se164  1  0.75388084  0.25310577  0.94993750  1
  Se  Se165  1  0.75231584  0.57573197  0.44610621  1
  Se  Se166  1  0.74033972  0.59749508  0.94924449  1
  Se  Se167  1  0.75179420  0.91310058  0.44312728  1
  Se  Se168  1  0.73999339  0.93012640  0.93938724  1
  Se  Se169  1  0.25025167  0.09480532  0.45310806  1
  Se  Se170  1  0.24874747  0.07879913  0.94955120  1
  Se  Se171  1  0.24978719  0.41943724  0.44258698  1
  Se  Se172  1  0.24722782  0.41361184  0.94945970  1
  Se  Se173  1  0.26098709  0.74753122  0.43671141  1
  Se  Se174  1  0.25548928  0.74259031  0.94188446  1
  Se  Se175  1  0.58418435  0.07752321  0.43796689  1
  Se  Se176  1  0.58112023  0.08854410  0.95175856  1
  Se  Se177  1  0.58009874  0.41606406  0.44483275  1
  Se  Se178  1  0.59306476  0.40428854  0.93814828  1
  Se  Se179  1  0.59115753  0.73901093  0.43286144  1
  Se  Se180  1  0.57541822  0.75490653  0.95624086  1
  Se  Se181  1  0.92051211  0.08126635  0.44738569  1
  Se  Se182  1  0.91178119  0.09267800  0.94391799  1
  Se  Se183  1  0.91289720  0.40727319  0.45514989  1
  Se  Se184  1  0.93051604  0.41437186  0.93513739  1
  Se  Se185  1  0.91275812  0.75128717  0.44953527  1
  Se  Se186  1  0.92211512  0.74718571  0.94000738  1
  Se  Se187  1  0.25393738  0.25452149  0.30241725  1
  Se  Se188  1  0.24780768  0.24352022  0.81288636  1
  Se  Se189  1  0.25096616  0.58222915  0.30336980  1
  Se  Se190  1  0.24417927  0.57296652  0.80321779  1
  Se  Se191  1  0.24714876  0.92905629  0.30184297  1
  Se  Se192  1  0.24819997  0.91359640  0.80158913  1
  Se  Se193  1  0.58206900  0.25002684  0.29838356  1
  Se  Se194  1  0.57857284  0.24040658  0.80948923  1
  Se  Se195  1  0.58332056  0.58206048  0.30361522  1
  Se  Se196  1  0.56856510  0.57294408  0.80404940  1
  Se  Se197  1  0.58880985  0.91959155  0.30120879  1
  Se  Se198  1  0.57783369  0.91387695  0.81442527  1
  Se  Se199  1  0.91606766  0.25198941  0.30721573  1
  Se  Se200  1  0.92372758  0.25633795  0.80112121  1
  Se  Se201  1  0.91899452  0.56406212  0.32379186  1
  Se  Se202  1  0.91730983  0.58567006  0.79767933  1
  Se  Se203  1  0.91611419  0.91149727  0.31106784  1
  Se  Se204  1  0.91419985  0.92271592  0.79805491  1
  Se  Se205  1  0.08341902  0.10018649  0.31418253  1
  Se  Se206  1  0.08082845  0.08303373  0.80428787  1
  Se  Se207  1  0.08169832  0.41157494  0.30767242  1
  Se  Se208  1  0.08724413  0.40530508  0.79620311  1
  Se  Se209  1  0.09471090  0.75799889  0.30861562  1
  Se  Se210  1  0.08136483  0.74712580  0.79998786  1
  Se  Se211  1  0.41305629  0.08354927  0.30151786  1
  Se  Se212  1  0.41268023  0.07915852  0.80557458  1
  Se  Se213  1  0.41203321  0.41697175  0.30303196  1
  Se  Se214  1  0.42309737  0.42018787  0.80220439  1
  Se  Se215  1  0.41942377  0.75297660  0.30408640  1
  Se  Se216  1  0.41582079  0.75045402  0.81197210  1
  Se  Se217  1  0.74964875  0.07821878  0.30129930  1
  Se  Se218  1  0.75670098  0.09853008  0.80413124  1
  Se  Se219  1  0.74537876  0.41084198  0.30775787  1
  Se  Se220  1  0.76043848  0.42822937  0.80882097  1
  Se  Se221  1  0.75571467  0.74386725  0.30446673  1
  Se  Se222  1  0.75956045  0.76233996  0.80810099  1
  Se  Se223  1  0.24641588  0.08779459  0.20057737  1
  Se  Se224  1  0.25034467  0.08360588  0.69902310  1
  Se  Se225  1  0.24846161  0.41487070  0.19780736  1
  Se  Se226  1  0.24270721  0.42564837  0.68276450  1
  Se  Se227  1  0.24542861  0.74674004  0.20274944  1
  Se  Se228  1  0.23534720  0.75230979  0.68147993  1
  Se  Se229  1  0.58336222  0.08169458  0.19578641  1
  Se  Se230  1  0.57935918  0.09407069  0.69443277  1
  Se  Se231  1  0.58266534  0.41545003  0.20166104  1
  Se  Se232  1  0.57844662  0.42147546  0.69282407  1
  Se  Se233  1  0.59104202  0.74312078  0.20020325  1
  Se  Se234  1  0.57130535  0.75763366  0.69610012  1
  Se  Se235  1  0.91430005  0.09316688  0.18979843  1
  Se  Se236  1  0.92210431  0.08131911  0.69429664  1
  Se  Se237  1  0.91659653  0.41565323  0.20332579  1
  Se  Se238  1  0.92013274  0.41167478  0.68855486  1
  Se  Se239  1  0.92059765  0.75380468  0.19200763  1
  Se  Se240  1  0.91697300  0.74820906  0.69377824  1
  Se  Se241  1  0.07602767  0.25484610  0.19618725  1
  Se  Se242  1  0.08918693  0.25210053  0.69252056  1
  Se  Se243  1  0.08536687  0.57518686  0.19268697  1
  Se  Se244  1  0.07745848  0.58664376  0.69858606  1
  Se  Se245  1  0.09659014  0.90837983  0.19667233  1
  Se  Se246  1  0.08094184  0.92071664  0.69837183  1
  Se  Se247  1  0.41230481  0.25215135  0.19825890  1
  Se  Se248  1  0.42552865  0.23865765  0.69252792  1
  Se  Se249  1  0.41396564  0.58552662  0.19708476  1
  Se  Se250  1  0.42055297  0.57235149  0.68616167  1
  Se  Se251  1  0.42149611  0.91334926  0.19734725  1
  Se  Se252  1  0.41006492  0.92160442  0.70099077  1
  Se  Se253  1  0.74747924  0.24934865  0.19830718  1
  Se  Se254  1  0.76466270  0.25424756  0.68469796  1
  Se  Se255  1  0.75367763  0.58414650  0.20728362  1
  Se  Se256  1  0.75344966  0.57797563  0.68658782  1
  Se  Se257  1  0.75430590  0.91601795  0.20073738  1
  Se  Se258  1  0.75433954  0.91575586  0.68052766  1
