# generated using pymatgen
data_In86Cu29Se144
_symmetry_space_group_name_H-M   'P 1'
_cell_length_a   17.58271400
_cell_length_b   17.58134221
_cell_length_c   23.44095559
_cell_angle_alpha   89.98576988
_cell_angle_beta   90.02811965
_cell_angle_gamma   89.97162472
_symmetry_Int_Tables_number   1
_chemical_formula_structural   In86Cu29Se144
_chemical_formula_sum   'In86 Cu29 Se144'
_cell_volume   7246.24697916
_cell_formula_units_Z   1
loop_
 _symmetry_equiv_pos_site_id
 _symmetry_equiv_pos_as_xyz
  1  'x, y, z'
loop_
 _atom_site_type_symbol
 _atom_site_label
 _atom_site_symmetry_multiplicity
 _atom_site_fract_x
 _atom_site_fract_y
 _atom_site_fract_z
 _atom_site_occupancy
  In  In0  1  -0.00690924  0.16098263  0.12749855  1
  In  In1  1  -0.01395349  0.17836171  0.64012816  1
  In  In2  1  -0.00354953  0.49897784  0.13695897  1
  In  In3  1  -0.00963888  0.50420518  0.62509516  1
  In  In4  1  0.00001871  0.83310979  0.12272213  1
  In  In5  1  -0.00075889  0.83497538  0.62903913  1
  In  In6  1  0.33313934  0.18343699  0.12498296  1
  In  In7  1  0.33464016  0.15667214  0.62759142  1
  In  In8  1  0.33792096  0.48930279  0.13107583  1
  In  In9  1  0.34131390  0.49389574  0.62488321  1
  In  In10  1  0.31552244  0.81133988  0.10585246  1
  In  In11  1  0.34833109  0.83700932  0.63399619  1
  In  In12  1  0.68019416  0.16845604  0.12699493  1
  In  In13  1  0.69159506  0.19178424  0.60543170  1
  In  In14  1  0.65459419  0.49473364  0.12354426  1
  In  In15  1  0.66551475  0.48550852  0.61154041  1
  In  In16  1  0.66223643  0.81704930  0.10316640  1
  In  In17  1  0.67456424  0.81990281  0.62823295  1
  In  In18  1  0.15699548  0.01267287  0.37162795  1
  In  In19  1  0.16504186  0.00070319  0.87831416  1
  In  In20  1  0.16063851  0.32872195  0.36597980  1
  In  In21  1  0.14491125  0.33881156  0.87842038  1
  In  In22  1  0.16518686  0.66252465  0.36243537  1
  In  In23  1  0.16813087  0.68146264  0.88130448  1
  In  In24  1  0.51913655  0.00147155  0.37294568  1
  In  In25  1  0.48894116  0.00152044  0.87171249  1
  In  In26  1  0.50055285  0.33840032  0.37641036  1
  In  In27  1  0.51377228  0.34123381  0.87271286  1
  In  In28  1  0.49207130  0.65693927  0.36639701  1
  In  In29  1  0.50588190  0.65987343  0.89471252  1
  In  In30  1  0.83653854  -0.00148389  0.37955206  1
  In  In31  1  0.84571150  -0.00787103  0.87732343  1
  In  In32  1  0.84299238  0.33892268  0.38371785  1
  In  In33  1  0.81996330  0.32482235  0.87084278  1
  In  In34  1  0.84573117  0.66088634  0.38364161  1
  In  In35  1  0.84605709  0.66620588  0.87380093  1
  In  In36  1  -0.00203823  0.16589969  0.37230959  1
  In  In37  1  -0.00304630  0.16668490  0.87719965  1
  In  In38  1  -0.00480153  0.50009281  0.37290072  1
  In  In39  1  -0.01543614  0.49639072  0.86387267  1
  In  In40  1  -0.01173413  0.82710207  0.36184345  1
  In  In41  1  0.00196206  0.83588175  0.87471779  1
  In  In42  1  0.32466890  0.17967811  0.37288939  1
  In  In43  1  0.33660526  0.15278528  0.87440418  1
  In  In44  1  0.33878275  0.50396210  0.36849743  1
  In  In45  1  0.34548838  0.50904650  0.88005361  1
  In  In46  1  0.34366912  0.82357263  0.36633430  1
  In  In47  1  0.32106688  0.83499924  0.88940782  1
  In  In48  1  0.65882905  0.19384572  0.39816987  1
  In  In49  1  0.67212376  0.19139342  0.87467254  1
  In  In50  1  0.68404934  0.47530542  0.39361520  1
  In  In51  1  0.66087217  0.48638851  0.87727397  1
  In  In52  1  0.67639588  0.84185115  0.37269681  1
  In  In53  1  0.67479027  0.82223888  0.89228678  1
  In  In54  1  0.15554082  -0.01076721  0.11651160  1
  In  In55  1  0.16649022  0.00114562  0.63530419  1
  In  In56  1  0.16659627  0.32753235  0.12647973  1
  In  In57  1  0.16198529  0.31982770  0.62768500  1
  In  In58  1  0.15515140  0.67092815  0.12956519  1
  In  In59  1  0.15420794  0.66063667  0.62503223  1
  In  In60  1  0.50950057  -0.00674617  0.12614684  1
  In  In61  1  0.49311068  0.00615791  0.63476040  1
  In  In62  1  0.49616450  0.33598399  0.13260625  1
  In  In63  1  0.52249191  0.35032651  0.60705999  1
  In  In64  1  0.48357973  0.64502786  0.10327218  1
  In  In65  1  0.50917264  0.65862191  0.62598805  1
  In  In66  1  0.84014705  0.00370148  0.12111533  1
  In  In67  1  0.84622944  0.01144522  0.62256595  1
  In  In68  1  0.84028867  0.32771631  0.13465138  1
  In  In69  1  0.83727256  0.33429126  0.61984198  1
  In  In70  1  0.83030621  0.67789447  0.12097492  1
  In  In71  1  0.84688751  0.66574596  0.60717546  1
  In  In72  1  0.50090029  0.16484166  -0.00094586  1
  In  In73  1  0.66462240  0.00713624  0.75130197  1
  In  In74  1  0.82392766  0.50329294  0.00039099  1
  In  In75  1  0.32900710  0.00024980  0.24710829  1
  In  In76  1  0.68316064  0.00299163  0.24696129  1
  In  In77  1  0.51052296  0.83065765  0.50353976  1
  In  In78  1  0.15911305  0.49739252  0.49628299  1
  In  In79  1  0.32724441  0.67248126  0.75657748  1
  In  In80  1  0.66749836  0.66124674  0.24496903  1
  In  In81  1  0.66891521  0.65605701  0.75429892  1
  In  In82  1  0.16274254  0.83365070  0.50510327  1
  In  In83  1  0.16671585  0.49915415  0.00096685  1
  In  In84  1  0.32890668  0.32732801  0.75033663  1
  In  In85  1  0.16134853  0.16782223  0.49483380  1
  Cu  Cu86  1  0.50607812  0.17756040  0.74596256  1
  Cu  Cu87  1  0.66960066  0.00125302  0.50106618  1
  Cu  Cu88  1  -0.00135142  0.00110457  -0.00119893  1
  Cu  Cu89  1  0.83469032  0.17084787  0.74759592  1
  Cu  Cu90  1  0.49542607  0.83636007  0.76178035  1
  Cu  Cu91  1  0.16434862  0.83812622  0.75829021  1
  Cu  Cu92  1  0.15473222  0.50218053  0.75058215  1
  Cu  Cu93  1  0.67396788  0.00631034  -0.00224279  1
  Cu  Cu94  1  0.16261518  0.16022019  0.75507303  1
  Cu  Cu95  1  0.32981364  0.00179204  -0.00109772  1
  Cu  Cu96  1  0.49687047  0.82481345  0.23976630  1
  Cu  Cu97  1  0.15752325  0.16788303  0.24587145  1
  Cu  Cu98  1  0.50162451  0.17489736  0.25717241  1
  Cu  Cu99  1  0.82943628  0.17210482  0.25798303  1
  Cu  Cu100  1  0.33567254  0.33361890  0.00497010  1
  Cu  Cu101  1  0.34480345  -0.00332405  0.50305460  1
  Cu  Cu102  1  0.66623054  0.66842257  0.50207738  1
  Cu  Cu103  1  0.84140863  0.83233741  0.74638167  1
  Cu  Cu104  1  0.16365375  0.83519528  0.24098620  1
  Cu  Cu105  1  -0.00105990  0.00003275  0.50229171  1
  Cu  Cu106  1  0.82813885  0.49944273  0.74280182  1
  Cu  Cu107  1  -0.00916303  0.32344724  0.00293276  1
  Cu  Cu108  1  0.17111788  0.49984751  0.24854032  1
  Cu  Cu109  1  0.33350843  0.66093470  0.49282707  1
  Cu  Cu110  1  0.50346017  0.49727170  0.25017394  1
  Cu  Cu111  1  0.83772401  0.83382819  0.24401116  1
  Cu  Cu112  1  0.34175391  0.33363536  0.49582597  1
  Cu  Cu113  1  0.00394712  0.67083861  -0.00176785  1
  Cu  Cu114  1  0.83314602  0.49804774  0.25951353  1
  Se  Se115  1  0.07903788  0.08549339  0.05483555  1
  Se  Se116  1  0.08095224  0.07880607  0.56202791  1
  Se  Se117  1  0.07005868  0.41158499  0.05898248  1
  Se  Se118  1  0.07817360  0.40697735  0.56124638  1
  Se  Se119  1  0.08638042  0.75287515  0.05267701  1
  Se  Se120  1  0.06881106  0.73811175  0.55343446  1
  Se  Se121  1  0.41017227  0.07739338  0.06303698  1
  Se  Se122  1  0.42215762  0.08337805  0.55605985  1
  Se  Se123  1  0.42011794  0.41486993  0.05666209  1
  Se  Se124  1  0.41797557  0.42331418  0.54830072  1
  Se  Se125  1  0.43844639  0.77003166  0.05611101  1
  Se  Se126  1  0.40997434  0.74086326  0.55816775  1
  Se  Se127  1  0.75428314  0.08709873  0.05420075  1
  Se  Se128  1  0.75854277  0.08213977  0.55098953  1
  Se  Se129  1  0.74735193  0.40692143  0.06294804  1
  Se  Se130  1  0.74753512  0.40183372  0.54641579  1
  Se  Se131  1  0.76057356  0.74769776  0.04080412  1
  Se  Se132  1  0.75224427  0.75319519  0.55018319  1
  Se  Se133  1  0.24628553  0.25070390  0.05085193  1
  Se  Se134  1  0.25955948  0.25440311  0.55533027  1
  Se  Se135  1  0.25029821  0.58298715  0.06701632  1
  Se  Se136  1  0.25408954  0.58729895  0.55805512  1
  Se  Se137  1  0.24502871  0.91529931  0.04799798  1
  Se  Se138  1  0.26199626  0.92098942  0.56246005  1
  Se  Se139  1  0.58552579  0.25194937  0.06295312  1
  Se  Se140  1  0.56983257  0.23286085  0.55280232  1
  Se  Se141  1  0.60499435  0.59642489  0.05473033  1
  Se  Se142  1  0.58212791  0.58273080  0.55090409  1
  Se  Se143  1  0.58787198  0.92462304  0.04958014  1
  Se  Se144  1  0.59254693  0.92391470  0.56692594  1
  Se  Se145  1  0.90793198  0.24390706  0.05829434  1
  Se  Se146  1  0.92039683  0.24165987  0.55681049  1
  Se  Se147  1  0.92642410  0.58614704  0.05777074  1
  Se  Se148  1  0.90839213  0.56111255  0.54271435  1
  Se  Se149  1  0.91698331  0.91545237  0.05312031  1
  Se  Se150  1  0.91892378  0.91550029  0.55729940  1
  Se  Se151  1  0.07135498  0.26437181  0.44315892  1
  Se  Se152  1  0.08063545  0.24745977  0.94962163  1
  Se  Se153  1  0.07833459  0.59755389  0.43981466  1
  Se  Se154  1  0.07235619  0.58152490  0.93685371  1
  Se  Se155  1  0.07823595  0.92225707  0.43966397  1
  Se  Se156  1  0.08306393  0.91615291  0.94658983  1
  Se  Se157  1  0.41757817  0.24546288  0.44158843  1
  Se  Se158  1  0.41223382  0.25631406  0.93761441  1
  Se  Se159  1  0.41989834  0.57905442  0.44365249  1
  Se  Se160  1  0.41152756  0.58412629  0.95838780  1
  Se  Se161  1  0.41851895  0.91757887  0.43857971  1
  Se  Se162  1  0.41655159  0.92175361  0.94647210  1
  Se  Se163  1  0.76873898  0.25085187  0.45484806  1
  Se  Se164  1  0.74902931  0.25713470  0.95248670  1
  Se  Se165  1  0.74865547  0.58781384  0.44639896  1
  Se  Se166  1  0.74168776  0.59213501  0.93401743  1
  Se  Se167  1  0.75146967  0.91609200  0.44856434  1
  Se  Se168  1  0.75709163  0.91907803  0.94790837  1
  Se  Se169  1  0.25990241  0.07275486  0.44264254  1
  Se  Se170  1  0.24802099  0.08726651  0.94715235  1
  Se  Se171  1  0.25382417  0.40895405  0.43722753  1
  Se  Se172  1  0.25652380  0.40906011  0.93880454  1
  Se  Se173  1  0.25442713  0.74692899  0.43900745  1
  Se  Se174  1  0.25809371  0.73613178  0.95596864  1
  Se  Se175  1  0.58390870  0.08286948  0.44936234  1
  Se  Se176  1  0.59186839  0.08091346  0.93402982  1
  Se  Se177  1  0.57787853  0.41341919  0.45243078  1
  Se  Se178  1  0.57707517  0.41848527  0.95182487  1
  Se  Se179  1  0.58924564  0.74323095  0.43356650  1
  Se  Se180  1  0.57108226  0.76331346  0.95431373  1
  Se  Se181  1  0.92110193  0.08418120  0.44511112  1
  Se  Se182  1  0.91346023  0.08534767  0.94710772  1
  Se  Se183  1  0.91055660  0.43964532  0.45133643  1
  Se  Se184  1  0.91751446  0.41159844  0.94278106  1
  Se  Se185  1  0.90897912  0.76815971  0.44239838  1
  Se  Se186  1  0.91875569  0.75226905  0.94468681  1
  Se  Se187  1  0.24587466  0.24955898  0.29658341  1
  Se  Se188  1  0.23884594  0.24471103  0.81586915  1
  Se  Se189  1  0.25682001  0.58517005  0.29839750  1
  Se  Se190  1  0.23827192  0.57461701  0.81322586  1
  Se  Se191  1  0.24014566  0.90953349  0.31011774  1
  Se  Se192  1  0.25231944  0.91557471  0.81150833  1
  Se  Se193  1  0.58834003  0.25254921  0.31090818  1
  Se  Se194  1  0.58868969  0.25981555  0.79882379  1
  Se  Se195  1  0.59038627  0.56902682  0.31212401  1
  Se  Se196  1  0.57001501  0.57665990  0.81187501  1
  Se  Se197  1  0.57999368  0.90582208  0.29688872  1
  Se  Se198  1  0.58821070  0.90935923  0.81620272  1
  Se  Se199  1  0.91729923  0.25557999  0.30801710  1
  Se  Se200  1  0.91615489  0.25184399  0.80666401  1
  Se  Se201  1  0.91741621  0.58878976  0.30348423  1
  Se  Se202  1  0.91080722  0.58620249  0.79489287  1
  Se  Se203  1  0.91090817  0.92383622  0.30009635  1
  Se  Se204  1  0.92118070  0.91615897  0.80132685  1
  Se  Se205  1  0.07513618  0.08315967  0.29800859  1
  Se  Se206  1  0.07847721  0.07949105  0.80916329  1
  Se  Se207  1  0.08320390  0.42293357  0.30408868  1
  Se  Se208  1  0.07353822  0.41328606  0.79994028  1
  Se  Se209  1  0.08344841  0.75191851  0.29861436  1
  Se  Se210  1  0.08316967  0.74787968  0.80599459  1
  Se  Se211  1  0.42241776  0.08524821  0.31058596  1
  Se  Se212  1  0.42393457  0.09108279  0.79758726  1
  Se  Se213  1  0.41696137  0.41399532  0.30266421  1
  Se  Se214  1  0.41818438  0.42226917  0.80557951  1
  Se  Se215  1  0.41624253  0.74044919  0.29387791  1
  Se  Se216  1  0.42090306  0.75140731  0.82060661  1
  Se  Se217  1  0.74674194  0.09554223  0.31998361  1
  Se  Se218  1  0.75683756  0.09221390  0.81269093  1
  Se  Se219  1  0.75282244  0.41035369  0.30974174  1
  Se  Se220  1  0.74899670  0.42045245  0.80327504  1
  Se  Se221  1  0.75759992  0.75322947  0.30507202  1
  Se  Se222  1  0.75604890  0.75842703  0.80683698  1
  Se  Se223  1  0.24118293  0.08939087  0.18532632  1
  Se  Se224  1  0.25210319  0.08365253  0.70159289  1
  Se  Se225  1  0.24856073  0.41012433  0.19586181  1
  Se  Se226  1  0.23873267  0.42496845  0.69140213  1
  Se  Se227  1  0.25065156  0.74998041  0.19355297  1
  Se  Se228  1  0.23870015  0.75951120  0.68984526  1
  Se  Se229  1  0.57805287  0.09211575  0.19571897  1
  Se  Se230  1  0.58967728  0.10053236  0.68506650  1
  Se  Se231  1  0.58747315  0.41216430  0.20025977  1
  Se  Se232  1  0.58066924  0.42561517  0.68989170  1
  Se  Se233  1  0.57871055  0.74630365  0.18139965  1
  Se  Se234  1  0.57383315  0.75658941  0.69982980  1
  Se  Se235  1  0.90559257  0.08549975  0.19990702  1
  Se  Se236  1  0.91876363  0.07845130  0.70491685  1
  Se  Se237  1  0.91704597  0.41407235  0.20453583  1
  Se  Se238  1  0.91577817  0.41496472  0.69406947  1
  Se  Se239  1  0.91926126  0.74664378  0.19269456  1
  Se  Se240  1  0.91325347  0.74301039  0.68886990  1
  Se  Se241  1  0.07458906  0.25224204  0.19301024  1
  Se  Se242  1  0.08335433  0.25021043  0.70453166  1
  Se  Se243  1  0.08230923  0.58382261  0.20050136  1
  Se  Se244  1  0.07322124  0.58560900  0.69661941  1
  Se  Se245  1  0.07718389  0.92054703  0.19452648  1
  Se  Se246  1  0.08154643  0.91625829  0.69879603  1
  Se  Se247  1  0.41436400  0.25142310  0.20162742  1
  Se  Se248  1  0.42293311  0.25328497  0.68404998  1
  Se  Se249  1  0.42398681  0.58048386  0.19241915  1
  Se  Se250  1  0.41884406  0.58192070  0.69671924  1
  Se  Se251  1  0.41392724  0.90868536  0.18543067  1
  Se  Se252  1  0.41679921  0.92228786  0.70744420  1
  Se  Se253  1  0.74640063  0.25308292  0.20252486  1
  Se  Se254  1  0.75283379  0.25483818  0.69356666  1
  Se  Se255  1  0.76218271  0.57185273  0.18754690  1
  Se  Se256  1  0.75296641  0.58151645  0.67996636  1
  Se  Se257  1  0.74986389  0.90220908  0.18107760  1
  Se  Se258  1  0.75571622  0.91407938  0.69148916  1
