# generated using pymatgen
data_In86Cu29Se144
_symmetry_space_group_name_H-M   'P 1'
_cell_length_a   17.59119703
_cell_length_b   17.58768926
_cell_length_c   23.44912227
_cell_angle_alpha   89.98443817
_cell_angle_beta   89.98418916
_cell_angle_gamma   90.01202901
_symmetry_Int_Tables_number   1
_chemical_formula_structural   In86Cu29Se144
_chemical_formula_sum   'In86 Cu29 Se144'
_cell_volume   7254.88822642
_cell_formula_units_Z   1
loop_
 _symmetry_equiv_pos_site_id
 _symmetry_equiv_pos_as_xyz
  1  'x, y, z'
loop_
 _atom_site_type_symbol
 _atom_site_label
 _atom_site_symmetry_multiplicity
 _atom_site_fract_x
 _atom_site_fract_y
 _atom_site_fract_z
 _atom_site_occupancy
  In  In0  1  0.01561823  0.17778516  0.12136688  1
  In  In1  1  -0.00301369  0.17064582  0.63684370  1
  In  In2  1  0.01236903  0.48878626  0.12574471  1
  In  In3  1  0.00243539  0.50429081  0.62855553  1
  In  In4  1  0.00117805  0.83569473  0.11431812  1
  In  In5  1  0.00436969  0.82877052  0.63018171  1
  In  In6  1  0.33747223  0.16332676  0.12391197  1
  In  In7  1  0.34452113  0.17994059  0.62593001  1
  In  In8  1  0.32904559  0.49506798  0.11541471  1
  In  In9  1  0.33157607  0.50174700  0.62046413  1
  In  In10  1  0.33078770  0.84299898  0.12501269  1
  In  In11  1  0.31083866  0.82256859  0.61970402  1
  In  In12  1  0.66291099  0.18281158  0.12209329  1
  In  In13  1  0.66647717  0.16724388  0.63405970  1
  In  In14  1  0.66424956  0.51396754  0.12439535  1
  In  In15  1  0.66682280  0.50062959  0.62659803  1
  In  In16  1  0.66630772  0.81704677  0.12345437  1
  In  In17  1  0.67970091  0.81906191  0.63526810  1
  In  In18  1  0.17100193  -0.01422064  0.37406483  1
  In  In19  1  0.15105898  -0.00813235  0.86733116  1
  In  In20  1  0.18369418  0.34922633  0.36438892  1
  In  In21  1  0.17392134  0.34329048  0.87084123  1
  In  In22  1  0.17275701  0.67097263  0.38742144  1
  In  In23  1  0.16314707  0.66380120  0.87197069  1
  In  In24  1  0.49535890  0.01128001  0.37234269  1
  In  In25  1  0.50954592  0.00034626  0.87415676  1
  In  In26  1  0.49013323  0.35195910  0.37655320  1
  In  In27  1  0.49517531  0.33764184  0.88045761  1
  In  In28  1  0.49440612  0.62885311  0.36886188  1
  In  In29  1  0.48576025  0.65193072  0.86331550  1
  In  In30  1  0.82858309  -0.01228282  0.38092631  1
  In  In31  1  0.82379688  -0.00976394  0.86998755  1
  In  In32  1  0.84793655  0.33546386  0.37583631  1
  In  In33  1  0.83999900  0.34299272  0.86531010  1
  In  In34  1  0.82734473  0.67082518  0.38400654  1
  In  In35  1  0.84395968  0.67536833  0.86497890  1
  In  In36  1  -0.00161399  0.17717994  0.37431063  1
  In  In37  1  0.00623209  0.16997530  0.86434619  1
  In  In38  1  0.01255253  0.49255409  0.38539888  1
  In  In39  1  0.00643713  0.50585028  0.86895963  1
  In  In40  1  0.00839881  0.82353164  0.38613938  1
  In  In41  1  -0.00121460  0.82553735  0.87319268  1
  In  In42  1  0.33610924  0.16947975  0.36478968  1
  In  In43  1  0.33133911  0.18910125  0.88012722  1
  In  In44  1  0.34411096  0.48892007  0.39791464  1
  In  In45  1  0.32869420  0.49478890  0.87826764  1
  In  In46  1  0.31991008  0.82998292  0.36929064  1
  In  In47  1  0.32686045  0.81523180  0.86829085  1
  In  In48  1  0.66415566  0.16710444  0.37575628  1
  In  In49  1  0.65860261  0.16323073  0.87518681  1
  In  In50  1  0.65361644  0.51086382  0.38565523  1
  In  In51  1  0.66054704  0.49272494  0.86480939  1
  In  In52  1  0.67931193  0.82457729  0.38216436  1
  In  In53  1  0.66895341  0.83766150  0.86583098  1
  In  In54  1  0.17401931  -0.00016264  0.12208701  1
  In  In55  1  0.16363320  -0.01685498  0.63129238  1
  In  In56  1  0.16549039  0.34556560  0.12435624  1
  In  In57  1  0.16721720  0.34204716  0.63060209  1
  In  In58  1  0.17160795  0.66765311  0.11639042  1
  In  In59  1  0.16867107  0.66248890  0.62967213  1
  In  In60  1  0.48458414  -0.00038334  0.12265721  1
  In  In61  1  0.50165465  0.00992904  0.63083827  1
  In  In62  1  0.48695473  0.32894177  0.10662765  1
  In  In63  1  0.48147247  0.35836822  0.63964035  1
  In  In64  1  0.50967516  0.66708456  0.12403643  1
  In  In65  1  0.50729978  0.65669576  0.63088687  1
  In  In66  1  0.84497113  -0.00804314  0.12182325  1
  In  In67  1  0.84880714  -0.01527866  0.63681808  1
  In  In68  1  0.84285081  0.34551707  0.12350558  1
  In  In69  1  0.82748111  0.33870920  0.63290786  1
  In  In70  1  0.82324530  0.66778475  0.12211530  1
  In  In71  1  0.83478362  0.66492549  0.62545156  1
  In  In72  1  0.00729218  0.00407428  0.24917714  1
  In  In73  1  0.49930064  0.82654445  0.50395749  1
  In  In74  1  0.49429301  0.82848542  -0.00379716  1
  In  In75  1  0.65882307  0.34289543  0.25078989  1
  In  In76  1  0.66636097  -0.00188110  0.25559987  1
  In  In77  1  0.83201003  0.16349129  0.49643267  1
  In  In78  1  0.82862397  0.16421957  0.00210907  1
  In  In79  1  -0.00012356  0.66723207  0.26252481  1
  In  In80  1  0.16841684  0.16730720  -0.00474934  1
  In  In81  1  0.83591638  0.50748133  -0.00559673  1
  In  In82  1  0.33292608  0.66333327  0.24965769  1
  In  In83  1  0.33318377  -0.00189401  0.75208793  1
  In  In84  1  0.16591437  0.17369376  0.50899965  1
  In  In85  1  0.50452247  0.17272237  0.49594724  1
  Cu  Cu86  1  0.83446169  0.82605263  0.25495662  1
  Cu  Cu87  1  0.83303826  0.50200589  0.74422407  1
  Cu  Cu88  1  0.49692060  0.83086704  0.74914926  1
  Cu  Cu89  1  0.67702081  -0.01141489  0.50997002  1
  Cu  Cu90  1  0.00136753  -0.01063136  0.50706999  1
  Cu  Cu91  1  0.66392982  0.33986565  0.51005686  1
  Cu  Cu92  1  0.50091293  0.49767763  0.75033463  1
  Cu  Cu93  1  0.17068177  0.50157848  0.74925024  1
  Cu  Cu94  1  -0.00218963  0.66697005  0.50825776  1
  Cu  Cu95  1  0.17285333  0.17576391  0.24438276  1
  Cu  Cu96  1  0.83256928  0.49950453  0.24942229  1
  Cu  Cu97  1  0.49288708  0.16754947  0.24476366  1
  Cu  Cu98  1  0.66440858  0.66207344  0.50620329  1
  Cu  Cu99  1  0.66583519  -0.00555289  -0.00573986  1
  Cu  Cu100  1  0.66081167  0.33728044  -0.00640827  1
  Cu  Cu101  1  0.50475918  0.17462875  0.75405427  1
  Cu  Cu102  1  0.32808992  -0.00134921  -0.00087934  1
  Cu  Cu103  1  0.82864292  0.16612431  0.75586764  1
  Cu  Cu104  1  -0.00744747  -0.00868059  -0.00939058  1
  Cu  Cu105  1  0.83456598  0.83302082  0.74918089  1
  Cu  Cu106  1  0.32674066  -0.00182942  0.49696054  1
  Cu  Cu107  1  0.32607502  0.66036929  -0.00684035  1
  Cu  Cu108  1  0.66656527  0.67092423  -0.00493682  1
  Cu  Cu109  1  0.16971655  0.16995509  0.75016455  1
  Cu  Cu110  1  0.17014022  0.50021958  0.25212699  1
  Cu  Cu111  1  0.50078133  0.82822215  0.24664552  1
  Cu  Cu112  1  0.00298611  0.66492529  -0.00738651  1
  Cu  Cu113  1  0.00033290  0.34025482  0.50441948  1
  Cu  Cu114  1  0.84342290  0.17642112  0.25175463  1
  Se  Se115  1  0.07290131  0.07202929  0.05209891  1
  Se  Se116  1  0.07442264  0.07928399  0.56391359  1
  Se  Se117  1  0.08229450  0.41407250  0.04912874  1
  Se  Se118  1  0.08474471  0.41947666  0.55895692  1
  Se  Se119  1  0.08379667  0.74844285  0.05044671  1
  Se  Se120  1  0.08517804  0.74803495  0.55954173  1
  Se  Se121  1  0.41412578  0.08202731  0.04875244  1
  Se  Se122  1  0.41012015  0.07816642  0.55423514  1
  Se  Se123  1  0.42579260  0.43319949  0.04576641  1
  Se  Se124  1  0.42017729  0.41961792  0.55359969  1
  Se  Se125  1  0.40450750  0.73969919  0.05816522  1
  Se  Se126  1  0.41081205  0.73847974  0.56349133  1
  Se  Se127  1  0.73868724  0.07200178  0.06346179  1
  Se  Se128  1  0.75209328  0.07708294  0.56590904  1
  Se  Se129  1  0.74330302  0.41460848  0.05525244  1
  Se  Se130  1  0.75453812  0.41913231  0.55782030  1
  Se  Se131  1  0.75184411  0.75210044  0.04773133  1
  Se  Se132  1  0.74998626  0.74746952  0.55472437  1
  Se  Se133  1  0.25384779  0.25458763  0.05843478  1
  Se  Se134  1  0.26273738  0.26568409  0.55763470  1
  Se  Se135  1  0.24317132  0.57752349  0.04827813  1
  Se  Se136  1  0.23236481  0.57075699  0.55669912  1
  Se  Se137  1  0.24642148  0.91285883  0.04999117  1
  Se  Se138  1  0.24373913  0.91845889  0.55165756  1
  Se  Se139  1  0.58256164  0.24741486  0.04545019  1
  Se  Se140  1  0.58395054  0.25642250  0.56630929  1
  Se  Se141  1  0.58459360  0.58766228  0.04871225  1
  Se  Se142  1  0.58001310  0.57671891  0.55492095  1
  Se  Se143  1  0.58532411  0.91764834  0.05969469  1
  Se  Se144  1  0.58739472  0.91709563  0.56708925  1
  Se  Se145  1  0.92398515  0.25812041  0.05323860  1
  Se  Se146  1  0.92005311  0.25281970  0.55865208  1
  Se  Se147  1  0.92675653  0.58982052  0.06160306  1
  Se  Se148  1  0.91501920  0.57917735  0.55683912  1
  Se  Se149  1  0.90972014  0.90936497  0.04564797  1
  Se  Se150  1  0.91632447  0.90777668  0.55791741  1
  Se  Se151  1  0.08096765  0.26116354  0.44319637  1
  Se  Se152  1  0.07754739  0.25668506  0.93805425  1
  Se  Se153  1  0.08172517  0.58945111  0.44999006  1
  Se  Se154  1  0.08636672  0.57781295  0.94505545  1
  Se  Se155  1  0.08793900  0.91618306  0.44884625  1
  Se  Se156  1  0.08263799  0.90984223  0.94328879  1
  Se  Se157  1  0.40586248  0.25713151  0.44164136  1
  Se  Se158  1  0.42490305  0.24641610  0.95102654  1
  Se  Se159  1  0.40832360  0.59829463  0.45277663  1
  Se  Se160  1  0.41657302  0.58134758  0.94468472  1
  Se  Se161  1  0.41531792  0.92276414  0.44103164  1
  Se  Se162  1  0.40584718  0.91888267  0.93456080  1
  Se  Se163  1  0.73896188  0.26163927  0.44331733  1
  Se  Se164  1  0.74945178  0.26013775  0.93827584  1
  Se  Se165  1  0.75014333  0.58065612  0.45115115  1
  Se  Se166  1  0.74460655  0.59121505  0.93229213  1
  Se  Se167  1  0.75714130  0.90588439  0.45485236  1
  Se  Se168  1  0.74736739  0.90958530  0.94402479  1
  Se  Se169  1  0.25190303  0.08657320  0.43985234  1
  Se  Se170  1  0.25239257  0.07390486  0.93187494  1
  Se  Se171  1  0.23339902  0.42366146  0.45038490  1
  Se  Se172  1  0.26051011  0.40129305  0.94776655  1
  Se  Se173  1  0.25431958  0.76024072  0.45062854  1
  Se  Se174  1  0.24458115  0.74847443  0.94422801  1
  Se  Se175  1  0.59835504  0.06828981  0.44740749  1
  Se  Se176  1  0.58123820  0.08202177  0.94913526  1
  Se  Se177  1  0.57989545  0.41522730  0.45040770  1
  Se  Se178  1  0.58183266  0.42742187  0.94439024  1
  Se  Se179  1  0.58434752  0.73691395  0.43994754  1
  Se  Se180  1  0.58172785  0.74356785  0.93213549  1
  Se  Se181  1  0.93011138  0.07168142  0.44100445  1
  Se  Se182  1  0.91895036  0.08213140  0.93581472  1
  Se  Se183  1  0.91428220  0.42021736  0.45062644  1
  Se  Se184  1  0.92534579  0.41281340  0.94118188  1
  Se  Se185  1  0.91593305  0.74964492  0.45089251  1
  Se  Se186  1  0.91355097  0.74778947  0.94596802  1
  Se  Se187  1  0.25795711  0.25755866  0.29801278  1
  Se  Se188  1  0.25245059  0.25462068  0.80132521  1
  Se  Se189  1  0.24552842  0.57947972  0.31504593  1
  Se  Se190  1  0.25304981  0.58155052  0.80750668  1
  Se  Se191  1  0.25822889  0.92509418  0.29981695  1
  Se  Se192  1  0.23919064  0.90390771  0.80211733  1
  Se  Se193  1  0.57089665  0.24442246  0.30967769  1
  Se  Se194  1  0.58391541  0.25755320  0.81090643  1
  Se  Se195  1  0.58982330  0.57241334  0.29835356  1
  Se  Se196  1  0.58617416  0.58605919  0.79857408  1
  Se  Se197  1  0.57721876  0.90600586  0.31408037  1
  Se  Se198  1  0.57914071  0.91759039  0.79959456  1
  Se  Se199  1  0.92724779  0.26078129  0.30055237  1
  Se  Se200  1  0.91788809  0.25200541  0.80020507  1
  Se  Se201  1  0.90961479  0.57345768  0.31695485  1
  Se  Se202  1  0.91743225  0.58122799  0.80025578  1
  Se  Se203  1  0.91724703  0.90939855  0.30991400  1
  Se  Se204  1  0.91671242  0.91451750  0.80581772  1
  Se  Se205  1  0.09635101  0.09662524  0.30990772  1
  Se  Se206  1  0.08405152  0.08271596  0.79637701  1
  Se  Se207  1  0.08083350  0.41937350  0.30340651  1
  Se  Se208  1  0.08489523  0.41700848  0.80128057  1
  Se  Se209  1  0.09823103  0.75964723  0.30915722  1
  Se  Se210  1  0.07065075  0.73560082  0.80451054  1
  Se  Se211  1  0.41324353  0.07985945  0.29718155  1
  Se  Se212  1  0.41942097  0.09274362  0.81147265  1
  Se  Se213  1  0.40896267  0.43139277  0.30883235  1
  Se  Se214  1  0.41740968  0.41819776  0.80704426  1
  Se  Se215  1  0.42711378  0.74903345  0.31267759  1
  Se  Se216  1  0.41148659  0.74430980  0.79589127  1
  Se  Se217  1  0.76491652  0.09250630  0.30952350  1
  Se  Se218  1  0.74386325  0.08229488  0.80722991  1
  Se  Se219  1  0.75402558  0.42194781  0.31366583  1
  Se  Se220  1  0.75036972  0.41659944  0.79758366  1
  Se  Se221  1  0.74905649  0.74370517  0.30548287  1
  Se  Se222  1  0.74827952  0.74859970  0.79980569  1
  Se  Se223  1  0.24914506  0.08518089  0.19191996  1
  Se  Se224  1  0.24908257  0.09104182  0.68684222  1
  Se  Se225  1  0.25268674  0.42172522  0.19401317  1
  Se  Se226  1  0.25697796  0.41887740  0.69752609  1
  Se  Se227  1  0.24297172  0.75581809  0.19159675  1
  Se  Se228  1  0.24598987  0.74998867  0.69968596  1
  Se  Se229  1  0.58129675  0.08896231  0.18991584  1
  Se  Se230  1  0.58316941  0.08461107  0.70293031  1
  Se  Se231  1  0.57443973  0.41855240  0.18044802  1
  Se  Se232  1  0.59036941  0.41534583  0.69971148  1
  Se  Se233  1  0.58782474  0.74494446  0.19903652  1
  Se  Se234  1  0.58316648  0.74664137  0.69878905  1
  Se  Se235  1  0.91488860  0.09492324  0.18756648  1
  Se  Se236  1  0.91425049  0.08484939  0.70191514  1
  Se  Se237  1  0.92044771  0.42091016  0.19773404  1
  Se  Se238  1  0.92036854  0.41612990  0.69646736  1
  Se  Se239  1  0.91632796  0.75330834  0.19077516  1
  Se  Se240  1  0.91554979  0.74682627  0.69638180  1
  Se  Se241  1  0.08582832  0.25872010  0.19551632  1
  Se  Se242  1  0.08590886  0.25487222  0.69796500  1
  Se  Se243  1  0.09029079  0.58471464  0.19478010  1
  Se  Se244  1  0.08199650  0.58446460  0.70092060  1
  Se  Se245  1  0.08934429  0.90876495  0.18998346  1
  Se  Se246  1  0.06930481  0.92433784  0.70065690  1
  Se  Se247  1  0.41843651  0.25395569  0.18833089  1
  Se  Se248  1  0.41612077  0.25509092  0.70331629  1
  Se  Se249  1  0.42062121  0.57845545  0.18598202  1
  Se  Se250  1  0.41586553  0.57784374  0.69517707  1
  Se  Se251  1  0.41798063  0.91433592  0.19743354  1
  Se  Se252  1  0.41713133  0.90887654  0.68568133  1
  Se  Se253  1  0.75835645  0.25211475  0.19324169  1
  Se  Se254  1  0.74876076  0.25111051  0.70048399  1
  Se  Se255  1  0.75233455  0.58452188  0.19643851  1
  Se  Se256  1  0.74736305  0.58668519  0.69498836  1
  Se  Se257  1  0.75744623  0.90945677  0.19335141  1
  Se  Se258  1  0.74640463  0.91904870  0.70029232  1
