# generated using pymatgen
data_In86Cu29Se144
_symmetry_space_group_name_H-M   'P 1'
_cell_length_a   17.56826592
_cell_length_b   17.57111101
_cell_length_c   23.43387115
_cell_angle_alpha   89.98306610
_cell_angle_beta   89.97691345
_cell_angle_gamma   90.00014804
_symmetry_Int_Tables_number   1
_chemical_formula_structural   In86Cu29Se144
_chemical_formula_sum   'In86 Cu29 Se144'
_cell_volume   7233.89336615
_cell_formula_units_Z   1
loop_
 _symmetry_equiv_pos_site_id
 _symmetry_equiv_pos_as_xyz
  1  'x, y, z'
loop_
 _atom_site_type_symbol
 _atom_site_label
 _atom_site_symmetry_multiplicity
 _atom_site_fract_x
 _atom_site_fract_y
 _atom_site_fract_z
 _atom_site_occupancy
  In  In0  1  -0.00878141  0.17418610  0.13018228  1
  In  In1  1  0.00019091  0.16907618  0.62091662  1
  In  In2  1  0.01523668  0.49605259  0.13083017  1
  In  In3  1  -0.00986434  0.49163976  0.60871140  1
  In  In4  1  0.02227205  0.81823900  0.14915636  1
  In  In5  1  0.00846890  0.83433131  0.62360307  1
  In  In6  1  0.34481051  0.17384198  0.12612733  1
  In  In7  1  0.33734081  0.16755265  0.61404037  1
  In  In8  1  0.32139783  0.49062002  0.12671684  1
  In  In9  1  0.32803643  0.49639253  0.60737140  1
  In  In10  1  0.32457817  0.82858272  0.11689353  1
  In  In11  1  0.32257965  0.84253049  0.62186399  1
  In  In12  1  0.67664456  0.17254602  0.11610813  1
  In  In13  1  0.67025214  0.17049530  0.62648903  1
  In  In14  1  0.65110923  0.49920289  0.12641155  1
  In  In15  1  0.65666697  0.48177524  0.61934398  1
  In  In16  1  0.66391928  0.84994557  0.11817938  1
  In  In17  1  0.68027981  0.84121674  0.62920310  1
  In  In18  1  0.14958990  0.00391884  0.38496478  1
  In  In19  1  0.14799462  0.00488097  0.87695566  1
  In  In20  1  0.16573387  0.33884089  0.36608421  1
  In  In21  1  0.16606179  0.34230742  0.87450307  1
  In  In22  1  0.16568485  0.67149970  0.38095315  1
  In  In23  1  0.16182037  0.66202053  0.88997082  1
  In  In24  1  0.51283547  0.00628062  0.37508649  1
  In  In25  1  0.51422275  -0.00817073  0.88737001  1
  In  In26  1  0.50364711  0.32931461  0.37746319  1
  In  In27  1  0.51124502  0.31956259  0.88926561  1
  In  In28  1  0.47359835  0.65763412  0.37401521  1
  In  In29  1  0.49539192  0.66681471  0.88450768  1
  In  In30  1  0.86010897  0.00930240  0.38276206  1
  In  In31  1  0.84360260  0.01362954  0.87145103  1
  In  In32  1  0.83416969  0.33216967  0.37439390  1
  In  In33  1  0.82098151  0.32388363  0.86822930  1
  In  In34  1  0.83965250  0.64516807  0.37817670  1
  In  In35  1  0.84126756  0.67099478  0.87758346  1
  In  In36  1  -0.00263604  0.17095471  0.37846289  1
  In  In37  1  -0.00721094  0.16399915  0.87175061  1
  In  In38  1  0.00415099  0.49486466  0.36785611  1
  In  In39  1  0.01357511  0.49385479  0.87900899  1
  In  In40  1  0.02634010  0.84631104  0.35482200  1
  In  In41  1  -0.00440109  0.84172727  0.88242189  1
  In  In42  1  0.31947504  0.17959745  0.38175931  1
  In  In43  1  0.34242774  0.18076628  0.87730666  1
  In  In44  1  0.34516800  0.49876584  0.38481042  1
  In  In45  1  0.32600239  0.50320823  0.88499041  1
  In  In46  1  0.30911708  0.82312290  0.37054856  1
  In  In47  1  0.33237720  0.83256055  0.88221533  1
  In  In48  1  0.65949613  0.17842364  0.38561042  1
  In  In49  1  0.66748413  0.16587771  0.87544394  1
  In  In50  1  0.67719568  0.48044826  0.38129812  1
  In  In51  1  0.67343571  0.48394473  0.87732895  1
  In  In52  1  0.66277733  0.84461460  0.37168394  1
  In  In53  1  0.65679754  0.83945894  0.87901511  1
  In  In54  1  0.16261295  -0.01186982  0.12859108  1
  In  In55  1  0.14977290  -0.00922340  0.60684646  1
  In  In56  1  0.15148305  0.35647087  0.14947794  1
  In  In57  1  0.15544469  0.32279641  0.61139610  1
  In  In58  1  0.15805493  0.66753020  0.12513065  1
  In  In59  1  0.16424798  0.66065274  0.60582612  1
  In  In60  1  0.51505782  0.00927349  0.10585968  1
  In  In61  1  0.50716401  0.01448466  0.62415651  1
  In  In62  1  0.49973244  0.33753242  0.13123932  1
  In  In63  1  0.50417826  0.33485031  0.62296218  1
  In  In64  1  0.49160063  0.66139521  0.11549779  1
  In  In65  1  0.50473146  0.65523609  0.62506118  1
  In  In66  1  0.84154372  0.02731170  0.11375015  1
  In  In67  1  0.82933317  0.00984663  0.62873506  1
  In  In68  1  0.84434413  0.31805197  0.13127555  1
  In  In69  1  0.83659430  0.33077613  0.62187363  1
  In  In70  1  0.85160523  0.67000199  0.12750904  1
  In  In71  1  0.84363003  0.66727947  0.61939270  1
  In  In72  1  0.17392377  0.17207955  -0.00092197  1
  In  In73  1  0.32088362  0.65894462  0.24421601  1
  In  In74  1  0.33264624  0.00387229  0.25098779  1
  In  In75  1  0.84010589  0.83452020  0.00278402  1
  In  In76  1  0.00085281  0.66604808  0.74962875  1
  In  In77  1  0.66970980  0.66227246  0.75215831  1
  In  In78  1  0.83874939  0.49199149  0.00645063  1
  In  In79  1  0.83889749  0.82869144  0.50123834  1
  In  In80  1  0.33035356  0.33522241  0.74960352  1
  In  In81  1  0.33027174  0.00756115  0.74595843  1
  In  In82  1  0.67075858  0.66151178  0.25096678  1
  In  In83  1  0.33056922  0.66362521  0.74090630  1
  In  In84  1  0.48932576  0.82770643  0.49530789  1
  In  In85  1  0.67789227  0.00859964  0.24045972  1
  Cu  Cu86  1  0.15940104  0.49547750  0.74667689  1
  Cu  Cu87  1  -0.00501985  0.66558624  0.49022117  1
  Cu  Cu88  1  0.83410813  0.49280971  0.74347249  1
  Cu  Cu89  1  0.83250088  0.16534014  0.25364247  1
  Cu  Cu90  1  0.50390477  0.49180857  0.25741720  1
  Cu  Cu91  1  0.32941683  -0.00403224  0.49745926  1
  Cu  Cu92  1  0.66527915  0.66622698  0.00127240  1
  Cu  Cu93  1  0.33034921  0.34379566  0.01000470  1
  Cu  Cu94  1  0.33460412  -0.00066437  0.00273858  1
  Cu  Cu95  1  0.84096206  0.83254201  0.25461699  1
  Cu  Cu96  1  0.49154040  0.83379876  0.23334583  1
  Cu  Cu97  1  0.66312738  0.33234283  -0.00000723  1
  Cu  Cu98  1  0.15524715  0.16467854  0.74135425  1
  Cu  Cu99  1  0.83362349  0.85099083  0.75458248  1
  Cu  Cu100  1  0.33676308  0.32839972  0.49245111  1
  Cu  Cu101  1  0.51015838  0.16512644  0.75364558  1
  Cu  Cu102  1  0.00134625  -0.00228373  0.00342110  1
  Cu  Cu103  1  0.50389519  0.48413879  0.75415188  1
  Cu  Cu104  1  0.50119614  0.17754694  0.25301283  1
  Cu  Cu105  1  0.50489993  0.84220776  0.75646851  1
  Cu  Cu106  1  0.15777519  0.84322272  0.74916370  1
  Cu  Cu107  1  0.83442783  0.49147138  0.25200567  1
  Cu  Cu108  1  0.83503084  0.17187845  0.74652111  1
  Cu  Cu109  1  0.65642128  0.65514498  0.49618896  1
  Cu  Cu110  1  0.00213368  0.33754292  0.49190500  1
  Cu  Cu111  1  0.66850463  0.00734507  0.50332448  1
  Cu  Cu112  1  0.16301008  0.16586466  0.25714660  1
  Cu  Cu113  1  0.33397679  0.67008111  0.00352314  1
  Cu  Cu114  1  0.67048514  0.32928734  0.50239047  1
  Se  Se115  1  0.08233936  0.08331244  0.06067062  1
  Se  Se116  1  0.09700089  0.10395188  0.55186498  1
  Se  Se117  1  0.08210630  0.40437455  0.05985326  1
  Se  Se118  1  0.08816131  0.42092957  0.54477442  1
  Se  Se119  1  0.08697760  0.76430576  0.06029556  1
  Se  Se120  1  0.07425570  0.74915075  0.54838726  1
  Se  Se121  1  0.41429600  0.08930662  0.05143106  1
  Se  Se122  1  0.41721088  0.07577610  0.55010467  1
  Se  Se123  1  0.42045047  0.42348707  0.06079607  1
  Se  Se124  1  0.41902249  0.40868495  0.55095753  1
  Se  Se125  1  0.41990934  0.75702176  0.05093874  1
  Se  Se126  1  0.40831002  0.74104143  0.56415177  1
  Se  Se127  1  0.72064867  0.05579089  0.05697499  1
  Se  Se128  1  0.75298557  0.08953727  0.55490175  1
  Se  Se129  1  0.74305849  0.40734491  0.06542876  1
  Se  Se130  1  0.75420273  0.41660909  0.55279217  1
  Se  Se131  1  0.74665963  0.74093779  0.06253263  1
  Se  Se132  1  0.73580897  0.73881634  0.55560478  1
  Se  Se133  1  0.24952294  0.26131547  0.06798738  1
  Se  Se134  1  0.25204043  0.24846397  0.54821884  1
  Se  Se135  1  0.25323413  0.59000596  0.06202142  1
  Se  Se136  1  0.24925198  0.58084697  0.54113638  1
  Se  Se137  1  0.24503192  0.91912401  0.05174458  1
  Se  Se138  1  0.24362492  0.90985360  0.54453986  1
  Se  Se139  1  0.57965355  0.25423298  0.05902667  1
  Se  Se140  1  0.58391291  0.24736631  0.55581142  1
  Se  Se141  1  0.58087106  0.58028792  0.05044581  1
  Se  Se142  1  0.57784891  0.57247274  0.55289569  1
  Se  Se143  1  0.58205796  0.91172153  0.04096949  1
  Se  Se144  1  0.58828899  0.91545139  0.55627195  1
  Se  Se145  1  0.90357047  0.23341907  0.05298571  1
  Se  Se146  1  0.92106327  0.25519516  0.54989512  1
  Se  Se147  1  0.93169823  0.58686616  0.05710940  1
  Se  Se148  1  0.91060557  0.58440570  0.54448493  1
  Se  Se149  1  0.92707525  0.91783286  0.06900067  1
  Se  Se150  1  0.92013166  0.92480614  0.56030474  1
  Se  Se151  1  0.08861544  0.25641433  0.43959048  1
  Se  Se152  1  0.07798666  0.25429380  0.93997053  1
  Se  Se153  1  0.07982478  0.58023871  0.44111595  1
  Se  Se154  1  0.08712588  0.57045325  0.95347042  1
  Se  Se155  1  0.08015837  0.90408122  0.44702678  1
  Se  Se156  1  0.08641227  0.91475690  0.95144416  1
  Se  Se157  1  0.42351132  0.24158114  0.44567699  1
  Se  Se158  1  0.41055779  0.25624617  0.95642066  1
  Se  Se159  1  0.42017039  0.58208040  0.45752845  1
  Se  Se160  1  0.41455443  0.58183003  0.95100624  1
  Se  Se161  1  0.40681383  0.92088882  0.43031058  1
  Se  Se162  1  0.41742595  0.91455624  0.94816212  1
  Se  Se163  1  0.75752344  0.24918258  0.44888696  1
  Se  Se164  1  0.74801994  0.25026912  0.94710735  1
  Se  Se165  1  0.74838918  0.57674727  0.44763660  1
  Se  Se166  1  0.74896054  0.58798793  0.94270313  1
  Se  Se167  1  0.74709530  0.92459508  0.44248790  1
  Se  Se168  1  0.75526926  0.92165034  0.93826311  1
  Se  Se169  1  0.24746670  0.08184893  0.44487906  1
  Se  Se170  1  0.25957057  0.07685381  0.93580704  1
  Se  Se171  1  0.25162423  0.41117396  0.44130885  1
  Se  Se172  1  0.24388401  0.41666484  0.95054421  1
  Se  Se173  1  0.26085562  0.73803447  0.45042067  1
  Se  Se174  1  0.24812734  0.75153360  0.94967913  1
  Se  Se175  1  0.58008270  0.08714010  0.45182059  1
  Se  Se176  1  0.56323353  0.10750221  0.94177244  1
  Se  Se177  1  0.58344191  0.41183594  0.44982513  1
  Se  Se178  1  0.58241054  0.42169195  0.95035549  1
  Se  Se179  1  0.58512832  0.74188853  0.43378106  1
  Se  Se180  1  0.58340981  0.75056451  0.94743954  1
  Se  Se181  1  0.92733717  0.09020106  0.45704413  1
  Se  Se182  1  0.92171729  0.08348041  0.95002896  1
  Se  Se183  1  0.91610674  0.42049516  0.43999661  1
  Se  Se184  1  0.91622316  0.40592634  0.93659873  1
  Se  Se185  1  0.92239108  0.75185357  0.42895487  1
  Se  Se186  1  0.93315700  0.73616376  0.95022559  1
  Se  Se187  1  0.25303470  0.25078403  0.30022802  1
  Se  Se188  1  0.23810203  0.23866819  0.80514433  1
  Se  Se189  1  0.24744196  0.57323006  0.31605712  1
  Se  Se190  1  0.24017188  0.57807254  0.80674119  1
  Se  Se191  1  0.23552235  0.91922213  0.30635773  1
  Se  Se192  1  0.24494946  0.91513513  0.80983419  1
  Se  Se193  1  0.59156170  0.25376273  0.30543586  1
  Se  Se194  1  0.58584535  0.25554312  0.80694430  1
  Se  Se195  1  0.57992651  0.57842810  0.31601304  1
  Se  Se196  1  0.57544228  0.57562968  0.81242277  1
  Se  Se197  1  0.57408632  0.91453758  0.29433918  1
  Se  Se198  1  0.58935735  0.92630528  0.80486367  1
  Se  Se199  1  0.91694903  0.25028141  0.30482447  1
  Se  Se200  1  0.91774510  0.25298611  0.80242350  1
  Se  Se201  1  0.91739951  0.57999264  0.29932735  1
  Se  Se202  1  0.90962468  0.57284324  0.80788712  1
  Se  Se203  1  0.91849332  0.92317948  0.30471689  1
  Se  Se204  1  0.92635912  0.92343062  0.80701743  1
  Se  Se205  1  0.07875616  0.08427877  0.30877597  1
  Se  Se206  1  0.07732448  0.08331649  0.80081052  1
  Se  Se207  1  0.07426428  0.40686724  0.29603894  1
  Se  Se208  1  0.07904877  0.41141978  0.80042015  1
  Se  Se209  1  0.08846413  0.73678531  0.30030646  1
  Se  Se210  1  0.09021065  0.75451567  0.81249866  1
  Se  Se211  1  0.42365994  0.09320946  0.31203800  1
  Se  Se212  1  0.42268227  0.08803738  0.81108325  1
  Se  Se213  1  0.41767792  0.41360116  0.31149005  1
  Se  Se214  1  0.41799632  0.41620907  0.81851898  1
  Se  Se215  1  0.41541395  0.75849074  0.30016972  1
  Se  Se216  1  0.42069927  0.75398805  0.80639725  1
  Se  Se217  1  0.75356127  0.08666707  0.31794563  1
  Se  Se218  1  0.75357688  0.08965130  0.80462786  1
  Se  Se219  1  0.74789536  0.40916820  0.30131232  1
  Se  Se220  1  0.74709074  0.41471015  0.79785045  1
  Se  Se221  1  0.75608474  0.75497234  0.31357210  1
  Se  Se222  1  0.75847940  0.76053794  0.81059276  1
  Se  Se223  1  0.24275239  0.09349094  0.18933268  1
  Se  Se224  1  0.24076668  0.08945673  0.68154666  1
  Se  Se225  1  0.25717073  0.42029336  0.20901071  1
  Se  Se226  1  0.24267059  0.42079996  0.68437528  1
  Se  Se227  1  0.23940707  0.76549872  0.19552861  1
  Se  Se228  1  0.23322508  0.75643592  0.68875509  1
  Se  Se229  1  0.57514279  0.09406343  0.18986192  1
  Se  Se230  1  0.59153230  0.08306801  0.69776044  1
  Se  Se231  1  0.58906272  0.41269299  0.20260720  1
  Se  Se232  1  0.58729954  0.40519253  0.69916539  1
  Se  Se233  1  0.58278035  0.75158514  0.18548293  1
  Se  Se234  1  0.57871389  0.75677744  0.69297501  1
  Se  Se235  1  0.91552615  0.08272490  0.19931439  1
  Se  Se236  1  0.91945467  0.08859735  0.69394267  1
  Se  Se237  1  0.91792449  0.41614173  0.19223128  1
  Se  Se238  1  0.92241096  0.41675925  0.68939331  1
  Se  Se239  1  0.92195875  0.74119196  0.20775782  1
  Se  Se240  1  0.90716240  0.76284036  0.69474496  1
  Se  Se241  1  0.07942893  0.24679900  0.20086881  1
  Se  Se242  1  0.07860947  0.25759049  0.69214488  1
  Se  Se243  1  0.08977421  0.58395646  0.19932608  1
  Se  Se244  1  0.08549703  0.57849138  0.68331737  1
  Se  Se245  1  0.07340556  0.93313307  0.20518755  1
  Se  Se246  1  0.07949606  0.92575592  0.69278801  1
  Se  Se247  1  0.41383965  0.25749515  0.20120034  1
  Se  Se248  1  0.42186165  0.23980232  0.69416642  1
  Se  Se249  1  0.42832197  0.57541302  0.19479622  1
  Se  Se250  1  0.42206988  0.56222335  0.69199567  1
  Se  Se251  1  0.41888600  0.92356800  0.17837039  1
  Se  Se252  1  0.42371419  0.91256177  0.68956893  1
  Se  Se253  1  0.74828697  0.24397468  0.19673594  1
  Se  Se254  1  0.75129836  0.25615769  0.69445021  1
  Se  Se255  1  0.75984447  0.57373676  0.18701130  1
  Se  Se256  1  0.75571502  0.57810302  0.68505940  1
  Se  Se257  1  0.76648864  0.90921688  0.18776112  1
  Se  Se258  1  0.74666996  0.92903218  0.70117441  1
