# generated using pymatgen
data_In86Cu29Se144
_symmetry_space_group_name_H-M   'P 1'
_cell_length_a   17.58444427
_cell_length_b   17.58439026
_cell_length_c   23.44995813
_cell_angle_alpha   89.99435672
_cell_angle_beta   89.99295620
_cell_angle_gamma   90.01403579
_symmetry_Int_Tables_number   1
_chemical_formula_structural   In86Cu29Se144
_chemical_formula_sum   'In86 Cu29 Se144'
_cell_volume   7251.00182771
_cell_formula_units_Z   1
loop_
 _symmetry_equiv_pos_site_id
 _symmetry_equiv_pos_as_xyz
  1  'x, y, z'
loop_
 _atom_site_type_symbol
 _atom_site_label
 _atom_site_symmetry_multiplicity
 _atom_site_fract_x
 _atom_site_fract_y
 _atom_site_fract_z
 _atom_site_occupancy
  In  In0  1  0.00908418  0.16287183  0.12702643  1
  In  In1  1  -0.01804423  0.15996606  0.62671728  1
  In  In2  1  0.00507264  0.49909066  0.13456790  1
  In  In3  1  0.00894763  0.51063740  0.62624627  1
  In  In4  1  -0.00544556  0.84127804  0.13260179  1
  In  In5  1  0.00150449  0.82969765  0.62109344  1
  In  In6  1  0.33404223  0.16713408  0.12681925  1
  In  In7  1  0.33441026  0.17927179  0.62443426  1
  In  In8  1  0.32502713  0.50383136  0.11293167  1
  In  In9  1  0.33804959  0.48957293  0.61945215  1
  In  In10  1  0.37122653  0.83115123  0.12934882  1
  In  In11  1  0.33493642  0.83030986  0.61498873  1
  In  In12  1  0.65265424  0.17776255  0.12806116  1
  In  In13  1  0.67475669  0.16459324  0.62903230  1
  In  In14  1  0.65435471  0.52654628  0.14256420  1
  In  In15  1  0.66113664  0.51156606  0.62943720  1
  In  In16  1  0.66315151  0.82851554  0.12881093  1
  In  In17  1  0.65915468  0.82164765  0.61628262  1
  In  In18  1  0.15526276  -0.01277204  0.36415755  1
  In  In19  1  0.16987856  0.00481894  0.87904387  1
  In  In20  1  0.16684897  0.33424214  0.36186879  1
  In  In21  1  0.17015027  0.32612539  0.88765889  1
  In  In22  1  0.16098243  0.68010841  0.37538603  1
  In  In23  1  0.14845848  0.66901043  0.88018274  1
  In  In24  1  0.48653932  -0.01679449  0.35588395  1
  In  In25  1  0.49692397  -0.00059075  0.88621283  1
  In  In26  1  0.50828329  0.34492025  0.36219462  1
  In  In27  1  0.50321323  0.32704200  0.88108212  1
  In  In28  1  0.50439738  0.65934244  0.37581339  1
  In  In29  1  0.51797861  0.65039393  0.89732228  1
  In  In30  1  0.82221425  -0.01558791  0.36742648  1
  In  In31  1  0.83102800  -0.01997074  0.88093849  1
  In  In32  1  0.83311766  0.33874898  0.35566193  1
  In  In33  1  0.82746592  0.34947759  0.87551679  1
  In  In34  1  0.84313507  0.68373394  0.35731762  1
  In  In35  1  0.83946821  0.67458074  0.86903984  1
  In  In36  1  -0.00705244  0.16173666  0.36550366  1
  In  In37  1  0.01078819  0.16522753  0.88024171  1
  In  In38  1  -0.00309126  0.51560696  0.35435283  1
  In  In39  1  -0.01137830  0.51167147  0.88041611  1
  In  In40  1  -0.00171515  0.83045350  0.37223255  1
  In  In41  1  -0.00431535  0.81903642  0.86530866  1
  In  In42  1  0.33495035  0.17005445  0.36230851  1
  In  In43  1  0.33414014  0.15779838  0.88608592  1
  In  In44  1  0.35084729  0.50659007  0.36836458  1
  In  In45  1  0.33908891  0.50148342  0.89604090  1
  In  In46  1  0.32752443  0.83309093  0.37647570  1
  In  In47  1  0.33663572  0.84069254  0.87631339  1
  In  In48  1  0.66742878  0.16577856  0.36648599  1
  In  In49  1  0.65110431  0.17279513  0.88000529  1
  In  In50  1  0.66431342  0.49604712  0.36351448  1
  In  In51  1  0.66415483  0.49545034  0.87184291  1
  In  In52  1  0.66319226  0.83115261  0.37262074  1
  In  In53  1  0.67614961  0.82264490  0.89137589  1
  In  In54  1  0.16251653  0.00629085  0.12849745  1
  In  In55  1  0.16843242  -0.02051036  0.62671058  1
  In  In56  1  0.17050516  0.33603883  0.12778947  1
  In  In57  1  0.16863982  0.33548190  0.62379602  1
  In  In58  1  0.17462411  0.65579396  0.12339812  1
  In  In59  1  0.15257894  0.67947869  0.63778708  1
  In  In60  1  0.49806742  0.00173987  0.13231203  1
  In  In61  1  0.51234674  -0.00649052  0.62514266  1
  In  In62  1  0.49870275  0.33462250  0.12197586  1
  In  In63  1  0.49885083  0.34628228  0.62638253  1
  In  In64  1  0.52256380  0.68410920  0.09663639  1
  In  In65  1  0.50867088  0.66984210  0.61925525  1
  In  In66  1  0.83871084  -0.01024217  0.12902678  1
  In  In67  1  0.84961593  -0.00556686  0.62800710  1
  In  In68  1  0.82470895  0.35264806  0.14389785  1
  In  In69  1  0.82523695  0.32110662  0.62572866  1
  In  In70  1  0.81520053  0.68286178  0.13739360  1
  In  In71  1  0.83029717  0.66943270  0.62510037  1
  In  In72  1  0.33407284  0.66687581  0.75624566  1
  In  In73  1  0.33885333  0.66704613  0.24411451  1
  In  In74  1  0.50468260  0.15804557  0.50254443  1
  In  In75  1  0.83013827  0.50674311  0.49647834  1
  In  In76  1  0.66891055  0.00037353  0.75557619  1
  In  In77  1  0.82906168  0.15918729  0.49791554  1
  In  In78  1  0.33437629  -0.00075240  0.76046868  1
  In  In79  1  0.17440533  0.51772414  0.48997137  1
  In  In80  1  -0.00492057  0.33797014  0.74651490  1
  In  In81  1  0.83642956  0.16827119  0.01285164  1
  In  In82  1  0.34024600  0.33103871  0.75086099  1
  In  In83  1  0.83016457  0.50766318  0.01000023  1
  In  In84  1  0.17149008  0.83342235  0.00244105  1
  In  In85  1  0.16551929  0.15479734  0.49421664  1
  Cu  Cu86  1  0.33065091  0.33040918  0.00737034  1
  Cu  Cu87  1  0.00730686  0.33284514  0.01151871  1
  Cu  Cu88  1  0.66402155  0.33636763  0.00252187  1
  Cu  Cu89  1  0.33935635  0.66476008  0.49869651  1
  Cu  Cu90  1  0.82604409  0.50846231  0.75068694  1
  Cu  Cu91  1  0.00248574  -0.01564278  0.49818719  1
  Cu  Cu92  1  0.50163533  0.16865223  0.24574716  1
  Cu  Cu93  1  0.33662259  -0.00748238  0.49410857  1
  Cu  Cu94  1  0.49468307  0.49975185  0.24145567  1
  Cu  Cu95  1  0.17105050  0.17110726  0.24650682  1
  Cu  Cu96  1  -0.00131434  -0.00547349  0.00506228  1
  Cu  Cu97  1  0.34726333  0.33847213  0.49114148  1
  Cu  Cu98  1  0.66171545  0.33902265  0.49121165  1
  Cu  Cu99  1  0.17034118  0.49972376  0.24329061  1
  Cu  Cu100  1  0.65854524  -0.00266852  0.00689086  1
  Cu  Cu101  1  0.16069227  0.50279672  0.76053514  1
  Cu  Cu102  1  0.83221249  0.83054406  0.74925744  1
  Cu  Cu103  1  0.83949344  0.16402392  0.24169146  1
  Cu  Cu104  1  0.16290311  0.15608649  0.75430569  1
  Cu  Cu105  1  0.00225115  0.34403111  0.48951959  1
  Cu  Cu106  1  0.50441645  0.50393317  0.75357238  1
  Cu  Cu107  1  0.66443432  0.66470976  0.49500878  1
  Cu  Cu108  1  0.50422262  0.83202839  0.75267881  1
  Cu  Cu109  1  0.33357852  0.00143689  0.00932212  1
  Cu  Cu110  1  0.16678634  0.83346295  0.24895969  1
  Cu  Cu111  1  0.82900877  0.17079786  0.75559883  1
  Cu  Cu112  1  0.82980130  0.83117745  0.25145516  1
  Cu  Cu113  1  -0.00550847  0.66834224  0.00108857  1
  Cu  Cu114  1  0.66487677  -0.01411033  0.49291529  1
  Se  Se115  1  0.08338820  0.08114477  0.05209925  1
  Se  Se116  1  0.07217336  0.07604900  0.55937051  1
  Se  Se117  1  0.08629773  0.42297159  0.06063274  1
  Se  Se118  1  0.08379754  0.41768206  0.55164458  1
  Se  Se119  1  0.07679880  0.74746212  0.06243931  1
  Se  Se120  1  0.09007109  0.74834687  0.55524044  1
  Se  Se121  1  0.41989199  0.08464607  0.05887583  1
  Se  Se122  1  0.40569005  0.07215285  0.56212366  1
  Se  Se123  1  0.41710571  0.41761861  0.05230479  1
  Se  Se124  1  0.42640302  0.42008490  0.54786329  1
  Se  Se125  1  0.39554496  0.72963625  0.05402250  1
  Se  Se126  1  0.42320276  0.75003554  0.55080729  1
  Se  Se127  1  0.74093958  0.07810388  0.06602120  1
  Se  Se128  1  0.74070791  0.06602172  0.55835259  1
  Se  Se129  1  0.73845388  0.41652187  0.06503677  1
  Se  Se130  1  0.74377802  0.41070416  0.55794252  1
  Se  Se131  1  0.74267757  0.74626365  0.05630854  1
  Se  Se132  1  0.74915706  0.74417632  0.55024745  1
  Se  Se133  1  0.24612183  0.24648382  0.05793899  1
  Se  Se134  1  0.25721343  0.26154573  0.54715611  1
  Se  Se135  1  0.24064704  0.58315470  0.04365014  1
  Se  Se136  1  0.25656263  0.59332467  0.56564701  1
  Se  Se137  1  0.25906006  0.91608825  0.06942294  1
  Se  Se138  1  0.24971200  0.91407894  0.54886862  1
  Se  Se139  1  0.57807237  0.24965780  0.04942759  1
  Se  Se140  1  0.59320435  0.25584616  0.55838906  1
  Se  Se141  1  0.60535532  0.58161288  0.04883487  1
  Se  Se142  1  0.58377010  0.57977322  0.55055336  1
  Se  Se143  1  0.57756711  0.91545365  0.06244092  1
  Se  Se144  1  0.57749519  0.91024497  0.54973237  1
  Se  Se145  1  0.91716351  0.26546160  0.07160547  1
  Se  Se146  1  0.92444748  0.25974754  0.55056235  1
  Se  Se147  1  0.92072333  0.59458945  0.06940536  1
  Se  Se148  1  0.92575755  0.59093245  0.55560530  1
  Se  Se149  1  0.91446949  0.91002199  0.05404355  1
  Se  Se150  1  0.91187048  0.91009449  0.55157712  1
  Se  Se151  1  0.07927741  0.25461125  0.43617094  1
  Se  Se152  1  0.08282901  0.24584696  0.95477175  1
  Se  Se153  1  0.06675993  0.59244500  0.43768461  1
  Se  Se154  1  0.07736578  0.58064960  0.95207934  1
  Se  Se155  1  0.08858466  0.90799235  0.44280483  1
  Se  Se156  1  0.07572755  0.91583483  0.94019108  1
  Se  Se157  1  0.42178315  0.24970340  0.43612137  1
  Se  Se158  1  0.41256117  0.25059259  0.94780990  1
  Se  Se159  1  0.42132449  0.57909987  0.44796002  1
  Se  Se160  1  0.42193449  0.58212235  0.96190600  1
  Se  Se161  1  0.42186507  0.91328936  0.44061542  1
  Se  Se162  1  0.41194164  0.91698088  0.95242839  1
  Se  Se163  1  0.74819626  0.25868345  0.43776519  1
  Se  Se164  1  0.75022396  0.25772100  0.94596289  1
  Se  Se165  1  0.74428323  0.59074760  0.43105089  1
  Se  Se166  1  0.75132389  0.58755789  0.93659292  1
  Se  Se167  1  0.75443330  0.90478582  0.44516479  1
  Se  Se168  1  0.74875038  0.91644254  0.95832275  1
  Se  Se169  1  0.25923000  0.07357348  0.43245368  1
  Se  Se170  1  0.24705000  0.08015788  0.95409603  1
  Se  Se171  1  0.25757133  0.41343041  0.43477847  1
  Se  Se172  1  0.24710380  0.41473592  0.95362513  1
  Se  Se173  1  0.25211779  0.74552757  0.44692839  1
  Se  Se174  1  0.25529323  0.74267987  0.93902704  1
  Se  Se175  1  0.58920214  0.07366512  0.43637411  1
  Se  Se176  1  0.58249298  0.08362713  0.95135871  1
  Se  Se177  1  0.58044423  0.42313361  0.43975302  1
  Se  Se178  1  0.58380844  0.41821359  0.94500136  1
  Se  Se179  1  0.58026479  0.74940089  0.44359151  1
  Se  Se180  1  0.56073905  0.77312656  0.94729964  1
  Se  Se181  1  0.92265924  0.07037282  0.43977317  1
  Se  Se182  1  0.91795130  0.07781155  0.94495731  1
  Se  Se183  1  0.91896750  0.41855499  0.43046522  1
  Se  Se184  1  0.92273732  0.40944424  0.95104411  1
  Se  Se185  1  0.91400205  0.74681852  0.43891487  1
  Se  Se186  1  0.91622860  0.75236471  0.94491584  1
  Se  Se187  1  0.25612142  0.25782634  0.29566585  1
  Se  Se188  1  0.24518321  0.23970842  0.80996802  1
  Se  Se189  1  0.24463885  0.58244703  0.30926832  1
  Se  Se190  1  0.24861927  0.57477225  0.81934800  1
  Se  Se191  1  0.25379549  0.91444717  0.30133422  1
  Se  Se192  1  0.23601788  0.90572971  0.80742340  1
  Se  Se193  1  0.58559120  0.25072950  0.29977553  1
  Se  Se194  1  0.58776940  0.25888126  0.80611360  1
  Se  Se195  1  0.57680699  0.58138976  0.29859718  1
  Se  Se196  1  0.58299581  0.58977968  0.80890787  1
  Se  Se197  1  0.60660462  0.93593598  0.30611577  1
  Se  Se198  1  0.58018764  0.91183109  0.81581069  1
  Se  Se199  1  0.92068280  0.24981411  0.29622989  1
  Se  Se200  1  0.91243101  0.24926145  0.81529760  1
  Se  Se201  1  0.88769274  0.56988472  0.29388341  1
  Se  Se202  1  0.91723793  0.58406953  0.80139244  1
  Se  Se203  1  0.91835123  0.91477208  0.30156142  1
  Se  Se204  1  0.91339025  0.91424682  0.80438688  1
  Se  Se205  1  0.08709673  0.08763715  0.30123993  1
  Se  Se206  1  0.07893928  0.07648895  0.80785787  1
  Se  Se207  1  0.08330491  0.42111372  0.29834461  1
  Se  Se208  1  0.08398606  0.41500853  0.81695583  1
  Se  Se209  1  0.08139182  0.74995356  0.29927261  1
  Se  Se210  1  0.08821454  0.74587916  0.79974318  1
  Se  Se211  1  0.41529457  0.08493767  0.29575053  1
  Se  Se212  1  0.42851225  0.09357169  0.81115277  1
  Se  Se213  1  0.41240678  0.41543161  0.29484414  1
  Se  Se214  1  0.41900619  0.42766896  0.81296277  1
  Se  Se215  1  0.42305919  0.75411102  0.30956014  1
  Se  Se216  1  0.42773372  0.75186076  0.81507556  1
  Se  Se217  1  0.75920961  0.08713314  0.30314926  1
  Se  Se218  1  0.75693468  0.08933214  0.82055710  1
  Se  Se219  1  0.72978999  0.40023370  0.29515035  1
  Se  Se220  1  0.74760663  0.41708325  0.79918999  1
  Se  Se221  1  0.73745264  0.74798700  0.29709131  1
  Se  Se222  1  0.74550057  0.75576359  0.80697569  1
  Se  Se223  1  0.25169668  0.08299509  0.19628814  1
  Se  Se224  1  0.24851580  0.08805563  0.68990522  1
  Se  Se225  1  0.25851662  0.42185447  0.19214090  1
  Se  Se226  1  0.24182150  0.42649991  0.69769050  1
  Se  Se227  1  0.24864235  0.76014496  0.18535923  1
  Se  Se228  1  0.25188596  0.76360180  0.69597874  1
  Se  Se229  1  0.58815804  0.08308333  0.19820668  1
  Se  Se230  1  0.57657314  0.09027687  0.69622091  1
  Se  Se231  1  0.58292480  0.41611546  0.19272291  1
  Se  Se232  1  0.58448056  0.42027768  0.69703682  1
  Se  Se233  1  0.57885449  0.73626266  0.18922927  1
  Se  Se234  1  0.58259554  0.74946633  0.69490195  1
  Se  Se235  1  0.92308744  0.07829418  0.19238137  1
  Se  Se236  1  0.91036072  0.08493077  0.70396711  1
  Se  Se237  1  0.93234134  0.40947058  0.20339395  1
  Se  Se238  1  0.90358862  0.42765637  0.68520960  1
  Se  Se239  1  0.91863745  0.74972271  0.19947800  1
  Se  Se240  1  0.91571631  0.75040716  0.69296912  1
  Se  Se241  1  0.08461049  0.25252069  0.19503596  1
  Se  Se242  1  0.08860308  0.24107765  0.69099528  1
  Se  Se243  1  0.08728389  0.59129152  0.19878628  1
  Se  Se244  1  0.08016742  0.58538932  0.70488272  1
  Se  Se245  1  0.08375654  0.92080780  0.19819619  1
  Se  Se246  1  0.06438406  0.92840120  0.69097366  1
  Se  Se247  1  0.41791158  0.25288855  0.19336982  1
  Se  Se248  1  0.43419645  0.24037855  0.69392945  1
  Se  Se249  1  0.42238918  0.58184686  0.17858819  1
  Se  Se250  1  0.41998338  0.57633532  0.69090963  1
  Se  Se251  1  0.41879097  0.92108526  0.20557712  1
  Se  Se252  1  0.42245454  0.91039478  0.69383487  1
  Se  Se253  1  0.74922034  0.24607001  0.19560234  1
  Se  Se254  1  0.74481392  0.25079537  0.70195627  1
  Se  Se255  1  0.77505493  0.56534647  0.19880200  1
  Se  Se256  1  0.74532444  0.59299427  0.69650283  1
  Se  Se257  1  0.74824763  0.91435967  0.19622784  1
  Se  Se258  1  0.75045515  0.91088702  0.68888233  1
