# generated using pymatgen
data_In86Cu29Se144
_symmetry_space_group_name_H-M   'P 1'
_cell_length_a   17.58133033
_cell_length_b   17.57916946
_cell_length_c   23.43637270
_cell_angle_alpha   90.01109361
_cell_angle_beta   90.01710072
_cell_angle_gamma   90.01561209
_symmetry_Int_Tables_number   1
_chemical_formula_structural   In86Cu29Se144
_chemical_formula_sum   'In86 Cu29 Se144'
_cell_volume   7243.36613968
_cell_formula_units_Z   1
loop_
 _symmetry_equiv_pos_site_id
 _symmetry_equiv_pos_as_xyz
  1  'x, y, z'
loop_
 _atom_site_type_symbol
 _atom_site_label
 _atom_site_symmetry_multiplicity
 _atom_site_fract_x
 _atom_site_fract_y
 _atom_site_fract_z
 _atom_site_occupancy
  In  In0  1  0.00906600  0.15848394  0.13208008  1
  In  In1  1  0.01057395  0.15036048  0.62703647  1
  In  In2  1  0.00237068  0.48803908  0.11823883  1
  In  In3  1  -0.00211837  0.50384138  0.62790511  1
  In  In4  1  0.01424597  0.83370890  0.12299571  1
  In  In5  1  0.01747928  0.84281233  0.61782144  1
  In  In6  1  0.33278373  0.17309878  0.12371430  1
  In  In7  1  0.33061856  0.16729583  0.62141532  1
  In  In8  1  0.31611319  0.47835075  0.11033467  1
  In  In9  1  0.34740313  0.48524465  0.63454954  1
  In  In10  1  0.33063087  0.84778101  0.12383587  1
  In  In11  1  0.33122774  0.84753573  0.64027860  1
  In  In12  1  0.66439312  0.18335858  0.12785511  1
  In  In13  1  0.66552023  0.18474272  0.62692984  1
  In  In14  1  0.65727229  0.50064835  0.12079424  1
  In  In15  1  0.64103193  0.51681127  0.63945931  1
  In  In16  1  0.65916319  0.82141550  0.12595534  1
  In  In17  1  0.65115595  0.81674557  0.62902018  1
  In  In18  1  0.16919600  0.00035625  0.37333776  1
  In  In19  1  0.17077980  0.00250145  0.87432287  1
  In  In20  1  0.15761390  0.32371191  0.36066933  1
  In  In21  1  0.17267934  0.32439684  0.88957722  1
  In  In22  1  0.17850972  0.67404713  0.37706468  1
  In  In23  1  0.17746033  0.65609366  0.88307791  1
  In  In24  1  0.49633456  0.02295804  0.37655958  1
  In  In25  1  0.49080085  0.01669339  0.87602677  1
  In  In26  1  0.49920181  0.33046885  0.36971067  1
  In  In27  1  0.49843757  0.33165928  0.87487221  1
  In  In28  1  0.49815276  0.65047078  0.37870054  1
  In  In29  1  0.49320868  0.66064800  0.86854822  1
  In  In30  1  0.84590705  -0.00697234  0.37084377  1
  In  In31  1  0.83722221  -0.01171631  0.87105623  1
  In  In32  1  0.83379142  0.33227790  0.36474246  1
  In  In33  1  0.83652647  0.34796438  0.88237062  1
  In  In34  1  0.82147900  0.66639780  0.37070832  1
  In  In35  1  0.82593709  0.65058769  0.87345302  1
  In  In36  1  0.01104277  0.17148854  0.36839426  1
  In  In37  1  0.02507659  0.16938378  0.88027169  1
  In  In38  1  0.01210074  0.48621753  0.36679252  1
  In  In39  1  0.00150419  0.48678586  0.89527282  1
  In  In40  1  0.01321577  0.84628552  0.36923883  1
  In  In41  1  0.00189918  0.84972096  0.87118907  1
  In  In42  1  0.33769279  0.16149481  0.36937572  1
  In  In43  1  0.32983132  0.17038069  0.87413231  1
  In  In44  1  0.34470334  0.50165805  0.37416094  1
  In  In45  1  0.33864021  0.49827716  0.87608400  1
  In  In46  1  0.31573519  0.83547100  0.37849597  1
  In  In47  1  0.32764160  0.82338826  0.86468043  1
  In  In48  1  0.65206586  0.17690596  0.37689118  1
  In  In49  1  0.64467087  0.16504255  0.87813452  1
  In  In50  1  0.65619088  0.49021843  0.36737502  1
  In  In51  1  0.66757396  0.49956212  0.88073928  1
  In  In52  1  0.66982197  0.82523880  0.37313169  1
  In  In53  1  0.66893845  0.81977178  0.86839821  1
  In  In54  1  0.16697259  0.00445164  0.12237929  1
  In  In55  1  0.17012727  0.00384261  0.62315410  1
  In  In56  1  0.17520373  0.33322581  0.12570096  1
  In  In57  1  0.18518086  0.33412462  0.62513993  1
  In  In58  1  0.16244536  0.66465646  0.11359590  1
  In  In59  1  0.16871207  0.68346463  0.62378411  1
  In  In60  1  0.48059644  0.00666902  0.13232816  1
  In  In61  1  0.47470718  0.00045193  0.62748361  1
  In  In62  1  0.49507492  0.33479998  0.12314954  1
  In  In63  1  0.49557169  0.33464149  0.62352279  1
  In  In64  1  0.51228469  0.65703542  0.12702494  1
  In  In65  1  0.50769291  0.66169330  0.64047123  1
  In  In66  1  0.83782076  0.01291344  0.12910280  1
  In  In67  1  0.84327866  0.00364188  0.62785846  1
  In  In68  1  0.82233661  0.34209745  0.13202156  1
  In  In69  1  0.82263211  0.32360567  0.62528190  1
  In  In70  1  0.82453268  0.64923600  0.11654684  1
  In  In71  1  0.82045788  0.65594078  0.62670638  1
  In  In72  1  0.83284266  0.83463007  0.50712629  1
  In  In73  1  0.82386991  0.49663286  0.49329056  1
  In  In74  1  0.66734391  0.00504941  0.25546016  1
  In  In75  1  0.17387422  0.50020082  0.49471614  1
  In  In76  1  -0.00092476  0.67016067  0.74884128  1
  In  In77  1  0.49512807  0.83424526  0.50760451  1
  In  In78  1  0.84021799  0.16806886  0.49253685  1
  In  In79  1  0.00168034  0.33190620  0.76352825  1
  In  In80  1  0.66344042  -0.00104184  0.74827932  1
  In  In81  1  -0.00492438  0.65970195  0.23426037  1
  In  In82  1  0.83653601  0.82911878  -0.00217433  1
  In  In83  1  0.33625562  0.66127698  0.25199066  1
  In  In84  1  0.83217764  0.17020561  0.00542106  1
  In  In85  1  0.49440583  0.82814231  -0.00836662  1
  Cu  Cu86  1  0.65319762  0.34250915  0.50140723  1
  Cu  Cu87  1  0.66606500  0.00472935  0.50201055  1
  Cu  Cu88  1  0.16687615  0.83730893  0.24722296  1
  Cu  Cu89  1  0.00735923  0.00628504  -0.00146710  1
  Cu  Cu90  1  0.83172239  0.16748945  0.74950966  1
  Cu  Cu91  1  0.33736784  0.32522076  0.49654226  1
  Cu  Cu92  1  0.17449260  0.16245818  0.24686255  1
  Cu  Cu93  1  0.84250013  0.17045301  0.25009376  1
  Cu  Cu94  1  0.83772893  0.83034641  0.74940115  1
  Cu  Cu95  1  0.33759116  0.66787862  -0.00523326  1
  Cu  Cu96  1  0.33564377  0.66606597  0.50569583  1
  Cu  Cu97  1  0.32860770  0.00383621  0.50089933  1
  Cu  Cu98  1  0.49135748  0.17293972  0.74919507  1
  Cu  Cu99  1  0.65290293  -0.00454921  -0.00010646  1
  Cu  Cu100  1  0.01024195  0.32745613  0.49739817  1
  Cu  Cu101  1  0.49919501  0.49380334  0.24646677  1
  Cu  Cu102  1  0.33913050  0.33174992  -0.00083372  1
  Cu  Cu103  1  0.50115232  0.49166594  0.75613490  1
  Cu  Cu104  1  0.00417451  0.66936078  0.00020963  1
  Cu  Cu105  1  0.82781798  0.50302214  0.24319825  1
  Cu  Cu106  1  0.17978803  0.50291890  0.75627977  1
  Cu  Cu107  1  -0.00459051  0.67494757  0.49529885  1
  Cu  Cu108  1  0.16699469  0.83945396  0.74951112  1
  Cu  Cu109  1  0.32351991  0.00765398  0.00130127  1
  Cu  Cu110  1  0.82903132  0.49523232  0.75450168  1
  Cu  Cu111  1  0.66010979  0.33719281  0.00253388  1
  Cu  Cu112  1  0.17146075  0.16538207  0.75023999  1
  Cu  Cu113  1  0.83180583  0.83008938  0.25083681  1
  Cu  Cu114  1  0.49725865  0.83248240  0.24929999  1
  Se  Se115  1  0.08713025  0.09089151  0.05241055  1
  Se  Se116  1  0.09187349  0.08677908  0.55163491  1
  Se  Se117  1  0.10151507  0.42222597  0.05527782  1
  Se  Se118  1  0.07982148  0.41497862  0.55957064  1
  Se  Se119  1  0.08805486  0.75802334  0.04681489  1
  Se  Se120  1  0.08505918  0.75098178  0.54770904  1
  Se  Se121  1  0.41363987  0.08450466  0.05386760  1
  Se  Se122  1  0.41649449  0.08679237  0.55042543  1
  Se  Se123  1  0.42321597  0.41980590  0.04782976  1
  Se  Se124  1  0.41332169  0.41487973  0.55111721  1
  Se  Se125  1  0.41111892  0.74495894  0.06346268  1
  Se  Se126  1  0.40965934  0.74563612  0.57078866  1
  Se  Se127  1  0.73629287  0.07491034  0.05985031  1
  Se  Se128  1  0.74878830  0.08431060  0.56085284  1
  Se  Se129  1  0.74701647  0.41692470  0.05526918  1
  Se  Se130  1  0.73839957  0.41625654  0.56294054  1
  Se  Se131  1  0.73904166  0.74143899  0.05080018  1
  Se  Se132  1  0.73697532  0.73882106  0.55446607  1
  Se  Se133  1  0.25107229  0.24989340  0.05037273  1
  Se  Se134  1  0.24766522  0.24849525  0.54946740  1
  Se  Se135  1  0.25334088  0.58602286  0.04960921  1
  Se  Se136  1  0.25542399  0.58319102  0.56592348  1
  Se  Se137  1  0.24436853  0.91677492  0.05119743  1
  Se  Se138  1  0.25663553  0.91528700  0.55910582  1
  Se  Se139  1  0.57903325  0.24935133  0.05340490  1
  Se  Se140  1  0.57848790  0.25013834  0.55315822  1
  Se  Se141  1  0.58124223  0.58436425  0.04856459  1
  Se  Se142  1  0.57396073  0.58693248  0.55904442  1
  Se  Se143  1  0.57635076  0.91764015  0.06357615  1
  Se  Se144  1  0.58910543  0.92693570  0.56525127  1
  Se  Se145  1  0.91770583  0.25210659  0.07113488  1
  Se  Se146  1  0.92667206  0.25517012  0.56048092  1
  Se  Se147  1  0.92454005  0.58372881  0.05388213  1
  Se  Se148  1  0.92024669  0.58997991  0.55353102  1
  Se  Se149  1  0.92178172  0.92764301  0.05662521  1
  Se  Se150  1  0.92906460  0.93176814  0.55171190  1
  Se  Se151  1  0.09239366  0.24753156  0.44268720  1
  Se  Se152  1  0.06043203  0.27385729  0.95046562  1
  Se  Se153  1  0.07476189  0.58972361  0.43759165  1
  Se  Se154  1  0.08759705  0.58161249  0.95079797  1
  Se  Se155  1  0.10002905  0.90605745  0.44310292  1
  Se  Se156  1  0.08616417  0.91932517  0.94458494  1
  Se  Se157  1  0.42021646  0.24515958  0.44000938  1
  Se  Se158  1  0.41849886  0.24573161  0.94406959  1
  Se  Se159  1  0.41416118  0.57991548  0.45278567  1
  Se  Se160  1  0.42132372  0.58260682  0.94550190  1
  Se  Se161  1  0.41174914  0.92298771  0.44096135  1
  Se  Se162  1  0.40293069  0.92499003  0.94019553  1
  Se  Se163  1  0.74447979  0.26606138  0.44487949  1
  Se  Se164  1  0.73837317  0.25266613  0.94203326  1
  Se  Se165  1  0.73288651  0.58955952  0.44007111  1
  Se  Se166  1  0.76138767  0.57043219  0.94942283  1
  Se  Se167  1  0.74355250  0.92578870  0.44160834  1
  Se  Se168  1  0.73790648  0.92083086  0.94179122  1
  Se  Se169  1  0.25146630  0.08554290  0.44153328  1
  Se  Se170  1  0.24338610  0.09200110  0.94506125  1
  Se  Se171  1  0.25612584  0.40530530  0.43505421  1
  Se  Se172  1  0.25547220  0.41896910  0.94792445  1
  Se  Se173  1  0.25055153  0.74951764  0.45490610  1
  Se  Se174  1  0.25301172  0.75441822  0.94535328  1
  Se  Se175  1  0.58392549  0.08976326  0.45059879  1
  Se  Se176  1  0.57168031  0.08565077  0.95352505  1
  Se  Se177  1  0.57296294  0.42076353  0.44247717  1
  Se  Se178  1  0.57795331  0.41643179  0.94487569  1
  Se  Se179  1  0.58286632  0.74604905  0.44372508  1
  Se  Se180  1  0.59121555  0.73741906  0.94111011  1
  Se  Se181  1  0.93203328  0.07523594  0.43946158  1
  Se  Se182  1  0.91845402  0.07955033  0.93961358  1
  Se  Se183  1  0.92593825  0.40742344  0.44149302  1
  Se  Se184  1  0.91260954  0.41173089  0.96173139  1
  Se  Se185  1  0.91584981  0.75144006  0.43390483  1
  Se  Se186  1  0.92619684  0.74349656  0.93360242  1
  Se  Se187  1  0.25506334  0.24712819  0.30092666  1
  Se  Se188  1  0.24370105  0.25487350  0.80721152  1
  Se  Se189  1  0.24008886  0.57321508  0.30892549  1
  Se  Se190  1  0.26073459  0.58976875  0.80672904  1
  Se  Se191  1  0.25201120  0.91761067  0.30107313  1
  Se  Se192  1  0.25183330  0.92143068  0.80322523  1
  Se  Se193  1  0.59184905  0.25921135  0.30036035  1
  Se  Se194  1  0.58094425  0.24959865  0.80213829  1
  Se  Se195  1  0.57803884  0.58253902  0.30089065  1
  Se  Se196  1  0.58522662  0.57716346  0.80712729  1
  Se  Se197  1  0.57489295  0.91244914  0.31371148  1
  Se  Se198  1  0.57861897  0.91761138  0.81623691  1
  Se  Se199  1  0.92651142  0.25572867  0.30124761  1
  Se  Se200  1  0.90885729  0.23976047  0.81868780  1
  Se  Se201  1  0.91102165  0.57652718  0.30790908  1
  Se  Se202  1  0.92336214  0.56750559  0.80935996  1
  Se  Se203  1  0.92102884  0.91266516  0.29733386  1
  Se  Se204  1  0.91998800  0.92020333  0.79503615  1
  Se  Se205  1  0.08795628  0.08141850  0.30158332  1
  Se  Se206  1  0.08519009  0.08405017  0.80329991  1
  Se  Se207  1  0.08630120  0.41479511  0.29158525  1
  Se  Se208  1  0.09369031  0.42685349  0.81541107  1
  Se  Se209  1  0.08763660  0.74639781  0.30073193  1
  Se  Se210  1  0.09095815  0.75423086  0.81096780  1
  Se  Se211  1  0.41973563  0.08299944  0.29691523  1
  Se  Se212  1  0.40913131  0.08725267  0.80090595  1
  Se  Se213  1  0.41404272  0.41529001  0.30178471  1
  Se  Se214  1  0.41221545  0.41005954  0.80489226  1
  Se  Se215  1  0.42012367  0.75512140  0.31576530  1
  Se  Se216  1  0.43029495  0.76075808  0.80293072  1
  Se  Se217  1  0.76084466  0.09478598  0.31512782  1
  Se  Se218  1  0.75142265  0.08852995  0.81288128  1
  Se  Se219  1  0.74975201  0.41794143  0.30088001  1
  Se  Se220  1  0.74782067  0.41253130  0.80921914  1
  Se  Se221  1  0.74445746  0.74661230  0.29766800  1
  Se  Se222  1  0.75966926  0.74356200  0.80227944  1
  Se  Se223  1  0.25573320  0.07970839  0.19112297  1
  Se  Se224  1  0.25351240  0.08352497  0.69409318  1
  Se  Se225  1  0.26442315  0.40748445  0.19684464  1
  Se  Se226  1  0.25392604  0.41260652  0.70251247  1
  Se  Se227  1  0.24517270  0.75113178  0.18944855  1
  Se  Se228  1  0.24945991  0.75066126  0.70025083  1
  Se  Se229  1  0.57921702  0.09090514  0.19310633  1
  Se  Se230  1  0.57515837  0.09237153  0.68897845  1
  Se  Se231  1  0.58478632  0.41309003  0.19249212  1
  Se  Se232  1  0.58156781  0.40781283  0.69833909  1
  Se  Se233  1  0.58022745  0.74664505  0.20044027  1
  Se  Se234  1  0.58462063  0.74833032  0.71015688  1
  Se  Se235  1  0.92279279  0.07959606  0.20295781  1
  Se  Se236  1  0.91863854  0.08602071  0.69993547  1
  Se  Se237  1  0.91708752  0.42139186  0.19474483  1
  Se  Se238  1  0.91052227  0.41689095  0.69330667  1
  Se  Se239  1  0.90454186  0.75656498  0.18014229  1
  Se  Se240  1  0.91303894  0.75576958  0.68050900  1
  Se  Se241  1  0.09124005  0.24828279  0.19508677  1
  Se  Se242  1  0.08885169  0.25066982  0.69278717  1
  Se  Se243  1  0.09675971  0.57268138  0.18789143  1
  Se  Se244  1  0.09613833  0.57707820  0.69357827  1
  Se  Se245  1  0.08353591  0.92113574  0.19416890  1
  Se  Se246  1  0.08475960  0.92228828  0.69490902  1
  Se  Se247  1  0.40752546  0.26102706  0.19302839  1
  Se  Se248  1  0.40945765  0.25316422  0.69144775  1
  Se  Se249  1  0.41586888  0.57157183  0.18595371  1
  Se  Se250  1  0.41744405  0.57796182  0.70311604  1
  Se  Se251  1  0.41035038  0.91588963  0.20220884  1
  Se  Se252  1  0.43251955  0.90950887  0.70573996  1
  Se  Se253  1  0.75134597  0.24984550  0.20172440  1
  Se  Se254  1  0.74650792  0.25424458  0.70401482  1
  Se  Se255  1  0.74143826  0.58432256  0.19277226  1
  Se  Se256  1  0.74667526  0.58128407  0.70277147  1
  Se  Se257  1  0.75202334  0.91228507  0.18919559  1
  Se  Se258  1  0.75488458  0.90703058  0.68682404  1
