# generated using pymatgen
data_In86Cu29Se144
_symmetry_space_group_name_H-M   'P 1'
_cell_length_a   17.56937175
_cell_length_b   17.56770845
_cell_length_c   23.42631077
_cell_angle_alpha   89.99922873
_cell_angle_beta   90.00233482
_cell_angle_gamma   89.99744225
_symmetry_Int_Tables_number   1
_chemical_formula_structural   In86Cu29Se144
_chemical_formula_sum   'In86 Cu29 Se144'
_cell_volume   7230.61515369
_cell_formula_units_Z   1
loop_
 _symmetry_equiv_pos_site_id
 _symmetry_equiv_pos_as_xyz
  1  'x, y, z'
loop_
 _atom_site_type_symbol
 _atom_site_label
 _atom_site_symmetry_multiplicity
 _atom_site_fract_x
 _atom_site_fract_y
 _atom_site_fract_z
 _atom_site_occupancy
  In  In0  1  -0.02353943  0.17803971  0.14950595  1
  In  In1  1  0.01007104  0.17452527  0.59640649  1
  In  In2  1  -0.00250622  0.50811809  0.13462223  1
  In  In3  1  -0.00009589  0.49772727  0.60166787  1
  In  In4  1  -0.00704550  0.82909223  0.13691827  1
  In  In5  1  -0.00234943  0.84844836  0.61802437  1
  In  In6  1  0.33726503  0.18477544  0.12746721  1
  In  In7  1  0.32694842  0.17600059  0.63091332  1
  In  In8  1  0.30224889  0.50673922  0.12591355  1
  In  In9  1  0.32711351  0.49180195  0.61491721  1
  In  In10  1  0.32697430  0.81715097  0.10155590  1
  In  In11  1  0.35218996  0.82875770  0.62922168  1
  In  In12  1  0.66352278  0.15471554  0.12945488  1
  In  In13  1  0.68316148  0.16213023  0.61681743  1
  In  In14  1  0.69453607  0.49698185  0.12534212  1
  In  In15  1  0.67300995  0.51431750  0.61836427  1
  In  In16  1  0.67106427  0.83000479  0.13331535  1
  In  In17  1  0.66069690  0.82698298  0.61871796  1
  In  In18  1  0.15579016  0.01222428  0.38355413  1
  In  In19  1  0.16830608  -0.00898849  0.88130052  1
  In  In20  1  0.15793305  0.33074046  0.37313437  1
  In  In21  1  0.17681338  0.33766645  0.87722184  1
  In  In22  1  0.15114091  0.65647774  0.36710639  1
  In  In23  1  0.17441875  0.66278768  0.89419534  1
  In  In24  1  0.50182339  -0.01468629  0.38197907  1
  In  In25  1  0.49075262  0.00224462  0.87210349  1
  In  In26  1  0.50598299  0.34855834  0.37409146  1
  In  In27  1  0.48648213  0.34511322  0.87226161  1
  In  In28  1  0.50856932  0.66070381  0.37903645  1
  In  In29  1  0.51507464  0.66379639  0.87400235  1
  In  In30  1  0.82886558  0.00121983  0.35941977  1
  In  In31  1  0.83377226  -0.00318914  0.88708407  1
  In  In32  1  0.86288367  0.31865704  0.39210030  1
  In  In33  1  0.82707711  0.33622051  0.89685917  1
  In  In34  1  0.82820496  0.66853145  0.37097332  1
  In  In35  1  0.82229508  0.67431584  0.88422313  1
  In  In36  1  -0.00100500  0.16656370  0.36260937  1
  In  In37  1  -0.00850781  0.16122577  0.88082168  1
  In  In38  1  0.00218873  0.49209184  0.37716570  1
  In  In39  1  -0.00142569  0.50082535  0.88615637  1
  In  In40  1  -0.03301738  0.81142870  0.34105902  1
  In  In41  1  0.00211955  0.83285438  0.89081654  1
  In  In42  1  0.31030871  0.16747961  0.38374669  1
  In  In43  1  0.33858336  0.17430559  0.86785077  1
  In  In44  1  0.33842943  0.49258361  0.37503507  1
  In  In45  1  0.33070970  0.49338512  0.87425733  1
  In  In46  1  0.34079804  0.84277297  0.38202069  1
  In  In47  1  0.33283691  0.83364019  0.88433720  1
  In  In48  1  0.70332751  0.16276051  0.36177728  1
  In  In49  1  0.68007718  0.16915990  0.87925571  1
  In  In50  1  0.66670296  0.50905485  0.37502450  1
  In  In51  1  0.66118028  0.50819295  0.87846302  1
  In  In52  1  0.66965903  0.83036553  0.36289824  1
  In  In53  1  0.67448116  0.82672335  0.88082142  1
  In  In54  1  0.16342580  -0.01000165  0.12279725  1
  In  In55  1  0.16515460  0.00903365  0.62507792  1
  In  In56  1  0.13825999  0.36609607  0.15489954  1
  In  In57  1  0.17250734  0.34096905  0.61066387  1
  In  In58  1  0.15261981  0.65276346  0.11498325  1
  In  In59  1  0.17659996  0.65659388  0.61936223  1
  In  In60  1  0.51016509  -0.01361630  0.13037927  1
  In  In61  1  0.50174628  -0.01843871  0.62691764  1
  In  In62  1  0.49814782  0.32559473  0.12994934  1
  In  In63  1  0.48416636  0.33180079  0.62225260  1
  In  In64  1  0.49711908  0.68187224  0.12182709  1
  In  In65  1  0.51328615  0.68178787  0.61824997  1
  In  In66  1  0.82984565  -0.00578759  0.13296346  1
  In  In67  1  0.83914648  0.00317148  0.61049441  1
  In  In68  1  0.83709176  0.34429790  0.11936248  1
  In  In69  1  0.84185977  0.33681199  0.60727774  1
  In  In70  1  0.83653778  0.66587578  0.13873725  1
  In  In71  1  0.82069850  0.66249229  0.61983506  1
  In  In72  1  -0.00085627  0.00531059  0.75312950  1
  In  In73  1  0.66520720  -0.00129829  0.74707413  1
  In  In74  1  0.66009554  0.33682944  0.75385120  1
  In  In75  1  0.33942240  0.66298928  0.75264048  1
  In  In76  1  0.33029550  0.66234224  0.24839153  1
  In  In77  1  0.16112333  0.83109731  0.49227701  1
  In  In78  1  0.50697062  0.15972610  0.00312196  1
  In  In79  1  0.15941118  0.16951268  0.00439005  1
  In  In80  1  0.33179669  0.00247586  0.25038900  1
  In  In81  1  0.00000399  0.66921772  0.75082008  1
  In  In82  1  0.67395309  0.33804738  0.25231232  1
  In  In83  1  0.50253631  0.49937616  -0.00282279  1
  In  In84  1  -0.00150988  0.33307632  0.73718854  1
  In  In85  1  0.50911271  0.16502952  0.50355225  1
  Cu  Cu86  1  0.82866859  0.82881463  0.75175508  1
  Cu  Cu87  1  0.67490283  0.66464824  0.00700732  1
  Cu  Cu88  1  0.33256574  0.32928073  0.49548973  1
  Cu  Cu89  1  0.33255801  0.65968804  0.49747843  1
  Cu  Cu90  1  0.16967222  0.83278495  0.24833874  1
  Cu  Cu91  1  0.33761939  -0.00795223  0.50649457  1
  Cu  Cu92  1  0.49661873  0.16493843  0.74859022  1
  Cu  Cu93  1  0.17507929  0.83403890  0.76132839  1
  Cu  Cu94  1  0.83875550  0.49825198  0.25853579  1
  Cu  Cu95  1  0.17011050  0.17215639  0.25468314  1
  Cu  Cu96  1  0.84096961  0.17138345  0.74483945  1
  Cu  Cu97  1  0.49760078  0.83290170  0.24768412  1
  Cu  Cu98  1  0.50173586  0.50620735  0.24988492  1
  Cu  Cu99  1  0.49501296  0.50190610  0.74669415  1
  Cu  Cu100  1  -0.00984864  0.00189519  0.01294823  1
  Cu  Cu101  1  0.32657976  0.34035091  0.00535429  1
  Cu  Cu102  1  0.82531725  0.50883183  0.74848730  1
  Cu  Cu103  1  0.17731655  0.17056499  0.74661979  1
  Cu  Cu104  1  0.67595467  0.00100873  0.49076579  1
  Cu  Cu105  1  0.49365017  0.16857042  0.26141158  1
  Cu  Cu106  1  -0.00809908  -0.00769231  0.48446136  1
  Cu  Cu107  1  0.33785568  0.00101419  -0.00029632  1
  Cu  Cu108  1  0.67262262  -0.01054403  0.00879057  1
  Cu  Cu109  1  0.67006076  0.67691738  0.49522712  1
  Cu  Cu110  1  -0.00707050  0.67133761  0.48887772  1
  Cu  Cu111  1  0.00146444  0.34032110  0.01539384  1
  Cu  Cu112  1  -0.00686680  0.66598158  0.00935966  1
  Cu  Cu113  1  0.16561347  0.49239080  0.74265629  1
  Cu  Cu114  1  0.66986191  0.34450433  0.49249796  1
  Se  Se115  1  0.07057417  0.08756228  0.07001452  1
  Se  Se116  1  0.08092016  0.06515502  0.54409721  1
  Se  Se117  1  0.08508681  0.42671789  0.06296640  1
  Se  Se118  1  0.06643423  0.39269754  0.54598703  1
  Se  Se119  1  0.07474112  0.75471294  0.06049802  1
  Se  Se120  1  0.07445526  0.74059032  0.55889255  1
  Se  Se121  1  0.41182913  0.07777447  0.06553171  1
  Se  Se122  1  0.41562194  0.07905674  0.56431071  1
  Se  Se123  1  0.41299013  0.41604018  0.06344250  1
  Se  Se124  1  0.41683367  0.41427458  0.54642030  1
  Se  Se125  1  0.43001248  0.75306487  0.04098971  1
  Se  Se126  1  0.41318014  0.74605797  0.55031902  1
  Se  Se127  1  0.75022630  0.07856162  0.06040624  1
  Se  Se128  1  0.75875127  0.08759161  0.54118170  1
  Se  Se129  1  0.74513283  0.40863669  0.04761545  1
  Se  Se130  1  0.75075113  0.42555006  0.55088418  1
  Se  Se131  1  0.75461629  0.74573093  0.06526392  1
  Se  Se132  1  0.75489947  0.75800717  0.55042100  1
  Se  Se133  1  0.24249934  0.26380895  0.06460833  1
  Se  Se134  1  0.25247161  0.24373977  0.55035730  1
  Se  Se135  1  0.26532575  0.60664917  0.05276449  1
  Se  Se136  1  0.24483155  0.57450515  0.54442131  1
  Se  Se137  1  0.24755147  0.92070835  0.04847898  1
  Se  Se138  1  0.25128766  0.90994669  0.56298374  1
  Se  Se139  1  0.59229359  0.25561276  0.05984971  1
  Se  Se140  1  0.59660299  0.26449005  0.56059765  1
  Se  Se141  1  0.59148082  0.58323173  0.06447104  1
  Se  Se142  1  0.58585989  0.59154161  0.54902656  1
  Se  Se143  1  0.58558870  0.90595605  0.05770200  1
  Se  Se144  1  0.59270223  0.92444455  0.55100134  1
  Se  Se145  1  0.92122884  0.24739796  0.06039527  1
  Se  Se146  1  0.90268046  0.23713339  0.54138635  1
  Se  Se147  1  0.91085254  0.58300164  0.06332121  1
  Se  Se148  1  0.91169053  0.59147261  0.54923351  1
  Se  Se149  1  0.91250872  0.91134311  0.06373754  1
  Se  Se150  1  0.91189950  0.91079597  0.54206482  1
  Se  Se151  1  0.09624439  0.22450019  0.43465134  1
  Se  Se152  1  0.07135881  0.26450078  0.94199981  1
  Se  Se153  1  0.08231192  0.58302381  0.44685380  1
  Se  Se154  1  0.07967004  0.58373064  0.95498929  1
  Se  Se155  1  0.06772946  0.90443082  0.42555454  1
  Se  Se156  1  0.07814853  0.92759455  0.95461398  1
  Se  Se157  1  0.41987045  0.25036653  0.43871442  1
  Se  Se158  1  0.41061857  0.25730074  0.94893434  1
  Se  Se159  1  0.41806775  0.58020473  0.44240300  1
  Se  Se160  1  0.41181220  0.58880119  0.93668287  1
  Se  Se161  1  0.42461481  0.90977275  0.45802322  1
  Se  Se162  1  0.42319854  0.91895019  0.94770835  1
  Se  Se163  1  0.74658978  0.25346727  0.44256922  1
  Se  Se164  1  0.76086415  0.23274847  0.95568335  1
  Se  Se165  1  0.75106077  0.58816269  0.44544700  1
  Se  Se166  1  0.75049049  0.57738160  0.94967130  1
  Se  Se167  1  0.75135193  0.91740231  0.43176597  1
  Se  Se168  1  0.75558988  0.90761367  0.95192256  1
  Se  Se169  1  0.25072985  0.07291524  0.45575891  1
  Se  Se170  1  0.25967865  0.08841851  0.94274179  1
  Se  Se171  1  0.24980018  0.41087715  0.44009775  1
  Se  Se172  1  0.24581756  0.42482127  0.95019228  1
  Se  Se173  1  0.25383412  0.73876203  0.43389783  1
  Se  Se174  1  0.23667423  0.76831485  0.95197113  1
  Se  Se175  1  0.59456063  0.08507358  0.43357293  1
  Se  Se176  1  0.59664987  0.06893160  0.94209559  1
  Se  Se177  1  0.58284792  0.42795314  0.44610963  1
  Se  Se178  1  0.59037890  0.40046975  0.94048970  1
  Se  Se179  1  0.58590661  0.75741944  0.43936275  1
  Se  Se180  1  0.59100514  0.74199115  0.94866528  1
  Se  Se181  1  0.91359127  0.08055297  0.43077695  1
  Se  Se182  1  0.91228941  0.08549716  0.95426385  1
  Se  Se183  1  0.91426992  0.42778617  0.45331367  1
  Se  Se184  1  0.91706198  0.42106426  0.95683402  1
  Se  Se185  1  0.91409823  0.75756732  0.43677651  1
  Se  Se186  1  0.91252965  0.74958309  0.95209477  1
  Se  Se187  1  0.25561972  0.25413493  0.30580674  1
  Se  Se188  1  0.25197041  0.25836010  0.80302872  1
  Se  Se189  1  0.24304632  0.56858903  0.30507772  1
  Se  Se190  1  0.23564804  0.57847735  0.80745859  1
  Se  Se191  1  0.24361466  0.91316095  0.31298984  1
  Se  Se192  1  0.25712696  0.92021008  0.81089542  1
  Se  Se193  1  0.58460473  0.24419349  0.31458038  1
  Se  Se194  1  0.57383758  0.24000303  0.81472425  1
  Se  Se195  1  0.58601900  0.58790953  0.30157922  1
  Se  Se196  1  0.58408191  0.57785690  0.79968990  1
  Se  Se197  1  0.57662141  0.91853801  0.30186261  1
  Se  Se198  1  0.58304065  0.91190973  0.81261200  1
  Se  Se199  1  0.90373082  0.24717971  0.30192713  1
  Se  Se200  1  0.91226289  0.25318742  0.81067955  1
  Se  Se201  1  0.92120926  0.58255155  0.31074336  1
  Se  Se202  1  0.91132277  0.57906413  0.81200446  1
  Se  Se203  1  0.93001857  0.93749819  0.29073201  1
  Se  Se204  1  0.91228416  0.90794063  0.81185168  1
  Se  Se205  1  0.08939951  0.07865535  0.29942278  1
  Se  Se206  1  0.09561491  0.09520641  0.81131586  1
  Se  Se207  1  0.08103861  0.41502457  0.30250733  1
  Se  Se208  1  0.08254689  0.42031983  0.80760655  1
  Se  Se209  1  0.08420824  0.74431675  0.29432544  1
  Se  Se210  1  0.09026001  0.75338319  0.81652868  1
  Se  Se211  1  0.41551013  0.08605345  0.32113648  1
  Se  Se212  1  0.41183184  0.08217177  0.80049849  1
  Se  Se213  1  0.42135926  0.41830256  0.30035798  1
  Se  Se214  1  0.40830021  0.41991638  0.79723355  1
  Se  Se215  1  0.41788166  0.75498697  0.30985599  1
  Se  Se216  1  0.42352914  0.75444462  0.81322960  1
  Se  Se217  1  0.73411001  0.06353109  0.28433394  1
  Se  Se218  1  0.76446852  0.08728873  0.80518098  1
  Se  Se219  1  0.76234903  0.41612667  0.32033781  1
  Se  Se220  1  0.75902098  0.42015739  0.81241694  1
  Se  Se221  1  0.76046620  0.75529382  0.29595448  1
  Se  Se222  1  0.74694607  0.74503034  0.80433330  1
  Se  Se223  1  0.24393775  0.09352226  0.18788058  1
  Se  Se224  1  0.25421034  0.07867618  0.69592550  1
  Se  Se225  1  0.27203158  0.39716954  0.19351274  1
  Se  Se226  1  0.24997890  0.41140179  0.68948016  1
  Se  Se227  1  0.24840306  0.75627798  0.18636026  1
  Se  Se228  1  0.24291040  0.75222090  0.69306090  1
  Se  Se229  1  0.56537586  0.09021398  0.19693086  1
  Se  Se230  1  0.58074864  0.09521525  0.68564044  1
  Se  Se231  1  0.58324330  0.42565907  0.18859116  1
  Se  Se232  1  0.57736020  0.42203583  0.68552218  1
  Se  Se233  1  0.58156631  0.74509883  0.19896939  1
  Se  Se234  1  0.58045133  0.76058006  0.69533230  1
  Se  Se235  1  0.92284006  0.06250944  0.20506874  1
  Se  Se236  1  0.92122500  0.09369154  0.68253724  1
  Se  Se237  1  0.91439046  0.41584753  0.19733032  1
  Se  Se238  1  0.90574913  0.43190538  0.68513374  1
  Se  Se239  1  0.90927869  0.75403580  0.21023636  1
  Se  Se240  1  0.91392478  0.75954373  0.68754447  1
  Se  Se241  1  0.07689733  0.25305995  0.20843020  1
  Se  Se242  1  0.08989980  0.23861211  0.68254344  1
  Se  Se243  1  0.09872890  0.57632541  0.19806281  1
  Se  Se244  1  0.08327792  0.57435809  0.68601149  1
  Se  Se245  1  0.08501925  0.91709835  0.19770573  1
  Se  Se246  1  0.09196155  0.90903491  0.69701413  1
  Se  Se247  1  0.41723761  0.25343713  0.20538033  1
  Se  Se248  1  0.41452137  0.25403354  0.69985466  1
  Se  Se249  1  0.42102071  0.57673996  0.18366106  1
  Se  Se250  1  0.41957918  0.58029817  0.68097489  1
  Se  Se251  1  0.40742950  0.90249572  0.18732442  1
  Se  Se252  1  0.41803768  0.91569607  0.70158973  1
  Se  Se253  1  0.75547060  0.24785925  0.18793222  1
  Se  Se254  1  0.75677218  0.25461740  0.69012800  1
  Se  Se255  1  0.75130825  0.57913661  0.20602093  1
  Se  Se256  1  0.74149694  0.59282585  0.69801374  1
  Se  Se257  1  0.72975431  0.93247709  0.20242631  1
  Se  Se258  1  0.76220892  0.91679939  0.68658747  1
