# generated using pymatgen
data_In86Cu29Se144
_symmetry_space_group_name_H-M   'P 1'
_cell_length_a   17.57629300
_cell_length_b   17.58289627
_cell_length_c   23.44148506
_cell_angle_alpha   89.99036415
_cell_angle_beta   90.00859451
_cell_angle_gamma   89.96764380
_symmetry_Int_Tables_number   1
_chemical_formula_structural   In86Cu29Se144
_chemical_formula_sum   'In86 Cu29 Se144'
_cell_volume   7244.40528762
_cell_formula_units_Z   1
loop_
 _symmetry_equiv_pos_site_id
 _symmetry_equiv_pos_as_xyz
  1  'x, y, z'
loop_
 _atom_site_type_symbol
 _atom_site_label
 _atom_site_symmetry_multiplicity
 _atom_site_fract_x
 _atom_site_fract_y
 _atom_site_fract_z
 _atom_site_occupancy
  In  In0  1  -0.00124389  0.16489321  0.12614132  1
  In  In1  1  -0.00453280  0.16522619  0.62894044  1
  In  In2  1  -0.01648027  0.49852029  0.12205775  1
  In  In3  1  -0.00342733  0.50132442  0.62931242  1
  In  In4  1  0.00995802  0.83647612  0.12104016  1
  In  In5  1  -0.01062821  0.84387762  0.63249438  1
  In  In6  1  0.31820278  0.15703627  0.11279320  1
  In  In7  1  0.32569252  0.18138579  0.62226140  1
  In  In8  1  0.34538405  0.49933841  0.13151544  1
  In  In9  1  0.34419025  0.50208792  0.62408191  1
  In  In10  1  0.32773989  0.84475586  0.13819428  1
  In  In11  1  0.32345952  0.83155225  0.62512807  1
  In  In12  1  0.67035251  0.16947689  0.12744535  1
  In  In13  1  0.68522979  0.16640740  0.62610804  1
  In  In14  1  0.66270482  0.48798782  0.12731197  1
  In  In15  1  0.66958349  0.49728127  0.62491805  1
  In  In16  1  0.67929060  0.84308773  0.13181510  1
  In  In17  1  0.67044054  0.82045963  0.62709740  1
  In  In18  1  0.17247482  0.00850064  0.36681303  1
  In  In19  1  0.13614560  0.01633219  0.89654687  1
  In  In20  1  0.14300361  0.33046663  0.37174111  1
  In  In21  1  0.15905652  0.33568681  0.87509324  1
  In  In22  1  0.17750568  0.66354360  0.37462441  1
  In  In23  1  0.17026672  0.67309199  0.87140822  1
  In  In24  1  0.50450805  -0.00218195  0.35646225  1
  In  In25  1  0.50834797  0.01138389  0.88162724  1
  In  In26  1  0.51561740  0.33753919  0.37266817  1
  In  In27  1  0.50557863  0.31955171  0.88003889  1
  In  In28  1  0.49380747  0.66403056  0.37419220  1
  In  In29  1  0.49950489  0.66784175  0.86902039  1
  In  In30  1  0.84091751  0.00123890  0.36747707  1
  In  In31  1  0.85445916  0.00302226  0.87941251  1
  In  In32  1  0.83679865  0.33163545  0.37865168  1
  In  In33  1  0.83215358  0.33295173  0.87558412  1
  In  In34  1  0.83127085  0.66546647  0.38811093  1
  In  In35  1  0.82307846  0.65240081  0.86734437  1
  In  In36  1  0.00074817  0.16886662  0.37456160  1
  In  In37  1  -0.00449726  0.16977178  0.87710222  1
  In  In38  1  -0.00793678  0.48511807  0.37479401  1
  In  In39  1  -0.01322881  0.48384902  0.86419891  1
  In  In40  1  -0.01902337  0.83952569  0.37240533  1
  In  In41  1  0.00755427  0.84133967  0.87048063  1
  In  In42  1  0.33286940  0.15770690  0.37061303  1
  In  In43  1  0.32950767  0.17278170  0.89306318  1
  In  In44  1  0.33504150  0.51401243  0.37210897  1
  In  In45  1  0.32563980  0.50700596  0.87176591  1
  In  In46  1  0.34263344  0.83728970  0.36035846  1
  In  In47  1  0.32324658  0.82267751  0.87716309  1
  In  In48  1  0.67852574  0.17870734  0.36459424  1
  In  In49  1  0.66226858  0.17798845  0.88273190  1
  In  In50  1  0.67915295  0.49206286  0.38413140  1
  In  In51  1  0.68201008  0.51139190  0.86984557  1
  In  In52  1  0.67733624  0.84227214  0.36498820  1
  In  In53  1  0.67639515  0.82604033  0.87625056  1
  In  In54  1  0.16295221  0.00290397  0.12529046  1
  In  In55  1  0.14810485  -0.00279858  0.62475386  1
  In  In56  1  0.16389267  0.30305259  0.11868538  1
  In  In57  1  0.15740497  0.31868384  0.62179918  1
  In  In58  1  0.16688555  0.68040148  0.11992784  1
  In  In59  1  0.16800560  0.66603724  0.63572429  1
  In  In60  1  0.49041764  0.00502309  0.13635173  1
  In  In61  1  0.50970918  0.00523245  0.61917640  1
  In  In62  1  0.51452388  0.33794122  0.12682509  1
  In  In63  1  0.49892967  0.34907719  0.62169339  1
  In  In64  1  0.49485813  0.65181617  0.13147224  1
  In  In65  1  0.51326074  0.65636726  0.63348342  1
  In  In66  1  0.82534291  0.00575338  0.13363942  1
  In  In67  1  0.84751112  0.01760049  0.61471230  1
  In  In68  1  0.83473437  0.33147288  0.12832355  1
  In  In69  1  0.83533776  0.32885076  0.62830634  1
  In  In70  1  0.83810610  0.66514466  0.11514553  1
  In  In71  1  0.83367991  0.66405665  0.62530991  1
  In  In72  1  0.33289637  0.33056626  0.24366954  1
  In  In73  1  0.00209899  0.67186991  0.24563729  1
  In  In74  1  0.33070588  0.33826582  0.75066798  1
  In  In75  1  0.16244001  0.83618963  0.49922557  1
  In  In76  1  0.15702315  0.49599362  0.50293521  1
  In  In77  1  0.83845627  0.83949273  0.00268301  1
  In  In78  1  0.16378105  0.49451519  -0.00906478  1
  In  In79  1  0.67619794  -0.00586708  0.75832500  1
  In  In80  1  0.66453690  0.66496372  0.25296350  1
  In  In81  1  0.50396681  0.83001932  0.48645140  1
  In  In82  1  0.32891085  -0.00799706  0.75592940  1
  In  In83  1  0.50717348  0.49436074  0.00637382  1
  In  In84  1  0.50590966  0.17036584  0.48504640  1
  In  In85  1  0.49790129  0.83400101  0.00353383  1
  Cu  Cu86  1  -0.00267721  0.32933195  -0.00196926  1
  Cu  Cu87  1  0.34385183  0.66753805  0.50092600  1
  Cu  Cu88  1  0.50180793  0.16621110  0.24607362  1
  Cu  Cu89  1  0.16366361  0.83216484  0.75349925  1
  Cu  Cu90  1  0.83428255  0.17013663  0.25029877  1
  Cu  Cu91  1  0.66812071  0.01073347  0.00559174  1
  Cu  Cu92  1  0.32953414  -0.00697081  0.00898861  1
  Cu  Cu93  1  0.67057941  0.33207036  0.50153428  1
  Cu  Cu94  1  0.49408160  0.82763711  0.75012449  1
  Cu  Cu95  1  0.50498177  0.16748606  0.75673895  1
  Cu  Cu96  1  0.67737049  -0.00469779  0.49109546  1
  Cu  Cu97  1  0.83178592  0.49490030  0.25317908  1
  Cu  Cu98  1  0.83308398  0.82850209  0.74956348  1
  Cu  Cu99  1  0.67803159  0.33243376  0.00340468  1
  Cu  Cu100  1  0.16759759  0.49973955  0.24993780  1
  Cu  Cu101  1  0.67003978  0.65980368  0.50693458  1
  Cu  Cu102  1  0.33011145  0.01414769  0.49217906  1
  Cu  Cu103  1  0.33019547  0.66675635  0.00161628  1
  Cu  Cu104  1  0.16295352  0.50278877  0.75171748  1
  Cu  Cu105  1  0.16052118  0.15932401  0.75163773  1
  Cu  Cu106  1  -0.00520499  0.00782644  0.49870942  1
  Cu  Cu107  1  0.83949223  0.17030133  0.75060278  1
  Cu  Cu108  1  0.83130248  0.49728302  0.74524315  1
  Cu  Cu109  1  -0.00350199  0.66703185  0.50418490  1
  Cu  Cu110  1  0.15960207  0.16174064  0.24489560  1
  Cu  Cu111  1  0.16737835  0.83648935  0.24676271  1
  Cu  Cu112  1  -0.00720747  0.66363147  -0.00685915  1
  Cu  Cu113  1  0.50296836  0.50271432  0.74767757  1
  Cu  Cu114  1  0.32381414  0.33952005  0.49915834  1
  Se  Se115  1  0.10209954  0.10545291  0.06018974  1
  Se  Se116  1  0.08004524  0.08635701  0.55478870  1
  Se  Se117  1  0.07792428  0.41036237  0.05869620  1
  Se  Se118  1  0.06646854  0.40310024  0.55673702  1
  Se  Se119  1  0.07547512  0.74523776  0.04805416  1
  Se  Se120  1  0.07917232  0.74568079  0.56334776  1
  Se  Se121  1  0.41902531  0.07642562  0.05592505  1
  Se  Se122  1  0.41397838  0.08706411  0.55505829  1
  Se  Se123  1  0.40969030  0.40556740  0.05862282  1
  Se  Se124  1  0.41313760  0.41926424  0.54847384  1
  Se  Se125  1  0.40925176  0.74400213  0.06439227  1
  Se  Se126  1  0.42033460  0.75016360  0.56165775  1
  Se  Se127  1  0.75585172  0.08899031  0.05779227  1
  Se  Se128  1  0.74897675  0.08432857  0.54820429  1
  Se  Se129  1  0.75470475  0.41908784  0.05828886  1
  Se  Se130  1  0.75292630  0.41290632  0.55827937  1
  Se  Se131  1  0.74003386  0.74915535  0.05523626  1
  Se  Se132  1  0.75317930  0.74955671  0.55366833  1
  Se  Se133  1  0.25686217  0.25414013  0.04382959  1
  Se  Se134  1  0.24378627  0.25001309  0.54718616  1
  Se  Se135  1  0.25248694  0.57978736  0.05880635  1
  Se  Se136  1  0.25334072  0.59197003  0.55663256  1
  Se  Se137  1  0.24590660  0.91025546  0.06062225  1
  Se  Se138  1  0.25675541  0.93140989  0.55566858  1
  Se  Se139  1  0.58938016  0.25326275  0.05588638  1
  Se  Se140  1  0.58614989  0.25070889  0.56004229  1
  Se  Se141  1  0.59435447  0.59241812  0.05963780  1
  Se  Se142  1  0.58115441  0.57830233  0.55559232  1
  Se  Se143  1  0.58935128  0.92489591  0.06167992  1
  Se  Se144  1  0.59350756  0.91936173  0.55173416  1
  Se  Se145  1  0.91581463  0.25037069  0.05727204  1
  Se  Se146  1  0.89417190  0.22562081  0.56259706  1
  Se  Se147  1  0.91219229  0.57802251  0.04509416  1
  Se  Se148  1  0.91704434  0.58034342  0.55648447  1
  Se  Se149  1  0.92349708  0.93189458  0.06140390  1
  Se  Se150  1  0.91800229  0.91653470  0.55199144  1
  Se  Se151  1  0.07723274  0.25152079  0.44776937  1
  Se  Se152  1  0.08515408  0.25061539  0.94532152  1
  Se  Se153  1  0.07546040  0.59225022  0.43899350  1
  Se  Se154  1  0.07283540  0.58367432  0.93189734  1
  Se  Se155  1  0.07556487  0.92596336  0.43796624  1
  Se  Se156  1  0.07994586  0.90469521  0.95317839  1
  Se  Se157  1  0.40626701  0.26281368  0.43530697  1
  Se  Se158  1  0.42637765  0.24640638  0.95270681  1
  Se  Se159  1  0.42121615  0.57959014  0.44838369  1
  Se  Se160  1  0.41358144  0.58710491  0.94470465  1
  Se  Se161  1  0.41146392  0.93094747  0.43702902  1
  Se  Se162  1  0.40834826  0.92256906  0.93964803  1
  Se  Se163  1  0.74935279  0.24714138  0.44627137  1
  Se  Se164  1  0.75830765  0.24687842  0.94898363  1
  Se  Se165  1  0.75620534  0.57629073  0.45531604  1
  Se  Se166  1  0.74999359  0.58665613  0.94880793  1
  Se  Se167  1  0.76054249  0.91324126  0.43854907  1
  Se  Se168  1  0.74287354  0.92949310  0.94178907  1
  Se  Se169  1  0.24093654  0.09319457  0.44320419  1
  Se  Se170  1  0.24999870  0.07651985  0.95147989  1
  Se  Se171  1  0.24741300  0.41671579  0.43365533  1
  Se  Se172  1  0.26454292  0.40548471  0.93988248  1
  Se  Se173  1  0.26436745  0.75146855  0.44287805  1
  Se  Se174  1  0.24263507  0.74786777  0.95145138  1
  Se  Se175  1  0.59356255  0.07306544  0.43111469  1
  Se  Se176  1  0.58224209  0.09296330  0.95335319  1
  Se  Se177  1  0.58451595  0.41550529  0.45082140  1
  Se  Se178  1  0.59727805  0.41218173  0.94054013  1
  Se  Se179  1  0.60110488  0.73852854  0.43620139  1
  Se  Se180  1  0.58702980  0.74331882  0.94364191  1
  Se  Se181  1  0.91207331  0.08660581  0.44145240  1
  Se  Se182  1  0.92578647  0.08385106  0.95158947  1
  Se  Se183  1  0.90949529  0.42081213  0.44943513  1
  Se  Se184  1  0.91533970  0.41629443  0.94614648  1
  Se  Se185  1  0.91853734  0.75345622  0.44931011  1
  Se  Se186  1  0.91411998  0.74715823  0.93366429  1
  Se  Se187  1  0.23932648  0.24529752  0.30606589  1
  Se  Se188  1  0.24639443  0.23904516  0.80854262  1
  Se  Se189  1  0.25048984  0.58617342  0.29834413  1
  Se  Se190  1  0.24941073  0.58722379  0.80021977  1
  Se  Se191  1  0.25136393  0.92044168  0.29988793  1
  Se  Se192  1  0.23261358  0.91681499  0.81890796  1
  Se  Se193  1  0.58295609  0.25163799  0.29894720  1
  Se  Se194  1  0.58988696  0.25379957  0.80351644  1
  Se  Se195  1  0.58397244  0.57099017  0.31494286  1
  Se  Se196  1  0.58495878  0.58448520  0.80418281  1
  Se  Se197  1  0.57704599  0.89883513  0.29811542  1
  Se  Se198  1  0.57260391  0.90771189  0.81246374  1
  Se  Se199  1  0.91726648  0.25261319  0.30557181  1
  Se  Se200  1  0.92000175  0.25521727  0.80547898  1
  Se  Se201  1  0.91165679  0.58302222  0.30824811  1
  Se  Se202  1  0.91584655  0.58085722  0.79919150  1
  Se  Se203  1  0.91653633  0.91711434  0.29440905  1
  Se  Se204  1  0.91371341  0.91468333  0.80287487  1
  Se  Se205  1  0.07724699  0.08196135  0.30244066  1
  Se  Se206  1  0.07697890  0.08075729  0.80796588  1
  Se  Se207  1  0.07813433  0.42021702  0.29865418  1
  Se  Se208  1  0.08397595  0.41104894  0.79929009  1
  Se  Se209  1  0.09096448  0.75750264  0.31218956  1
  Se  Se210  1  0.07857827  0.74616236  0.80308544  1
  Se  Se211  1  0.41405312  0.08469621  0.29718314  1
  Se  Se212  1  0.41707802  0.09128136  0.81176282  1
  Se  Se213  1  0.41805060  0.41816045  0.30867921  1
  Se  Se214  1  0.42602230  0.42286466  0.81194412  1
  Se  Se215  1  0.41996495  0.74314731  0.30123855  1
  Se  Se216  1  0.40923668  0.74970072  0.80539449  1
  Se  Se217  1  0.75030952  0.08246415  0.30072577  1
  Se  Se218  1  0.75916060  0.09230196  0.81504429  1
  Se  Se219  1  0.75020021  0.41198071  0.30772019  1
  Se  Se220  1  0.75080314  0.41532480  0.80362862  1
  Se  Se221  1  0.76740490  0.74782887  0.30623210  1
  Se  Se222  1  0.74639184  0.74666698  0.80042736  1
  Se  Se223  1  0.25125430  0.08326187  0.19473022  1
  Se  Se224  1  0.24666620  0.08632186  0.69046114  1
  Se  Se225  1  0.23669369  0.41634387  0.18342760  1
  Se  Se226  1  0.24023557  0.42326762  0.68588366  1
  Se  Se227  1  0.24777815  0.74620612  0.19749564  1
  Se  Se228  1  0.25214998  0.75308026  0.70075752  1
  Se  Se229  1  0.58880342  0.08249891  0.19603144  1
  Se  Se230  1  0.58354522  0.08594964  0.69650396  1
  Se  Se231  1  0.57272790  0.42831334  0.20063182  1
  Se  Se232  1  0.58373688  0.41597436  0.69575498  1
  Se  Se233  1  0.58083168  0.75265327  0.18702040  1
  Se  Se234  1  0.58556011  0.75020718  0.70023050  1
  Se  Se235  1  0.91714272  0.08539362  0.19797817  1
  Se  Se236  1  0.91742032  0.07814117  0.70033935  1
  Se  Se237  1  0.91831068  0.41566306  0.19875325  1
  Se  Se238  1  0.91833894  0.41284207  0.69697741  1
  Se  Se239  1  0.90951670  0.75769242  0.18577301  1
  Se  Se240  1  0.91749988  0.74624301  0.69573371  1
  Se  Se241  1  0.07723641  0.25247353  0.19857150  1
  Se  Se242  1  0.08108225  0.24684628  0.69882295  1
  Se  Se243  1  0.08851932  0.57792290  0.18447560  1
  Se  Se244  1  0.07850491  0.58519185  0.69844436  1
  Se  Se245  1  0.08178930  0.91829405  0.19579685  1
  Se  Se246  1  0.08066712  0.91762388  0.70140883  1
  Se  Se247  1  0.41973242  0.24032741  0.18227896  1
  Se  Se248  1  0.42517065  0.24533937  0.69284897  1
  Se  Se249  1  0.41334408  0.58178617  0.20529889  1
  Se  Se250  1  0.41408707  0.58558313  0.69836594  1
  Se  Se251  1  0.42575243  0.90876217  0.20345688  1
  Se  Se252  1  0.42624282  0.91455122  0.68765342  1
  Se  Se253  1  0.74840050  0.25419397  0.19869942  1
  Se  Se254  1  0.74917176  0.25074195  0.70169162  1
  Se  Se255  1  0.75964573  0.57905997  0.19035008  1
  Se  Se256  1  0.74782615  0.58390808  0.69439640  1
  Se  Se257  1  0.75731938  0.91545016  0.20547934  1
  Se  Se258  1  0.75942157  0.91498077  0.68686426  1
