# generated using pymatgen
data_In86Cu29Se144
_symmetry_space_group_name_H-M   'P 1'
_cell_length_a   17.59518815
_cell_length_b   17.58941893
_cell_length_c   23.45238735
_cell_angle_alpha   89.98401485
_cell_angle_beta   89.98738924
_cell_angle_gamma   90.01224593
_symmetry_Int_Tables_number   1
_chemical_formula_structural   In86Cu29Se144
_chemical_formula_sum   'In86 Cu29 Se144'
_cell_volume   7258.25846368
_cell_formula_units_Z   1
loop_
 _symmetry_equiv_pos_site_id
 _symmetry_equiv_pos_as_xyz
  1  'x, y, z'
loop_
 _atom_site_type_symbol
 _atom_site_label
 _atom_site_symmetry_multiplicity
 _atom_site_fract_x
 _atom_site_fract_y
 _atom_site_fract_z
 _atom_site_occupancy
  In  In0  1  0.00115191  0.15542792  0.12364945  1
  In  In1  1  -0.00032976  0.16552832  0.62551759  1
  In  In2  1  -0.00763375  0.51562127  0.11667655  1
  In  In3  1  -0.00949267  0.49279150  0.62216654  1
  In  In4  1  0.01392559  0.83663788  0.12255835  1
  In  In5  1  0.00848506  0.84530172  0.62249938  1
  In  In6  1  0.31741774  0.17397973  0.11916249  1
  In  In7  1  0.33164810  0.18683848  0.62819888  1
  In  In8  1  0.34921978  0.50105767  0.12407042  1
  In  In9  1  0.33258833  0.50133198  0.62353040  1
  In  In10  1  0.33141522  0.82971790  0.12444712  1
  In  In11  1  0.33178611  0.83157404  0.61930085  1
  In  In12  1  0.68396260  0.16952288  0.13067375  1
  In  In13  1  0.66995371  0.14312732  0.61881676  1
  In  In14  1  0.66390169  0.50572072  0.13151284  1
  In  In15  1  0.66673273  0.50639638  0.61621874  1
  In  In16  1  0.64888861  0.83072659  0.12629989  1
  In  In17  1  0.66896499  0.84913517  0.60570759  1
  In  In18  1  0.16650373  0.00137510  0.38585448  1
  In  In19  1  0.15407824  0.00179235  0.88205762  1
  In  In20  1  0.16987524  0.32968120  0.38244324  1
  In  In21  1  0.15375517  0.32378145  0.86402005  1
  In  In22  1  0.17258235  0.66314172  0.38053560  1
  In  In23  1  0.18220981  0.66162694  0.87252788  1
  In  In24  1  0.50200200  -0.02447593  0.39497260  1
  In  In25  1  0.49598116  -0.02529670  0.86768190  1
  In  In26  1  0.51737273  0.33166124  0.37390635  1
  In  In27  1  0.50115047  0.34911097  0.87300867  1
  In  In28  1  0.49523921  0.66965828  0.37107859  1
  In  In29  1  0.48588781  0.67604160  0.88290188  1
  In  In30  1  0.84069754  -0.01520100  0.38815949  1
  In  In31  1  0.84072708  0.00293145  0.86389914  1
  In  In32  1  0.82620470  0.34450983  0.38473167  1
  In  In33  1  0.84921599  0.32754197  0.87736411  1
  In  In34  1  0.82388543  0.67630228  0.38174554  1
  In  In35  1  0.81932510  0.66311154  0.87925047  1
  In  In36  1  0.01105430  0.15435755  0.38164107  1
  In  In37  1  0.00636066  0.17003699  0.86929135  1
  In  In38  1  0.00200411  0.49871064  0.38545603  1
  In  In39  1  0.00176266  0.48386114  0.87915791  1
  In  In40  1  -0.00792173  0.84038033  0.37993268  1
  In  In41  1  0.00122745  0.84758315  0.87338734  1
  In  In42  1  0.33073041  0.15056809  0.38467853  1
  In  In43  1  0.31421244  0.16188490  0.86964745  1
  In  In44  1  0.32427495  0.50914925  0.38018254  1
  In  In45  1  0.33752532  0.51151237  0.86702957  1
  In  In46  1  0.34820231  0.81784538  0.39546776  1
  In  In47  1  0.34023316  0.81908799  0.87791805  1
  In  In48  1  0.66805726  0.18118541  0.37482683  1
  In  In49  1  0.68038113  0.15789805  0.87177860  1
  In  In50  1  0.66403300  0.50229377  0.37728438  1
  In  In51  1  0.66015178  0.50041086  0.88354310  1
  In  In52  1  0.67161261  0.82687968  0.37867371  1
  In  In53  1  0.65564708  0.82806932  0.87040381  1
  In  In54  1  0.15927542  -0.00830793  0.11711410  1
  In  In55  1  0.16457301  -0.01327639  0.61364925  1
  In  In56  1  0.17372246  0.32920511  0.11855963  1
  In  In57  1  0.16422095  0.33573574  0.62452168  1
  In  In58  1  0.16252123  0.68457134  0.12483549  1
  In  In59  1  0.17804087  0.67721812  0.61948767  1
  In  In60  1  0.50312068  -0.01027871  0.12068103  1
  In  In61  1  0.50952338  -0.00349861  0.62208535  1
  In  In62  1  0.49734081  0.34756634  0.12600844  1
  In  In63  1  0.48631177  0.33674553  0.62706263  1
  In  In64  1  0.50047738  0.66965743  0.13159995  1
  In  In65  1  0.49592873  0.66569353  0.61856545  1
  In  In66  1  0.84151051  0.00872209  0.12922114  1
  In  In67  1  0.83485123  0.00436607  0.61771031  1
  In  In68  1  0.82257500  0.33582526  0.12892032  1
  In  In69  1  0.84111599  0.34042662  0.62018365  1
  In  In70  1  0.83350748  0.65484176  0.12632072  1
  In  In71  1  0.82705742  0.66705505  0.61517151  1
  In  In72  1  -0.00039879  0.33276809  0.24783681  1
  In  In73  1  0.84046623  0.16937316  -0.00311982  1
  In  In74  1  0.66331383  0.66948498  0.74161322  1
  In  In75  1  0.33816101  -0.00754773  0.25910968  1
  In  In76  1  0.66763953  0.32691528  0.74814509  1
  In  In77  1  0.66945061  -0.00194826  0.26390158  1
  In  In78  1  0.16408686  0.49823201  -0.00478183  1
  In  In79  1  0.84019666  0.83095802  0.00214353  1
  In  In80  1  0.33911500  0.33280012  0.24733551  1
  In  In81  1  0.49757419  0.16309844  0.00042742  1
  In  In82  1  0.00443317  0.66346576  0.74848249  1
  In  In83  1  0.33034961  -0.00098947  0.74592935  1
  In  In84  1  -0.00519884  0.67252727  0.24921978  1
  In  In85  1  0.49889045  0.17198884  0.50262738  1
  Cu  Cu86  1  -0.00033357  0.32888853  0.50293523  1
  Cu  Cu87  1  0.50062343  0.16321280  0.74326329  1
  Cu  Cu88  1  0.32735465  -0.00881845  -0.00629124  1
  Cu  Cu89  1  0.33385680  0.66209214  0.50076460  1
  Cu  Cu90  1  0.16776800  0.15465764  0.25567674  1
  Cu  Cu91  1  0.33009517  0.33263789  -0.00665325  1
  Cu  Cu92  1  0.16978967  0.83693244  0.24945916  1
  Cu  Cu93  1  0.82453500  0.50213989  0.25650101  1
  Cu  Cu94  1  0.17195160  0.50782573  0.25522255  1
  Cu  Cu95  1  0.66540065  -0.00949492  -0.00500509  1
  Cu  Cu96  1  0.84416566  0.16977870  0.25347327  1
  Cu  Cu97  1  0.82942843  0.83746446  0.25704865  1
  Cu  Cu98  1  0.49526465  0.50764556  0.74844251  1
  Cu  Cu99  1  0.16079883  0.16820446  0.74741725  1
  Cu  Cu100  1  0.83555860  0.84110369  0.74056058  1
  Cu  Cu101  1  0.66890514  0.33655386  0.50172621  1
  Cu  Cu102  1  0.33112864  0.34236575  0.50225912  1
  Cu  Cu103  1  0.17380342  0.83581482  0.74494211  1
  Cu  Cu104  1  0.65892261  0.66024346  0.00410059  1
  Cu  Cu105  1  0.17142895  0.49664507  0.74722177  1
  Cu  Cu106  1  0.83588382  0.15912682  0.74528991  1
  Cu  Cu107  1  0.50420455  0.16067143  0.25259412  1
  Cu  Cu108  1  0.00260809  0.66764753  0.50296562  1
  Cu  Cu109  1  0.66013283  0.66610182  0.49593802  1
  Cu  Cu110  1  0.33562891  0.66384747  0.00210110  1
  Cu  Cu111  1  -0.00184059  -0.00098057  0.50277754  1
  Cu  Cu112  1  0.50456009  0.50259200  0.25134752  1
  Cu  Cu113  1  0.83957602  0.48913861  0.75204354  1
  Cu  Cu114  1  0.66467309  0.34306150  0.00647484  1
  Se  Se115  1  0.09664447  0.09584678  0.05529619  1
  Se  Se116  1  0.08226078  0.08227669  0.55540379  1
  Se  Se117  1  0.07500178  0.41209798  0.06024966  1
  Se  Se118  1  0.08088929  0.41703132  0.55443849  1
  Se  Se119  1  0.07103240  0.74125463  0.05197123  1
  Se  Se120  1  0.08438339  0.75356332  0.55579680  1
  Se  Se121  1  0.40286687  0.07275940  0.05896278  1
  Se  Se122  1  0.41064149  0.08744191  0.56600265  1
  Se  Se123  1  0.41297866  0.41193569  0.04954058  1
  Se  Se124  1  0.41995023  0.42197062  0.55258555  1
  Se  Se125  1  0.41718331  0.74695539  0.05802289  1
  Se  Se126  1  0.41649010  0.75094505  0.54945080  1
  Se  Se127  1  0.74421855  0.07409338  0.05378161  1
  Se  Se128  1  0.75017509  0.07656060  0.54347905  1
  Se  Se129  1  0.74831609  0.42341366  0.06064713  1
  Se  Se130  1  0.75319830  0.42065341  0.55373575  1
  Se  Se131  1  0.74144715  0.74552922  0.06016834  1
  Se  Se132  1  0.74709484  0.74973161  0.54690479  1
  Se  Se133  1  0.24380745  0.24885335  0.04189938  1
  Se  Se134  1  0.24895191  0.25558081  0.55275763  1
  Se  Se135  1  0.25187793  0.58485234  0.06150321  1
  Se  Se136  1  0.24776814  0.58077529  0.55333259  1
  Se  Se137  1  0.24883346  0.90961247  0.05417873  1
  Se  Se138  1  0.26654900  0.92556494  0.54858440  1
  Se  Se139  1  0.59041253  0.25116627  0.06261371  1
  Se  Se140  1  0.59074532  0.25856177  0.56621829  1
  Se  Se141  1  0.57650744  0.58073260  0.06097338  1
  Se  Se142  1  0.57809525  0.58203611  0.54956890  1
  Se  Se143  1  0.57996282  0.91025215  0.04775360  1
  Se  Se144  1  0.56973744  0.91796889  0.54136134  1
  Se  Se145  1  0.92065417  0.25830835  0.06440753  1
  Se  Se146  1  0.91478661  0.24595953  0.55506374  1
  Se  Se147  1  0.91398322  0.59476622  0.04726162  1
  Se  Se148  1  0.91638362  0.58319467  0.55336198  1
  Se  Se149  1  0.92586951  0.92978092  0.05750470  1
  Se  Se150  1  0.91501036  0.91119700  0.55268388  1
  Se  Se151  1  0.08389981  0.24851901  0.44783972  1
  Se  Se152  1  0.06864715  0.26327522  0.94065237  1
  Se  Se153  1  0.08579169  0.58449628  0.44905186  1
  Se  Se154  1  0.07777028  0.59141154  0.93609124  1
  Se  Se155  1  0.08125300  0.91363852  0.44966417  1
  Se  Se156  1  0.08646516  0.90703977  0.94985411  1
  Se  Se157  1  0.40952853  0.26167709  0.43855675  1
  Se  Se158  1  0.41181763  0.25063402  0.93466964  1
  Se  Se159  1  0.41868700  0.58339859  0.44387183  1
  Se  Se160  1  0.41543703  0.57772863  0.94744669  1
  Se  Se161  1  0.37988263  0.94371336  0.44986083  1
  Se  Se162  1  0.41716975  0.90955349  0.94679232  1
  Se  Se163  1  0.75063241  0.25035438  0.45044609  1
  Se  Se164  1  0.73918518  0.25975906  0.94393097  1
  Se  Se165  1  0.74912665  0.58243649  0.44685938  1
  Se  Se166  1  0.74571723  0.58035858  0.95144717  1
  Se  Se167  1  0.73651721  0.92112674  0.44780166  1
  Se  Se168  1  0.75263032  0.91797026  0.93593487  1
  Se  Se169  1  0.23206707  0.09898995  0.45363294  1
  Se  Se170  1  0.24702955  0.08164741  0.94631568  1
  Se  Se171  1  0.24512841  0.42174968  0.44741444  1
  Se  Se172  1  0.25233065  0.41213962  0.93082643  1
  Se  Se173  1  0.24424328  0.74817761  0.45399715  1
  Se  Se174  1  0.25114449  0.74518952  0.94798211  1
  Se  Se175  1  0.58700533  0.08466446  0.43983703  1
  Se  Se176  1  0.58615294  0.07505280  0.93706693  1
  Se  Se177  1  0.58294411  0.41705417  0.44857689  1
  Se  Se178  1  0.57615542  0.41875579  0.95215920  1
  Se  Se179  1  0.57756260  0.75051570  0.44330184  1
  Se  Se180  1  0.58522104  0.74755639  0.94613415  1
  Se  Se181  1  0.91655915  0.08347447  0.44871016  1
  Se  Se182  1  0.92643605  0.07474280  0.94006183  1
  Se  Se183  1  0.91766168  0.41737395  0.45217535  1
  Se  Se184  1  0.90718702  0.42127567  0.94831530  1
  Se  Se185  1  0.91766748  0.74900305  0.44750854  1
  Se  Se186  1  0.92165436  0.74413105  0.93438914  1
  Se  Se187  1  0.25076239  0.24024547  0.30891573  1
  Se  Se188  1  0.24857725  0.25127341  0.79723727  1
  Se  Se189  1  0.25499455  0.59246516  0.30412285  1
  Se  Se190  1  0.25348340  0.58681557  0.79446499  1
  Se  Se191  1  0.24670551  0.90618234  0.31859956  1
  Se  Se192  1  0.24682340  0.91306681  0.81366989  1
  Se  Se193  1  0.58764166  0.25099074  0.29749646  1
  Se  Se194  1  0.57709347  0.23991601  0.81180693  1
  Se  Se195  1  0.58497269  0.58574092  0.30681614  1
  Se  Se196  1  0.57874801  0.58281526  0.80942346  1
  Se  Se197  1  0.57184370  0.90536010  0.31053955  1
  Se  Se198  1  0.59523309  0.92037573  0.79927400  1
  Se  Se199  1  0.91777333  0.25065564  0.31795843  1
  Se  Se200  1  0.91420583  0.24489174  0.80064812  1
  Se  Se201  1  0.91278538  0.57904327  0.31327296  1
  Se  Se202  1  0.91022702  0.57903975  0.81081548  1
  Se  Se203  1  0.91610303  0.92043074  0.30541770  1
  Se  Se204  1  0.92218943  0.91777014  0.79603257  1
  Se  Se205  1  0.08485409  0.07251477  0.30763028  1
  Se  Se206  1  0.08506259  0.08031626  0.80318852  1
  Se  Se207  1  0.09117023  0.42251052  0.30912900  1
  Se  Se208  1  0.08058813  0.42019720  0.79892075  1
  Se  Se209  1  0.08731826  0.75644226  0.31096875  1
  Se  Se210  1  0.09319441  0.75589961  0.80738425  1
  Se  Se211  1  0.43266688  0.08284764  0.31748607  1
  Se  Se212  1  0.42228887  0.08701672  0.80998779  1
  Se  Se213  1  0.42272434  0.42118963  0.31188590  1
  Se  Se214  1  0.41581292  0.41905941  0.80060666  1
  Se  Se215  1  0.40934181  0.75749701  0.30838045  1
  Se  Se216  1  0.42580215  0.75454572  0.80267719  1
  Se  Se217  1  0.76372002  0.09087175  0.31565007  1
  Se  Se218  1  0.74902432  0.07722714  0.79611998  1
  Se  Se219  1  0.74547980  0.41443625  0.30823670  1
  Se  Se220  1  0.75072143  0.41843236  0.81207410  1
  Se  Se221  1  0.74766023  0.74809901  0.30320019  1
  Se  Se222  1  0.76016890  0.75713073  0.80154201  1
  Se  Se223  1  0.25133760  0.08111775  0.19316693  1
  Se  Se224  1  0.24151633  0.08940379  0.68610237  1
  Se  Se225  1  0.24400170  0.42428310  0.19103323  1
  Se  Se226  1  0.25405143  0.41388601  0.69273806  1
  Se  Se227  1  0.25053955  0.75077284  0.19785301  1
  Se  Se228  1  0.25687946  0.75122172  0.69512625  1
  Se  Se229  1  0.58392155  0.08301915  0.18979897  1
  Se  Se230  1  0.58534214  0.07889833  0.69569553  1
  Se  Se231  1  0.58397824  0.41458255  0.19884913  1
  Se  Se232  1  0.58120301  0.42673293  0.69212313  1
  Se  Se233  1  0.58830637  0.74520806  0.20108983  1
  Se  Se234  1  0.58353634  0.76061910  0.67906103  1
  Se  Se235  1  0.92417090  0.08359603  0.20171133  1
  Se  Se236  1  0.91973845  0.07619533  0.69244924  1
  Se  Se237  1  0.91173928  0.43180632  0.19389575  1
  Se  Se238  1  0.92211429  0.40811672  0.69861140  1
  Se  Se239  1  0.90673557  0.76368432  0.18845837  1
  Se  Se240  1  0.91318140  0.75106323  0.68663909  1
  Se  Se241  1  0.09684145  0.24282012  0.19439527  1
  Se  Se242  1  0.07990145  0.25305311  0.69350311  1
  Se  Se243  1  0.08816927  0.57929706  0.19227895  1
  Se  Se244  1  0.09171814  0.57697526  0.68502242  1
  Se  Se245  1  0.08545691  0.91923354  0.19732997  1
  Se  Se246  1  0.08940363  0.92103595  0.69613078  1
  Se  Se247  1  0.42496851  0.23569611  0.18752361  1
  Se  Se248  1  0.41664028  0.25532998  0.70331664  1
  Se  Se249  1  0.41600362  0.58272933  0.19985720  1
  Se  Se250  1  0.41493131  0.58818530  0.69153735  1
  Se  Se251  1  0.42692168  0.90731083  0.19460299  1
  Se  Se252  1  0.42353156  0.91037157  0.69079856  1
  Se  Se253  1  0.75518851  0.25176287  0.20486057  1
  Se  Se254  1  0.75504530  0.23987171  0.68485076  1
  Se  Se255  1  0.74766836  0.58856812  0.20105345  1
  Se  Se256  1  0.76096965  0.57229569  0.69290127  1
  Se  Se257  1  0.75248404  0.91604229  0.19051879  1
  Se  Se258  1  0.74995965  0.91681661  0.68427812  1
