# generated using pymatgen
data_In86Cu29Se144
_symmetry_space_group_name_H-M   'P 1'
_cell_length_a   17.58088268
_cell_length_b   17.58034887
_cell_length_c   23.43831617
_cell_angle_alpha   89.95864489
_cell_angle_beta   89.96096299
_cell_angle_gamma   89.99716175
_symmetry_Int_Tables_number   1
_chemical_formula_structural   In86Cu29Se144
_chemical_formula_sum   'In86 Cu29 Se144'
_cell_volume   7244.26550107
_cell_formula_units_Z   1
loop_
 _symmetry_equiv_pos_site_id
 _symmetry_equiv_pos_as_xyz
  1  'x, y, z'
loop_
 _atom_site_type_symbol
 _atom_site_label
 _atom_site_symmetry_multiplicity
 _atom_site_fract_x
 _atom_site_fract_y
 _atom_site_fract_z
 _atom_site_occupancy
  In  In0  1  0.00336949  0.16544043  0.13447652  1
  In  In1  1  -0.00055046  0.16710218  0.61206285  1
  In  In2  1  -0.00355231  0.49096831  0.11986049  1
  In  In3  1  0.01548392  0.50182220  0.62874631  1
  In  In4  1  0.00917071  0.83737767  0.12433080  1
  In  In5  1  -0.00446981  0.83032353  0.62337311  1
  In  In6  1  0.33789756  0.16870699  0.11539255  1
  In  In7  1  0.32964831  0.17155033  0.62642176  1
  In  In8  1  0.34250380  0.51112570  0.10425144  1
  In  In9  1  0.33394050  0.49484637  0.64090155  1
  In  In10  1  0.34357071  0.83529037  0.10826779  1
  In  In11  1  0.32597127  0.84318736  0.63490877  1
  In  In12  1  0.65872946  0.16701532  0.13245375  1
  In  In13  1  0.64948188  0.15288653  0.60867929  1
  In  In14  1  0.66113684  0.48708893  0.13399919  1
  In  In15  1  0.65889308  0.50038546  0.62332807  1
  In  In16  1  0.65388662  0.84199903  0.13051580  1
  In  In17  1  0.67831469  0.84489419  0.61921453  1
  In  In18  1  0.16068016  0.01027712  0.38452928  1
  In  In19  1  0.18372311  -0.01557001  0.88378905  1
  In  In20  1  0.16130032  0.33046967  0.37304920  1
  In  In21  1  0.18029790  0.31845146  0.88463130  1
  In  In22  1  0.17243314  0.66530545  0.37767952  1
  In  In23  1  0.16917073  0.67105397  0.87823095  1
  In  In24  1  0.51276244  0.00625289  0.36884028  1
  In  In25  1  0.49625601  0.00385960  0.87522047  1
  In  In26  1  0.50531721  0.32524346  0.36698124  1
  In  In27  1  0.49263009  0.33902669  0.88065398  1
  In  In28  1  0.49806446  0.65661742  0.37184725  1
  In  In29  1  0.46958298  0.68526477  0.90720926  1
  In  In30  1  0.83094612  -0.00166833  0.37514793  1
  In  In31  1  0.82068684  0.00599798  0.87584416  1
  In  In32  1  0.82210274  0.32045761  0.35864043  1
  In  In33  1  0.83745162  0.34101143  0.87993806  1
  In  In34  1  0.83427167  0.67978993  0.37290183  1
  In  In35  1  0.82654467  0.65660863  0.87804162  1
  In  In36  1  0.00116447  0.15861797  0.37326853  1
  In  In37  1  0.00116023  0.17728700  0.87601235  1
  In  In38  1  0.00878566  0.49093159  0.36295373  1
  In  In39  1  -0.00841698  0.50932261  0.88200821  1
  In  In40  1  -0.00836784  0.84219472  0.38219702  1
  In  In41  1  0.01875166  0.83468918  0.87625697  1
  In  In42  1  0.34416009  0.16537671  0.38809127  1
  In  In43  1  0.33772945  0.16133665  0.87142026  1
  In  In44  1  0.32471061  0.49395150  0.37321833  1
  In  In45  1  0.33398744  0.49978388  0.88043715  1
  In  In46  1  0.32563979  0.82444566  0.38429778  1
  In  In47  1  0.33243309  0.83534361  0.87155699  1
  In  In48  1  0.66335384  0.17195579  0.36807606  1
  In  In49  1  0.65170960  0.15165218  0.87075831  1
  In  In50  1  0.66492115  0.49605770  0.34387444  1
  In  In51  1  0.65983267  0.50725359  0.89021007  1
  In  In52  1  0.67712976  0.84627354  0.36371489  1
  In  In53  1  0.65356501  0.83728707  0.88225893  1
  In  In54  1  0.16216406  -0.00593864  0.12044616  1
  In  In55  1  0.17520171  0.00963074  0.61841801  1
  In  In56  1  0.16186301  0.32909869  0.11850609  1
  In  In57  1  0.17528270  0.32655109  0.62715192  1
  In  In58  1  0.17823995  0.67406939  0.10560915  1
  In  In59  1  0.16171226  0.67245043  0.63694048  1
  In  In60  1  0.51844944  0.01080391  0.10408309  1
  In  In61  1  0.48109821  0.02657697  0.64756841  1
  In  In62  1  0.50792752  0.33072211  0.12404653  1
  In  In63  1  0.49418713  0.32137770  0.62563297  1
  In  In64  1  0.50565700  0.67069406  0.11645804  1
  In  In65  1  0.49486786  0.65864058  0.63338026  1
  In  In66  1  0.82570509  0.00958196  0.13681134  1
  In  In67  1  0.82465797  -0.00156408  0.61819055  1
  In  In68  1  0.83153144  0.35110678  0.14433695  1
  In  In69  1  0.84453031  0.32864736  0.62040467  1
  In  In70  1  0.82827011  0.64208911  0.13042145  1
  In  In71  1  0.83066666  0.68422781  0.62460481  1
  In  In72  1  0.33850103  0.33466191  0.24376279  1
  In  In73  1  0.66256063  0.33063780  0.75445888  1
  In  In74  1  0.83110446  0.83289991  0.00238292  1
  In  In75  1  0.00485230  -0.00189391  0.75029458  1
  In  In76  1  0.00165970  0.66848230  0.24286173  1
  In  In77  1  0.34189551  0.66986917  0.22908630  1
  In  In78  1  0.65996406  0.67221494  0.75897866  1
  In  In79  1  0.00510408  0.33833964  0.74958187  1
  In  In80  1  0.83380101  0.50324835  0.48833047  1
  In  In81  1  0.49977711  0.84004433  0.50328587  1
  In  In82  1  0.33724247  -0.00004499  0.25340156  1
  In  In83  1  0.49763579  0.49288442  0.49806567  1
  In  In84  1  0.16584028  0.49318063  0.49574878  1
  In  In85  1  0.82911189  0.17754132  0.01410579  1
  Cu  Cu86  1  0.16843678  0.50137849  0.75988170  1
  Cu  Cu87  1  0.17452466  0.15831202  0.75289872  1
  Cu  Cu88  1  0.17279115  0.82848153  0.75332137  1
  Cu  Cu89  1  0.33575993  0.00185887  0.50939500  1
  Cu  Cu90  1  -0.00316352  0.32050283  0.49131519  1
  Cu  Cu91  1  -0.00215031  -0.00759712  0.49873761  1
  Cu  Cu92  1  0.66640768  0.00548922  0.49392536  1
  Cu  Cu93  1  0.50178614  0.83117885  0.75970209  1
  Cu  Cu94  1  0.16056622  0.84042848  0.24833299  1
  Cu  Cu95  1  0.33092312  0.32855677  -0.00089031  1
  Cu  Cu96  1  0.17194524  0.50195560  0.23952078  1
  Cu  Cu97  1  0.00320703  0.66791538  0.00309431  1
  Cu  Cu98  1  0.83689950  0.83756365  0.74521135  1
  Cu  Cu99  1  0.00399793  0.34030517  0.00025656  1
  Cu  Cu100  1  0.82454030  0.16420329  0.74418885  1
  Cu  Cu101  1  0.67114320  0.33259441  0.49103634  1
  Cu  Cu102  1  0.49129342  0.50190374  0.76104546  1
  Cu  Cu103  1  0.83207876  0.51205890  0.75538639  1
  Cu  Cu104  1  -0.00505143  0.67087465  0.50415936  1
  Cu  Cu105  1  0.67402763  0.65638982  0.00807271  1
  Cu  Cu106  1  0.16849243  0.16501259  0.25096337  1
  Cu  Cu107  1  -0.00137362  0.01167067  0.00352821  1
  Cu  Cu108  1  0.82806248  0.83396207  0.25017798  1
  Cu  Cu109  1  0.32160310  0.66880100  0.50824087  1
  Cu  Cu110  1  0.66758268  0.67460919  0.49055835  1
  Cu  Cu111  1  0.49802647  0.83198801  0.24288562  1
  Cu  Cu112  1  0.83944155  0.15839299  0.25539140  1
  Cu  Cu113  1  0.67320808  0.32687433  0.00808038  1
  Cu  Cu114  1  0.33421953  0.00157864  -0.00649663  1
  Se  Se115  1  0.08313921  0.09035212  0.05881453  1
  Se  Se116  1  0.08187568  0.07865175  0.54976568  1
  Se  Se117  1  0.09094815  0.42376333  0.05067207  1
  Se  Se118  1  0.07186392  0.40268023  0.55502121  1
  Se  Se119  1  0.08328342  0.76006020  0.04903526  1
  Se  Se120  1  0.08358593  0.74480432  0.55964760  1
  Se  Se121  1  0.41776861  0.08559184  0.04591520  1
  Se  Se122  1  0.41942346  0.08766447  0.55911404  1
  Se  Se123  1  0.41941430  0.40480895  0.05353571  1
  Se  Se124  1  0.40472473  0.41238215  0.56099153  1
  Se  Se125  1  0.40334902  0.72771862  0.04900995  1
  Se  Se126  1  0.41160249  0.74442517  0.56282537  1
  Se  Se127  1  0.74015497  0.07524711  0.05898520  1
  Se  Se128  1  0.75374836  0.08798990  0.54707530  1
  Se  Se129  1  0.75206179  0.41220107  0.06271330  1
  Se  Se130  1  0.74522679  0.41408037  0.55557007  1
  Se  Se131  1  0.74802173  0.74360088  0.06762628  1
  Se  Se132  1  0.74821790  0.75294846  0.54897501  1
  Se  Se133  1  0.24541577  0.24524708  0.05116520  1
  Se  Se134  1  0.23625307  0.23743844  0.55507801  1
  Se  Se135  1  0.25261795  0.58571179  0.03915520  1
  Se  Se136  1  0.24908732  0.57898449  0.56556392  1
  Se  Se137  1  0.25068424  0.92047482  0.05032135  1
  Se  Se138  1  0.25158772  0.91259152  0.55480485  1
  Se  Se139  1  0.58488475  0.24252994  0.05447470  1
  Se  Se140  1  0.58379308  0.26019817  0.55036233  1
  Se  Se141  1  0.58853241  0.57324161  0.05965318  1
  Se  Se142  1  0.58718421  0.59646039  0.55276402  1
  Se  Se143  1  0.56558314  0.89170685  0.05085403  1
  Se  Se144  1  0.58471560  0.93436309  0.56136094  1
  Se  Se145  1  0.92554346  0.26530379  0.06723154  1
  Se  Se146  1  0.90849784  0.24339427  0.54491195  1
  Se  Se147  1  0.91930315  0.58424051  0.05487868  1
  Se  Se148  1  0.91926015  0.58332645  0.56187409  1
  Se  Se149  1  0.91709152  0.93000362  0.06190015  1
  Se  Se150  1  0.91336134  0.91359911  0.55558336  1
  Se  Se151  1  0.08735475  0.24204689  0.44173743  1
  Se  Se152  1  0.08147257  0.24842745  0.95046391  1
  Se  Se153  1  0.06952274  0.58764434  0.44132524  1
  Se  Se154  1  0.08420964  0.58588898  0.94625183  1
  Se  Se155  1  0.08784959  0.91207404  0.44821868  1
  Se  Se156  1  0.07914707  0.92509249  0.95014087  1
  Se  Se157  1  0.42554858  0.26118894  0.44441794  1
  Se  Se158  1  0.41419828  0.24606778  0.94433893  1
  Se  Se159  1  0.39984008  0.58974695  0.44533786  1
  Se  Se160  1  0.44106145  0.55317397  0.94655570  1
  Se  Se161  1  0.41064823  0.92821314  0.43873890  1
  Se  Se162  1  0.41683585  0.91427757  0.94300478  1
  Se  Se163  1  0.75261996  0.24768605  0.43925154  1
  Se  Se164  1  0.74418219  0.25105848  0.93732224  1
  Se  Se165  1  0.73662505  0.58662934  0.43009529  1
  Se  Se166  1  0.75957944  0.57539354  0.95499861  1
  Se  Se167  1  0.74752654  0.91478878  0.44577759  1
  Se  Se168  1  0.73865622  0.92748688  0.94983321  1
  Se  Se169  1  0.25467470  0.08298880  0.45064710  1
  Se  Se170  1  0.24849203  0.08879130  0.94476570  1
  Se  Se171  1  0.26085481  0.39903997  0.44496194  1
  Se  Se172  1  0.24827912  0.41684930  0.94909891  1
  Se  Se173  1  0.23811188  0.74987775  0.45421880  1
  Se  Se174  1  0.23898743  0.76851614  0.94180998  1
  Se  Se175  1  0.58269298  0.09018274  0.44215466  1
  Se  Se176  1  0.57937406  0.08095368  0.94824281  1
  Se  Se177  1  0.59730706  0.42078428  0.43325665  1
  Se  Se178  1  0.58961160  0.40530330  0.94929373  1
  Se  Se179  1  0.58186109  0.75260149  0.43432198  1
  Se  Se180  1  0.59408780  0.73947883  0.95151375  1
  Se  Se181  1  0.91791066  0.07785977  0.44343624  1
  Se  Se182  1  0.91477029  0.08684591  0.94380530  1
  Se  Se183  1  0.92213186  0.40715586  0.43258390  1
  Se  Se184  1  0.91384008  0.42116893  0.95149806  1
  Se  Se185  1  0.91227807  0.75223326  0.44907503  1
  Se  Se186  1  0.92250504  0.74665644  0.94034845  1
  Se  Se187  1  0.25396120  0.24267590  0.30895798  1
  Se  Se188  1  0.25209475  0.24877284  0.80403524  1
  Se  Se189  1  0.24930419  0.58440186  0.29906393  1
  Se  Se190  1  0.25266025  0.58474155  0.81119016  1
  Se  Se191  1  0.24463267  0.91000216  0.31237620  1
  Se  Se192  1  0.25335111  0.92028958  0.79975725  1
  Se  Se193  1  0.60251779  0.26965177  0.29532604  1
  Se  Se194  1  0.56687593  0.24268021  0.80712930  1
  Se  Se195  1  0.57354875  0.58868658  0.29471533  1
  Se  Se196  1  0.57259256  0.58293615  0.81844776  1
  Se  Se197  1  0.57958995  0.91568637  0.29822137  1
  Se  Se198  1  0.58508523  0.91891302  0.80707258  1
  Se  Se199  1  0.92578714  0.24567111  0.30230210  1
  Se  Se200  1  0.90430165  0.24623822  0.80341667  1
  Se  Se201  1  0.91534099  0.58281622  0.30782112  1
  Se  Se202  1  0.91911205  0.59170248  0.80597216  1
  Se  Se203  1  0.91382476  0.91319114  0.30513481  1
  Se  Se204  1  0.91186664  0.91346967  0.81374929  1
  Se  Se205  1  0.08764775  0.07779886  0.30322554  1
  Se  Se206  1  0.09040885  0.08521740  0.81525397  1
  Se  Se207  1  0.09634721  0.41462781  0.29515301  1
  Se  Se208  1  0.08787626  0.41904386  0.81943603  1
  Se  Se209  1  0.08832784  0.75409673  0.30966867  1
  Se  Se210  1  0.08427229  0.74766641  0.80283917  1
  Se  Se211  1  0.42569058  0.09824924  0.30601573  1
  Se  Se212  1  0.40787823  0.07073276  0.80159228  1
  Se  Se213  1  0.42353733  0.42805072  0.30630660  1
  Se  Se214  1  0.40865886  0.41198709  0.80713863  1
  Se  Se215  1  0.41515090  0.75753592  0.30639233  1
  Se  Se216  1  0.42220927  0.74379722  0.81212308  1
  Se  Se217  1  0.74797259  0.08049812  0.30595882  1
  Se  Se218  1  0.74510593  0.08256567  0.80063871  1
  Se  Se219  1  0.77327123  0.42720121  0.29262385  1
  Se  Se220  1  0.75111120  0.42895721  0.81128638  1
  Se  Se221  1  0.74577288  0.74602322  0.29950582  1
  Se  Se222  1  0.75759498  0.76289556  0.81275370  1
  Se  Se223  1  0.24872743  0.08720701  0.18945280  1
  Se  Se224  1  0.25478325  0.07742584  0.69581383  1
  Se  Se225  1  0.25433464  0.42529676  0.17967420  1
  Se  Se226  1  0.24094017  0.41331963  0.70185756  1
  Se  Se227  1  0.24267105  0.76634467  0.18497154  1
  Se  Se228  1  0.25847944  0.74448920  0.70120136  1
  Se  Se229  1  0.58133770  0.06919467  0.19241093  1
  Se  Se230  1  0.59641166  0.08679130  0.69728349  1
  Se  Se231  1  0.59436298  0.38859583  0.20347747  1
  Se  Se232  1  0.57189351  0.42725421  0.69590691  1
  Se  Se233  1  0.58148722  0.74386117  0.19500830  1
  Se  Se234  1  0.58028729  0.76121231  0.68887640  1
  Se  Se235  1  0.92454286  0.07668865  0.20147756  1
  Se  Se236  1  0.91528395  0.08885231  0.68926608  1
  Se  Se237  1  0.93462785  0.42050427  0.20356960  1
  Se  Se238  1  0.90723314  0.42934367  0.69310907  1
  Se  Se239  1  0.90596876  0.75730769  0.18508263  1
  Se  Se240  1  0.91905559  0.74893721  0.69835236  1
  Se  Se241  1  0.09025995  0.25318040  0.19779571  1
  Se  Se242  1  0.08515854  0.23417447  0.69474320  1
  Se  Se243  1  0.09687415  0.58759624  0.18045869  1
  Se  Se244  1  0.08319269  0.58249797  0.70458508  1
  Se  Se245  1  0.07810442  0.92477151  0.19742250  1
  Se  Se246  1  0.09446161  0.90973108  0.68970611  1
  Se  Se247  1  0.42559416  0.23561336  0.19174274  1
  Se  Se248  1  0.41159867  0.25131170  0.69743581  1
  Se  Se249  1  0.43076372  0.56724381  0.18556955  1
  Se  Se250  1  0.41100565  0.58715975  0.70583158  1
  Se  Se251  1  0.41993456  0.91494155  0.18491346  1
  Se  Se252  1  0.42125100  0.91238643  0.70146702  1
  Se  Se253  1  0.76364189  0.23580463  0.19162819  1
  Se  Se254  1  0.75028114  0.24980836  0.68503763  1
  Se  Se255  1  0.74297756  0.57368939  0.20190643  1
  Se  Se256  1  0.74884513  0.58381581  0.69109898  1
  Se  Se257  1  0.74362361  0.91830434  0.19843098  1
  Se  Se258  1  0.75141160  0.92161325  0.69650847  1
