# generated using pymatgen
data_In86Cu29Se144
_symmetry_space_group_name_H-M   'P 1'
_cell_length_a   17.58615267
_cell_length_b   17.58384902
_cell_length_c   23.44278091
_cell_angle_alpha   89.99826592
_cell_angle_beta   89.99222453
_cell_angle_gamma   90.02145941
_symmetry_Int_Tables_number   1
_chemical_formula_structural   In86Cu29Se144
_chemical_formula_sum   'In86 Cu29 Se144'
_cell_volume   7249.26338738
_cell_formula_units_Z   1
loop_
 _symmetry_equiv_pos_site_id
 _symmetry_equiv_pos_as_xyz
  1  'x, y, z'
loop_
 _atom_site_type_symbol
 _atom_site_label
 _atom_site_symmetry_multiplicity
 _atom_site_fract_x
 _atom_site_fract_y
 _atom_site_fract_z
 _atom_site_occupancy
  In  In0  1  0.00444384  0.17159041  0.11628644  1
  In  In1  1  0.00919783  0.18350892  0.61099868  1
  In  In2  1  0.01769918  0.50232625  0.11830896  1
  In  In3  1  0.01691109  0.48260840  0.65079815  1
  In  In4  1  -0.01624091  0.82835898  0.12234688  1
  In  In5  1  -0.01372845  0.83221909  0.62361563  1
  In  In6  1  0.34450831  0.17344653  0.12107461  1
  In  In7  1  0.31904061  0.17528688  0.62817802  1
  In  In8  1  0.32416373  0.50955952  0.12230444  1
  In  In9  1  0.33274399  0.51664747  0.62922377  1
  In  In10  1  0.34212171  0.81199974  0.12777431  1
  In  In11  1  0.34573515  0.82309632  0.63058907  1
  In  In12  1  0.65043674  0.17811321  0.13144990  1
  In  In13  1  0.67898383  0.16381385  0.62184567  1
  In  In14  1  0.66900754  0.49640166  0.13045542  1
  In  In15  1  0.68374305  0.49465078  0.64764189  1
  In  In16  1  0.66213040  0.83100714  0.12782744  1
  In  In17  1  0.66654749  0.82627813  0.61791762  1
  In  In18  1  0.17160868  0.01657071  0.37717318  1
  In  In19  1  0.18363876  -0.00219122  0.87485745  1
  In  In20  1  0.17242637  0.33031194  0.38083014  1
  In  In21  1  0.14702178  0.35304564  0.89373663  1
  In  In22  1  0.16048534  0.65566229  0.36958668  1
  In  In23  1  0.16347419  0.65356484  0.86221574  1
  In  In24  1  0.50399864  -0.02488411  0.37299109  1
  In  In25  1  0.49326192  0.00811249  0.88524497  1
  In  In26  1  0.50153214  0.33831914  0.36425283  1
  In  In27  1  0.50571254  0.32316978  0.87980759  1
  In  In28  1  0.51134483  0.68205448  0.36087787  1
  In  In29  1  0.50430307  0.67552012  0.87691122  1
  In  In30  1  0.82583347  0.00705997  0.37901755  1
  In  In31  1  0.82117619  -0.00283589  0.87864767  1
  In  In32  1  0.83051898  0.33743108  0.37820063  1
  In  In33  1  0.83968955  0.34367092  0.85728925  1
  In  In34  1  0.83981088  0.66567969  0.37500582  1
  In  In35  1  0.83912765  0.66804474  0.86803343  1
  In  In36  1  -0.00068858  0.17416442  0.38602463  1
  In  In37  1  0.00244345  0.18887001  0.87226801  1
  In  In38  1  -0.00382519  0.50766577  0.37989940  1
  In  In39  1  0.00429627  0.50673735  0.86144956  1
  In  In40  1  -0.00250574  0.81458145  0.37686221  1
  In  In41  1  0.00006299  0.81549653  0.87546397  1
  In  In42  1  0.32090360  0.16837525  0.37559320  1
  In  In43  1  0.33463162  0.16389202  0.88115125  1
  In  In44  1  0.33137669  0.49831055  0.36912549  1
  In  In45  1  0.31811559  0.50700845  0.87516337  1
  In  In46  1  0.34883664  0.83049225  0.37458007  1
  In  In47  1  0.33805009  0.83946274  0.87232005  1
  In  In48  1  0.67438800  0.17089965  0.36761679  1
  In  In49  1  0.66187153  0.16850313  0.87592631  1
  In  In50  1  0.66725048  0.49969765  0.36595693  1
  In  In51  1  0.67170301  0.50169683  0.86562879  1
  In  In52  1  0.66717350  0.82972223  0.37401668  1
  In  In53  1  0.66935242  0.82591389  0.88743586  1
  In  In54  1  0.16387286  0.00605282  0.12247621  1
  In  In55  1  0.17024843  0.01493741  0.62892241  1
  In  In56  1  0.17517254  0.35118886  0.10922118  1
  In  In57  1  0.16055412  0.33364259  0.61843298  1
  In  In58  1  0.17731100  0.65114231  0.12908049  1
  In  In59  1  0.17297650  0.65478452  0.63499587  1
  In  In60  1  0.50444982  0.00425896  0.12433968  1
  In  In61  1  0.50765080  -0.01793140  0.62489033  1
  In  In62  1  0.50922980  0.31984261  0.12756343  1
  In  In63  1  0.50204715  0.34826372  0.62811565  1
  In  In64  1  0.49076457  0.67895383  0.13248449  1
  In  In65  1  0.50533763  0.67198367  0.62913969  1
  In  In66  1  0.82982263  -0.01892391  0.12171555  1
  In  In67  1  0.83136348  0.00040955  0.61279442  1
  In  In68  1  0.82697592  0.32519648  0.12297881  1
  In  In69  1  0.84744288  0.32910881  0.63330683  1
  In  In70  1  0.81852087  0.67340630  0.13369944  1
  In  In71  1  0.83105081  0.66721138  0.63305539  1
  In  In72  1  0.49497598  0.16221861  0.49602426  1
  In  In73  1  0.16872250  0.82783033  -0.00166164  1
  In  In74  1  0.84294347  0.49482869  0.50811475  1
  In  In75  1  0.83300098  0.16649864  -0.00283681  1
  In  In76  1  0.00271739  0.00059596  0.74381157  1
  In  In77  1  0.49779217  0.49909473  -0.00447958  1
  In  In78  1  0.33146492  0.33619546  0.75752773  1
  In  In79  1  0.49993067  0.51235905  0.50185040  1
  In  In80  1  0.66325938  0.00161300  0.75333854  1
  In  In81  1  -0.00620020  0.33724357  0.24877829  1
  In  In82  1  -0.00583827  -0.00376900  0.24549854  1
  In  In83  1  0.83562749  0.49991320  -0.00644490  1
  In  In84  1  0.16590857  0.83809796  0.49795830  1
  In  In85  1  0.33565195  -0.00291052  0.25306874  1
  Cu  Cu86  1  0.32220048  0.34011460  0.49713088  1
  Cu  Cu87  1  0.33643778  -0.00245336  0.00199196  1
  Cu  Cu88  1  0.49757134  0.83411198  0.75243457  1
  Cu  Cu89  1  -0.00301759  0.00094311  0.50277357  1
  Cu  Cu90  1  0.66624442  -0.00841175  0.49618400  1
  Cu  Cu91  1  0.16626786  0.82587465  0.25160419  1
  Cu  Cu92  1  0.33816444  0.32782819  0.00002690  1
  Cu  Cu93  1  0.33467048  0.00114947  0.49964107  1
  Cu  Cu94  1  0.83946296  0.17658005  0.74139409  1
  Cu  Cu95  1  0.82363572  0.15912204  0.24695598  1
  Cu  Cu96  1  0.00011001  0.66389609  0.50286836  1
  Cu  Cu97  1  -0.00333640  0.66313787  -0.00455754  1
  Cu  Cu98  1  0.82686928  0.82706256  0.25094447  1
  Cu  Cu99  1  0.67022042  0.66795284  0.50128324  1
  Cu  Cu100  1  0.83133185  0.83331190  0.75188346  1
  Cu  Cu101  1  0.66564514  -0.00191235  0.00370287  1
  Cu  Cu102  1  0.49410113  0.49663941  0.24230644  1
  Cu  Cu103  1  0.50119700  0.16558301  0.25011591  1
  Cu  Cu104  1  0.33453236  0.66803531  0.50324410  1
  Cu  Cu105  1  0.66289009  0.67228860  0.00685829  1
  Cu  Cu106  1  0.16703457  0.17190328  0.75048120  1
  Cu  Cu107  1  0.16678027  0.17834959  0.25115866  1
  Cu  Cu108  1  0.17219589  0.82884494  0.75266341  1
  Cu  Cu109  1  0.50118883  0.50711511  0.75355896  1
  Cu  Cu110  1  0.00283200  0.00152033  0.00125060  1
  Cu  Cu111  1  0.66772549  0.33006404  0.49790792  1
  Cu  Cu112  1  0.16893512  0.49896800  0.24679885  1
  Cu  Cu113  1  0.49681920  0.16473174  0.75854733  1
  Cu  Cu114  1  0.83301060  0.50027565  0.25267501  1
  Se  Se115  1  0.08683150  0.08588858  0.05018182  1
  Se  Se116  1  0.08498548  0.08073334  0.55390766  1
  Se  Se117  1  0.07653963  0.41465303  0.04367400  1
  Se  Se118  1  0.07286005  0.42302911  0.56044636  1
  Se  Se119  1  0.07654615  0.74137926  0.05967580  1
  Se  Se120  1  0.08230856  0.74689986  0.56130326  1
  Se  Se121  1  0.42023230  0.08294731  0.05435574  1
  Se  Se122  1  0.41160259  0.07908813  0.56568056  1
  Se  Se123  1  0.41506324  0.40968565  0.06233509  1
  Se  Se124  1  0.40631210  0.41578217  0.55695288  1
  Se  Se125  1  0.41754091  0.74390691  0.04999517  1
  Se  Se126  1  0.42286823  0.74766794  0.55447841  1
  Se  Se127  1  0.74557312  0.08138755  0.06314293  1
  Se  Se128  1  0.74609253  0.08211086  0.54551284  1
  Se  Se129  1  0.74349815  0.41085563  0.05368951  1
  Se  Se130  1  0.74142496  0.41057946  0.56255256  1
  Se  Se131  1  0.75162530  0.75458243  0.05636393  1
  Se  Se132  1  0.75847547  0.74691904  0.55435687  1
  Se  Se133  1  0.25154719  0.24687764  0.05405914  1
  Se  Se134  1  0.24687330  0.25083685  0.55103037  1
  Se  Se135  1  0.23798915  0.57574882  0.04765655  1
  Se  Se136  1  0.24875926  0.58534190  0.55390271  1
  Se  Se137  1  0.25696780  0.91694201  0.06353519  1
  Se  Se138  1  0.25629161  0.92114098  0.56297397  1
  Se  Se139  1  0.58569717  0.24921563  0.04962765  1
  Se  Se140  1  0.58169708  0.25590709  0.55810664  1
  Se  Se141  1  0.58591765  0.58404786  0.06158992  1
  Se  Se142  1  0.59960021  0.58351091  0.56544949  1
  Se  Se143  1  0.58222607  0.91517415  0.05707555  1
  Se  Se144  1  0.58267933  0.90850375  0.54854290  1
  Se  Se145  1  0.92505484  0.26411550  0.05053242  1
  Se  Se146  1  0.90053063  0.24381603  0.55365658  1
  Se  Se147  1  0.91573879  0.59031416  0.06158038  1
  Se  Se148  1  0.92726525  0.58580018  0.56920602  1
  Se  Se149  1  0.91735661  0.91475200  0.04755027  1
  Se  Se150  1  0.91345256  0.91191223  0.54835306  1
  Se  Se151  1  0.09177759  0.24767814  0.44889752  1
  Se  Se152  1  0.09448057  0.23679732  0.94847485  1
  Se  Se153  1  0.08433608  0.58389627  0.44845631  1
  Se  Se154  1  0.07893958  0.58462484  0.93841805  1
  Se  Se155  1  0.07417215  0.92639619  0.43517435  1
  Se  Se156  1  0.07857580  0.91996122  0.93714190  1
  Se  Se157  1  0.41055207  0.26338996  0.44013733  1
  Se  Se158  1  0.42203979  0.24422027  0.94877911  1
  Se  Se159  1  0.41404395  0.59530560  0.43584018  1
  Se  Se160  1  0.40784664  0.59223574  0.94106252  1
  Se  Se161  1  0.41675973  0.91455983  0.45031250  1
  Se  Se162  1  0.41746231  0.91271400  0.94884084  1
  Se  Se163  1  0.74970804  0.24854895  0.44369230  1
  Se  Se164  1  0.75460076  0.25985532  0.93301731  1
  Se  Se165  1  0.74719667  0.57950410  0.44397117  1
  Se  Se166  1  0.73999131  0.59414415  0.94241328  1
  Se  Se167  1  0.75236691  0.91079928  0.44333553  1
  Se  Se168  1  0.75146910  0.91523886  0.95285306  1
  Se  Se169  1  0.25041484  0.08874815  0.45312580  1
  Se  Se170  1  0.25109183  0.08029867  0.95072105  1
  Se  Se171  1  0.24603255  0.42905632  0.44397727  1
  Se  Se172  1  0.25720091  0.41669596  0.95009718  1
  Se  Se173  1  0.25397807  0.74504081  0.43938658  1
  Se  Se174  1  0.25011262  0.74232482  0.93209028  1
  Se  Se175  1  0.58699926  0.07545658  0.43623451  1
  Se  Se176  1  0.58848734  0.08475346  0.94821686  1
  Se  Se177  1  0.58690497  0.41409410  0.44241457  1
  Se  Se178  1  0.59659374  0.41359808  0.94075651  1
  Se  Se179  1  0.58485585  0.74503299  0.44479950  1
  Se  Se180  1  0.57632861  0.75428695  0.95499134  1
  Se  Se181  1  0.91510052  0.08373373  0.44640785  1
  Se  Se182  1  0.92548220  0.07833096  0.93525403  1
  Se  Se183  1  0.93067938  0.40328926  0.44611539  1
  Se  Se184  1  0.92543876  0.41213086  0.93458550  1
  Se  Se185  1  0.91384362  0.74546282  0.45163116  1
  Se  Se186  1  0.91032963  0.74756992  0.94668740  1
  Se  Se187  1  0.25293492  0.25751707  0.30383052  1
  Se  Se188  1  0.24101671  0.24922416  0.81747186  1
  Se  Se189  1  0.25143508  0.58430579  0.30032751  1
  Se  Se190  1  0.25154876  0.57761353  0.79394501  1
  Se  Se191  1  0.23873082  0.91065256  0.31320150  1
  Se  Se192  1  0.25450644  0.91771206  0.79975970  1
  Se  Se193  1  0.58595756  0.25109434  0.30177392  1
  Se  Se194  1  0.58489710  0.24982400  0.80309013  1
  Se  Se195  1  0.57729183  0.57626215  0.30074291  1
  Se  Se196  1  0.58366017  0.59117603  0.80699659  1
  Se  Se197  1  0.58277767  0.90311389  0.30033216  1
  Se  Se198  1  0.57741185  0.91256550  0.81563958  1
  Se  Se199  1  0.90834228  0.23828480  0.30624220  1
  Se  Se200  1  0.92639040  0.25728170  0.79300760  1
  Se  Se201  1  0.91943400  0.58170340  0.30421403  1
  Se  Se202  1  0.89821040  0.56871671  0.80113307  1
  Se  Se203  1  0.91090989  0.90741215  0.31063179  1
  Se  Se204  1  0.91271893  0.91546438  0.80985972  1
  Se  Se205  1  0.08241587  0.09350589  0.30418496  1
  Se  Se206  1  0.08874766  0.08646191  0.80995640  1
  Se  Se207  1  0.08722622  0.42194573  0.30977470  1
  Se  Se208  1  0.08964495  0.41270411  0.80426750  1
  Se  Se209  1  0.07971707  0.74418659  0.30278670  1
  Se  Se210  1  0.08191318  0.74818036  0.80020895  1
  Se  Se211  1  0.42447297  0.08784093  0.31586690  1
  Se  Se212  1  0.41362628  0.08105670  0.80885805  1
  Se  Se213  1  0.41172151  0.41529143  0.29900926  1
  Se  Se214  1  0.42606302  0.42488232  0.81649205  1
  Se  Se215  1  0.41058419  0.74866516  0.29765651  1
  Se  Se216  1  0.41591541  0.74914208  0.80538995  1
  Se  Se217  1  0.74457204  0.07393512  0.30099011  1
  Se  Se218  1  0.76225986  0.09574439  0.80412357  1
  Se  Se219  1  0.75215424  0.41144582  0.30304639  1
  Se  Se220  1  0.74046863  0.41216745  0.79584007  1
  Se  Se221  1  0.74994858  0.74093480  0.30747907  1
  Se  Se222  1  0.74727341  0.75654806  0.80929636  1
  Se  Se223  1  0.24517062  0.09091668  0.19451803  1
  Se  Se224  1  0.25423247  0.08695469  0.70287884  1
  Se  Se225  1  0.24971995  0.41610219  0.19106452  1
  Se  Se226  1  0.24866896  0.41894252  0.68847340  1
  Se  Se227  1  0.24908464  0.74486229  0.19696974  1
  Se  Se228  1  0.25570467  0.74669471  0.69689190  1
  Se  Se229  1  0.58417791  0.08039449  0.19897193  1
  Se  Se230  1  0.57491992  0.09102976  0.68999154  1
  Se  Se231  1  0.58301896  0.41214474  0.19550117  1
  Se  Se232  1  0.58144964  0.41693924  0.70384578  1
  Se  Se233  1  0.59756805  0.73337661  0.19517742  1
  Se  Se234  1  0.58618816  0.75942217  0.69656452  1
  Se  Se235  1  0.90929534  0.09011978  0.18345464  1
  Se  Se236  1  0.91370239  0.08886808  0.68268530  1
  Se  Se237  1  0.90914712  0.42688270  0.18416534  1
  Se  Se238  1  0.89082664  0.44037864  0.69740900  1
  Se  Se239  1  0.91580576  0.74718832  0.19900292  1
  Se  Se240  1  0.91799470  0.75210146  0.70025465  1
  Se  Se241  1  0.08817606  0.25348907  0.18754688  1
  Se  Se242  1  0.08515550  0.24972121  0.69226915  1
  Se  Se243  1  0.08120657  0.58260857  0.19781391  1
  Se  Se244  1  0.07370375  0.59730764  0.70323474  1
  Se  Se245  1  0.08988022  0.90574976  0.18886349  1
  Se  Se246  1  0.09439736  0.90633509  0.68727744  1
  Se  Se247  1  0.41666038  0.24948557  0.19874174  1
  Se  Se248  1  0.42355238  0.24767400  0.69326114  1
  Se  Se249  1  0.41097079  0.58340233  0.19312732  1
  Se  Se250  1  0.42133062  0.58917721  0.69750137  1
  Se  Se251  1  0.42272778  0.90959595  0.19152769  1
  Se  Se252  1  0.41726129  0.91919707  0.69795696  1
  Se  Se253  1  0.74711544  0.25182734  0.19698828  1
  Se  Se254  1  0.74503104  0.25306060  0.69316238  1
  Se  Se255  1  0.74559900  0.58164720  0.20107063  1
  Se  Se256  1  0.73227962  0.60923594  0.70303031  1
  Se  Se257  1  0.74820237  0.91437190  0.19775854  1
  Se  Se258  1  0.75530620  0.91639450  0.69088595  1
