# generated using pymatgen
data_In86Cu29Se144
_symmetry_space_group_name_H-M   'P 1'
_cell_length_a   17.57344120
_cell_length_b   17.57004137
_cell_length_c   23.42188165
_cell_angle_alpha   90.00912879
_cell_angle_beta   90.00856074
_cell_angle_gamma   90.01466546
_symmetry_Int_Tables_number   1
_chemical_formula_structural   In86Cu29Se144
_chemical_formula_sum   'In86 Cu29 Se144'
_cell_volume   7231.88238374
_cell_formula_units_Z   1
loop_
 _symmetry_equiv_pos_site_id
 _symmetry_equiv_pos_as_xyz
  1  'x, y, z'
loop_
 _atom_site_type_symbol
 _atom_site_label
 _atom_site_symmetry_multiplicity
 _atom_site_fract_x
 _atom_site_fract_y
 _atom_site_fract_z
 _atom_site_occupancy
  In  In0  1  -0.00402339  0.17726341  0.12665917  1
  In  In1  1  0.00512979  0.15788380  0.62725058  1
  In  In2  1  0.00248560  0.50517094  0.12374101  1
  In  In3  1  -0.01270786  0.51089818  0.66016065  1
  In  In4  1  -0.01665674  0.82290060  0.11603460  1
  In  In5  1  -0.00542690  0.84371643  0.63491045  1
  In  In6  1  0.32460777  0.16012177  0.12975166  1
  In  In7  1  0.33140255  0.16666392  0.61806678  1
  In  In8  1  0.34193100  0.51938435  0.10652546  1
  In  In9  1  0.33622068  0.50740227  0.63459086  1
  In  In10  1  0.33991326  0.83390046  0.11510866  1
  In  In11  1  0.33798023  0.82059154  0.62918556  1
  In  In12  1  0.66807728  0.15155946  0.12414008  1
  In  In13  1  0.65291070  0.15879506  0.62184069  1
  In  In14  1  0.68805143  0.53590051  0.09314128  1
  In  In15  1  0.67442323  0.51218723  0.63723302  1
  In  In16  1  0.67300608  0.82667508  0.11671146  1
  In  In17  1  0.67016703  0.83164687  0.62941377  1
  In  In18  1  0.18137729  -0.00770846  0.37499520  1
  In  In19  1  0.15643003  -0.00396855  0.87183234  1
  In  In20  1  0.14963789  0.33232881  0.37204735  1
  In  In21  1  0.15874346  0.37093925  0.87298968  1
  In  In22  1  0.16276438  0.67216710  0.36751596  1
  In  In23  1  0.16203888  0.66545754  0.87135137  1
  In  In24  1  0.50336214  -0.00916095  0.37673121  1
  In  In25  1  0.51004085  -0.02287483  0.88358760  1
  In  In26  1  0.48298153  0.33488366  0.37345355  1
  In  In27  1  0.50939476  0.34326712  0.87126936  1
  In  In28  1  0.51577872  0.67002854  0.37102164  1
  In  In29  1  0.51196767  0.67072080  0.88070022  1
  In  In30  1  0.81871785  0.00135349  0.37130084  1
  In  In31  1  0.83182792  -0.00486884  0.87801491  1
  In  In32  1  0.84835737  0.32522023  0.36666246  1
  In  In33  1  0.84235322  0.32900894  0.87758831  1
  In  In34  1  0.84261984  0.67483847  0.36973707  1
  In  In35  1  0.83334822  0.66680305  0.87990505  1
  In  In36  1  -0.00444202  0.17879886  0.37370633  1
  In  In37  1  -0.00814071  0.15712981  0.86648738  1
  In  In38  1  0.00596248  0.49807334  0.35825382  1
  In  In39  1  -0.00382794  0.50086338  0.86726918  1
  In  In40  1  -0.00027409  0.82120387  0.37522299  1
  In  In41  1  0.00190854  0.83457740  0.87645936  1
  In  In42  1  0.34482716  0.15541580  0.38187605  1
  In  In43  1  0.32823781  0.16211601  0.86960152  1
  In  In44  1  0.33647938  0.50671913  0.36837388  1
  In  In45  1  0.31019948  0.55636445  0.91923059  1
  In  In46  1  0.33091144  0.84444871  0.37312451  1
  In  In47  1  0.35460209  0.79669869  0.90300346  1
  In  In48  1  0.66837048  0.14632416  0.37331857  1
  In  In49  1  0.68287949  0.16107164  0.87880684  1
  In  In50  1  0.66049461  0.51336318  0.36661268  1
  In  In51  1  0.65516142  0.51740555  0.89372008  1
  In  In52  1  0.66622168  0.82951802  0.37420252  1
  In  In53  1  0.67108832  0.82945172  0.88713166  1
  In  In54  1  0.17711185  0.00149154  0.13080765  1
  In  In55  1  0.15225627  0.00753175  0.62383615  1
  In  In56  1  0.15443819  0.34412810  0.12800672  1
  In  In57  1  0.16576363  0.32922220  0.62340343  1
  In  In58  1  0.15402373  0.65092563  0.10655498  1
  In  In59  1  0.16062242  0.66702490  0.64526384  1
  In  In60  1  0.51884746  -0.02422393  0.13592268  1
  In  In61  1  0.50559209  0.00073454  0.62255516  1
  In  In62  1  0.49852940  0.34397957  0.12762210  1
  In  In63  1  0.50604470  0.32505276  0.62639482  1
  In  In64  1  0.52638199  0.70708390  0.08012289  1
  In  In65  1  0.49848367  0.67629149  0.63437137  1
  In  In66  1  0.80316545  -0.02103330  0.09728728  1
  In  In67  1  0.84920353  -0.01897745  0.63226160  1
  In  In68  1  0.84431702  0.34475172  0.11334534  1
  In  In69  1  0.83880054  0.34207234  0.63087527  1
  In  In70  1  0.83645990  0.66957195  0.12124437  1
  In  In71  1  0.82390539  0.67582695  0.64367790  1
  In  In72  1  0.83052206  0.15853360  0.49768568  1
  In  In73  1  0.83311577  0.50202171  0.51241157  1
  In  In74  1  0.16414575  0.49593551  0.50133408  1
  In  In75  1  0.50064233  0.16909858  0.00006552  1
  In  In76  1  0.32883140  0.66707497  0.23755674  1
  In  In77  1  0.15807153  0.17210868  0.00263324  1
  In  In78  1  -0.00696231  0.00493209  0.24689797  1
  In  In79  1  0.67352664  0.34002958  0.75217796  1
  In  In80  1  0.66698600  0.33773278  0.24821430  1
  In  In81  1  0.50054589  0.49143585  0.50954913  1
  In  In82  1  0.32774758  0.33517715  0.24007135  1
  In  In83  1  0.32822851  -0.01122053  0.75088473  1
  In  In84  1  0.16824539  0.83690795  0.50362839  1
  In  In85  1  0.33013068  0.34357481  0.75393632  1
  Cu  Cu86  1  0.51281472  0.82360889  0.76049199  1
  Cu  Cu87  1  -0.00054839  0.66542635  -0.00575575  1
  Cu  Cu88  1  -0.00433945  0.00029722  -0.00454174  1
  Cu  Cu89  1  -0.00393037  0.66907149  0.50353698  1
  Cu  Cu90  1  0.33365587  0.00004659  0.00566109  1
  Cu  Cu91  1  0.67367578  0.33197573  -0.00296179  1
  Cu  Cu92  1  0.49435186  0.51014371  0.76201046  1
  Cu  Cu93  1  0.15592643  0.17378429  0.74850487  1
  Cu  Cu94  1  0.15971969  0.82729765  0.24508658  1
  Cu  Cu95  1  0.33854412  0.66547935  0.50547279  1
  Cu  Cu96  1  0.33166441  0.33732166  -0.00415594  1
  Cu  Cu97  1  0.83390542  0.16573903  0.24382136  1
  Cu  Cu98  1  0.83430577  0.50648290  0.23664098  1
  Cu  Cu99  1  0.17256177  0.16465758  0.25283963  1
  Cu  Cu100  1  0.50274023  0.15535271  0.75029399  1
  Cu  Cu101  1  0.66438603  -0.00948623  0.49986078  1
  Cu  Cu102  1  0.82325816  0.83003446  0.24436711  1
  Cu  Cu103  1  0.00016283  0.33718438  0.50034071  1
  Cu  Cu104  1  0.82891930  0.15876303  0.75074307  1
  Cu  Cu105  1  0.34033626  -0.00032714  0.49923516  1
  Cu  Cu106  1  0.00309346  0.33965397  -0.00452450  1
  Cu  Cu107  1  0.83422691  0.83379094  0.75904806  1
  Cu  Cu108  1  0.17430049  0.83469401  0.75737805  1
  Cu  Cu109  1  0.50996730  0.51303746  0.23521911  1
  Cu  Cu110  1  0.67314928  0.67517841  0.50199633  1
  Cu  Cu111  1  0.66047123  0.32497141  0.49860165  1
  Cu  Cu112  1  0.50220105  0.82842376  0.24229902  1
  Cu  Cu113  1  0.32524154  0.32041302  0.49788843  1
  Cu  Cu114  1  0.50246685  0.15481723  0.25590137  1
  Se  Se115  1  0.07460000  0.07473923  0.06230661  1
  Se  Se116  1  0.07993609  0.08605664  0.54954105  1
  Se  Se117  1  0.08427589  0.42152087  0.05117037  1
  Se  Se118  1  0.06870793  0.42100878  0.56569670  1
  Se  Se119  1  0.07850477  0.75263355  0.04883847  1
  Se  Se120  1  0.08334212  0.74261277  0.56445489  1
  Se  Se121  1  0.41630808  0.07891633  0.06469895  1
  Se  Se122  1  0.42049813  0.08383240  0.55550525  1
  Se  Se123  1  0.41767775  0.41357195  0.05235083  1
  Se  Se124  1  0.39986025  0.40207992  0.56375544  1
  Se  Se125  1  0.39352757  0.73844835  0.04084515  1
  Se  Se126  1  0.42338646  0.74996382  0.55528538  1
  Se  Se127  1  0.75612205  0.09969920  0.04642704  1
  Se  Se128  1  0.74612247  0.06957852  0.56173625  1
  Se  Se129  1  0.75648749  0.42169735  0.04496222  1
  Se  Se130  1  0.73254086  0.40713024  0.56231407  1
  Se  Se131  1  0.73861063  0.72662492  0.04734014  1
  Se  Se132  1  0.75770032  0.74937551  0.56095421  1
  Se  Se133  1  0.25570109  0.25954993  0.06097514  1
  Se  Se134  1  0.23875090  0.24244548  0.55215152  1
  Se  Se135  1  0.25012801  0.58649172  0.03639817  1
  Se  Se136  1  0.25131270  0.59096376  0.56269845  1
  Se  Se137  1  0.24532109  0.91904283  0.05571476  1
  Se  Se138  1  0.26073771  0.92460707  0.56603813  1
  Se  Se139  1  0.59090398  0.25895832  0.06171856  1
  Se  Se140  1  0.57539577  0.24289030  0.55033292  1
  Se  Se141  1  0.55722852  0.56778507  0.04841333  1
  Se  Se142  1  0.59259724  0.58876657  0.56047287  1
  Se  Se143  1  0.58376045  0.91226742  0.05184324  1
  Se  Se144  1  0.58385439  0.90905189  0.55780682  1
  Se  Se145  1  0.92318290  0.25179743  0.04856159  1
  Se  Se146  1  0.91423347  0.25704642  0.55699027  1
  Se  Se147  1  0.91907162  0.58444619  0.05314254  1
  Se  Se148  1  0.92454913  0.59016676  0.57180611  1
  Se  Se149  1  0.91260326  0.91163752  0.04408683  1
  Se  Se150  1  0.92798350  0.91648025  0.55394013  1
  Se  Se151  1  0.08083753  0.25019595  0.44817950  1
  Se  Se152  1  0.07969398  0.25739623  0.93228613  1
  Se  Se153  1  0.07452734  0.59028902  0.44037540  1
  Se  Se154  1  0.07887542  0.57978042  0.93984629  1
  Se  Se155  1  0.07855015  0.92005308  0.43901351  1
  Se  Se156  1  0.08509537  0.91808570  0.94816932  1
  Se  Se157  1  0.42114307  0.24744149  0.44884692  1
  Se  Se158  1  0.40860990  0.25582020  0.93610440  1
  Se  Se159  1  0.41843739  0.58585146  0.44362009  1
  Se  Se160  1  0.45180080  0.56653771  0.94918408  1
  Se  Se161  1  0.41731836  0.91039146  0.44710412  1
  Se  Se162  1  0.41519426  0.91504345  0.95306162  1
  Se  Se163  1  0.74547394  0.25519016  0.43500024  1
  Se  Se164  1  0.75721102  0.24833063  0.94731060  1
  Se  Se165  1  0.74710684  0.58711122  0.44263021  1
  Se  Se166  1  0.73869724  0.60801221  0.95695695  1
  Se  Se167  1  0.74994130  0.91356803  0.44352177  1
  Se  Se168  1  0.75113113  0.92038423  0.95196782  1
  Se  Se169  1  0.25151452  0.07918562  0.44756955  1
  Se  Se170  1  0.25324628  0.07973716  0.94510391  1
  Se  Se171  1  0.25813424  0.41073592  0.43625660  1
  Se  Se172  1  0.24747346  0.42424284  0.95003105  1
  Se  Se173  1  0.25614552  0.74089069  0.44195574  1
  Se  Se174  1  0.23000185  0.75307721  0.94759377  1
  Se  Se175  1  0.58346766  0.07802276  0.44709639  1
  Se  Se176  1  0.59110679  0.07710543  0.94493874  1
  Se  Se177  1  0.58902384  0.41192662  0.43632949  1
  Se  Se178  1  0.58218800  0.41205509  0.95139271  1
  Se  Se179  1  0.58314755  0.75075704  0.44796525  1
  Se  Se180  1  0.57195996  0.76382697  0.95559244  1
  Se  Se181  1  0.92205182  0.07495695  0.43482801  1
  Se  Se182  1  0.91490122  0.08673962  0.94415435  1
  Se  Se183  1  0.92023970  0.41883443  0.44004655  1
  Se  Se184  1  0.91644652  0.42230366  0.94383628  1
  Se  Se185  1  0.91357783  0.75124337  0.44935480  1
  Se  Se186  1  0.91686884  0.75449024  0.94575779  1
  Se  Se187  1  0.25329409  0.24644532  0.31249589  1
  Se  Se188  1  0.23582027  0.25078878  0.81176584  1
  Se  Se189  1  0.23998466  0.57490367  0.30144561  1
  Se  Se190  1  0.26027076  0.58007308  0.81768694  1
  Se  Se191  1  0.24501077  0.90902948  0.29713539  1
  Se  Se192  1  0.25596937  0.90317987  0.82351888  1
  Se  Se193  1  0.57668312  0.24658611  0.31125727  1
  Se  Se194  1  0.58249563  0.24116769  0.80801838  1
  Se  Se195  1  0.58951025  0.59586989  0.29245570  1
  Se  Se196  1  0.59015116  0.58642166  0.80821011  1
  Se  Se197  1  0.58136274  0.90908917  0.30357610  1
  Se  Se198  1  0.59457826  0.91202213  0.80875723  1
  Se  Se199  1  0.92339242  0.24791992  0.29135639  1
  Se  Se200  1  0.91126673  0.24645823  0.80064589  1
  Se  Se201  1  0.91455433  0.58352280  0.30015772  1
  Se  Se202  1  0.91551534  0.59436697  0.80553581  1
  Se  Se203  1  0.90728034  0.90791978  0.30654556  1
  Se  Se204  1  0.91992992  0.92034859  0.80756651  1
  Se  Se205  1  0.08892402  0.08557624  0.31165898  1
  Se  Se206  1  0.08258232  0.07997795  0.79955291  1
  Se  Se207  1  0.08851468  0.41273804  0.29395096  1
  Se  Se208  1  0.06563778  0.40827530  0.79521777  1
  Se  Se209  1  0.07524014  0.74625841  0.29789854  1
  Se  Se210  1  0.08268193  0.75433061  0.80395752  1
  Se  Se211  1  0.41701405  0.07342951  0.30783927  1
  Se  Se212  1  0.42468402  0.07626328  0.81229042  1
  Se  Se213  1  0.42790385  0.43178931  0.29444119  1
  Se  Se214  1  0.41226207  0.43116058  0.81919637  1
  Se  Se215  1  0.41809778  0.75303742  0.30671561  1
  Se  Se216  1  0.42097957  0.74658055  0.81145758  1
  Se  Se217  1  0.74920373  0.08256818  0.29448920  1
  Se  Se218  1  0.74818430  0.07551096  0.80429318  1
  Se  Se219  1  0.76277755  0.42761485  0.30784689  1
  Se  Se220  1  0.74229640  0.42319764  0.82682384  1
  Se  Se221  1  0.74667049  0.74591612  0.30355628  1
  Se  Se222  1  0.74913336  0.75192007  0.81160048  1
  Se  Se223  1  0.25671695  0.07717481  0.20562622  1
  Se  Se224  1  0.24592651  0.09346947  0.69506573  1
  Se  Se225  1  0.25356004  0.43555623  0.18099489  1
  Se  Se226  1  0.23583167  0.42752550  0.69307674  1
  Se  Se227  1  0.23727609  0.75436957  0.17887896  1
  Se  Se228  1  0.25631815  0.74995594  0.70340982  1
  Se  Se229  1  0.58704435  0.07821651  0.19855825  1
  Se  Se230  1  0.58747610  0.07409127  0.69832705  1
  Se  Se231  1  0.59629906  0.43242775  0.18025127  1
  Se  Se232  1  0.56943542  0.42764004  0.69607177  1
  Se  Se233  1  0.57703962  0.74730623  0.18067587  1
  Se  Se234  1  0.59454546  0.74360557  0.70129201  1
  Se  Se235  1  0.90301736  0.08107974  0.17878265  1
  Se  Se236  1  0.91787465  0.08160853  0.69596800  1
  Se  Se237  1  0.91887167  0.41721130  0.19174162  1
  Se  Se238  1  0.89476962  0.42061627  0.71143945  1
  Se  Se239  1  0.91360867  0.74934984  0.19630653  1
  Se  Se240  1  0.92126287  0.75393301  0.70393230  1
  Se  Se241  1  0.09187587  0.24414328  0.19518173  1
  Se  Se242  1  0.07557299  0.25573243  0.69243185  1
  Se  Se243  1  0.08819081  0.58668171  0.19115725  1
  Se  Se244  1  0.08978588  0.58145109  0.71562341  1
  Se  Se245  1  0.07884802  0.91076396  0.18623759  1
  Se  Se246  1  0.09399676  0.91648937  0.69863187  1
  Se  Se247  1  0.42826484  0.23820322  0.19303054  1
  Se  Se248  1  0.41962434  0.24063117  0.69705674  1
  Se  Se249  1  0.43071754  0.59538912  0.17734475  1
  Se  Se250  1  0.41521276  0.59135289  0.70184040  1
  Se  Se251  1  0.41119101  0.91062246  0.19461904  1
  Se  Se252  1  0.43099144  0.90374301  0.69736161  1
  Se  Se253  1  0.75591967  0.25188662  0.18458830  1
  Se  Se254  1  0.75081342  0.24018784  0.68776763  1
  Se  Se255  1  0.74601966  0.58646678  0.18746166  1
  Se  Se256  1  0.76464784  0.57215793  0.70897233  1
  Se  Se257  1  0.74720225  0.91575710  0.18811342  1
  Se  Se258  1  0.75288085  0.91417253  0.69953410  1
