# generated using pymatgen
data_In86Cu29Se144
_symmetry_space_group_name_H-M   'P 1'
_cell_length_a   17.52728323
_cell_length_b   17.52864324
_cell_length_c   23.38224510
_cell_angle_alpha   90.02139859
_cell_angle_beta   89.98624070
_cell_angle_gamma   89.99825110
_symmetry_Int_Tables_number   1
_chemical_formula_structural   In86Cu29Se144
_chemical_formula_sum   'In86 Cu29 Se144'
_cell_volume   7183.71463417
_cell_formula_units_Z   1
loop_
 _symmetry_equiv_pos_site_id
 _symmetry_equiv_pos_as_xyz
  1  'x, y, z'
loop_
 _atom_site_type_symbol
 _atom_site_label
 _atom_site_symmetry_multiplicity
 _atom_site_fract_x
 _atom_site_fract_y
 _atom_site_fract_z
 _atom_site_occupancy
  In  In0  1  0.00834195  0.16019452  0.13194240  1
  In  In1  1  0.00543984  0.17067422  0.61385525  1
  In  In2  1  0.00685187  0.49022448  0.13308112  1
  In  In3  1  -0.00864770  0.51135164  0.62352043  1
  In  In4  1  0.00705311  0.84291415  0.11126303  1
  In  In5  1  -0.01219238  0.82817513  0.62177046  1
  In  In6  1  0.32790131  0.18151106  0.14213291  1
  In  In7  1  0.34153502  0.17466124  0.61686599  1
  In  In8  1  0.32889355  0.49683847  0.13002924  1
  In  In9  1  0.33790827  0.49059820  0.63143121  1
  In  In10  1  0.33617176  0.83477699  0.11572309  1
  In  In11  1  0.32068947  0.83181373  0.63195145  1
  In  In12  1  0.66764599  0.16167567  0.14845328  1
  In  In13  1  0.65871690  0.16325128  0.61217910  1
  In  In14  1  0.65850341  0.49509578  0.12843553  1
  In  In15  1  0.67678544  0.52076237  0.59631817  1
  In  In16  1  0.67318208  0.84398541  0.11959617  1
  In  In17  1  0.68016608  0.82205162  0.62978278  1
  In  In18  1  0.18430310  0.01698242  0.35868163  1
  In  In19  1  0.15949945  0.00543721  0.88295744  1
  In  In20  1  0.14656123  0.32936287  0.35890599  1
  In  In21  1  0.18440855  0.32532957  0.88339225  1
  In  In22  1  0.16644589  0.65748515  0.37407748  1
  In  In23  1  0.16463874  0.66150416  0.87839352  1
  In  In24  1  0.52195366  0.03084159  0.34609031  1
  In  In25  1  0.49709983  -0.01082023  0.87578173  1
  In  In26  1  0.50425934  0.33017484  0.37607848  1
  In  In27  1  0.49315096  0.34920661  0.87487449  1
  In  In28  1  0.50635218  0.64884536  0.38597524  1
  In  In29  1  0.51030061  0.67659808  0.86205335  1
  In  In30  1  0.83548764  0.00382195  0.37719361  1
  In  In31  1  0.81823677  -0.00877868  0.86853509  1
  In  In32  1  0.83252214  0.32398836  0.37974154  1
  In  In33  1  0.83749676  0.32855861  0.87282954  1
  In  In34  1  0.83126471  0.66616697  0.40243875  1
  In  In35  1  0.84405097  0.68016588  0.86257526  1
  In  In36  1  0.00250097  0.16603060  0.37373281  1
  In  In37  1  0.01398939  0.17578516  0.87303584  1
  In  In38  1  -0.00034948  0.49094642  0.37436919  1
  In  In39  1  0.00412441  0.52499364  0.87497343  1
  In  In40  1  -0.01643594  0.83810872  0.37644891  1
  In  In41  1  0.01274661  0.80948507  0.89675760  1
  In  In42  1  0.33519024  0.16796004  0.37184144  1
  In  In43  1  0.31964214  0.16651302  0.86802490  1
  In  In44  1  0.34608081  0.49410141  0.37630135  1
  In  In45  1  0.32580312  0.48788705  0.86696103  1
  In  In46  1  0.32541576  0.84018836  0.37261041  1
  In  In47  1  0.34404944  0.83128775  0.88100281  1
  In  In48  1  0.66503315  0.17124542  0.37923877  1
  In  In49  1  0.68298169  0.16134179  0.86940832  1
  In  In50  1  0.69025989  0.46932427  0.40909839  1
  In  In51  1  0.64953718  0.50278572  0.87251399  1
  In  In52  1  0.66940322  0.84476420  0.37623322  1
  In  In53  1  0.66903619  0.83578278  0.87378542  1
  In  In54  1  0.16223860  0.00297144  0.12369705  1
  In  In55  1  0.16258168  0.00294095  0.62225123  1
  In  In56  1  0.17124637  0.33211281  0.13027520  1
  In  In57  1  0.17664960  0.33000010  0.62544209  1
  In  In58  1  0.16027822  0.66472545  0.10784917  1
  In  In59  1  0.16031355  0.66940549  0.63962026  1
  In  In60  1  0.50351895  -0.00481959  0.13633891  1
  In  In61  1  0.50716773  0.02063667  0.61979009  1
  In  In62  1  0.49379244  0.32538624  0.15043239  1
  In  In63  1  0.50043254  0.32800598  0.60892623  1
  In  In64  1  0.48433896  0.66841926  0.12193386  1
  In  In65  1  0.50780747  0.65735078  0.63180261  1
  In  In66  1  0.83547613  -0.00051365  0.13459416  1
  In  In67  1  0.82666687  -0.01649837  0.61510811  1
  In  In68  1  0.84282426  0.32449907  0.14212971  1
  In  In69  1  0.82239581  0.33486145  0.60304204  1
  In  In70  1  0.82894395  0.67311844  0.12167874  1
  In  In71  1  0.83197577  0.66626431  0.61739386  1
  In  In72  1  0.33296581  0.66629973  0.25315310  1
  In  In73  1  0.00503870  0.34008590  0.74022615  1
  In  In74  1  0.16021213  0.83916856  0.50640382  1
  In  In75  1  0.15741924  0.49337799  0.49831998  1
  In  In76  1  0.84470188  0.15327144  0.01027935  1
  In  In77  1  0.84315756  0.50833321  -0.00264479  1
  In  In78  1  -0.00013711  -0.00751063  0.75663161  1
  In  In79  1  0.00033831  0.66782610  0.24651626  1
  In  In80  1  0.65785527  0.33869920  0.73426705  1
  In  In81  1  0.34010144  0.00043464  0.74786675  1
  In  In82  1  0.50162261  0.83612330  0.49723884  1
  In  In83  1  0.66693069  0.66441505  0.25553299  1
  In  In84  1  0.49420017  0.16298146  0.01164060  1
  In  In85  1  0.49350408  0.50737542  0.00314259  1
  Cu  Cu86  1  0.33020161  0.32982226  0.00488696  1
  Cu  Cu87  1  0.83279884  0.49653663  0.26431508  1
  Cu  Cu88  1  0.33352048  0.66822919  -0.00519918  1
  Cu  Cu89  1  0.83131518  0.17268475  0.26071458  1
  Cu  Cu90  1  0.50861491  0.83667324  0.75073514  1
  Cu  Cu91  1  0.67063955  0.00119662  0.49374617  1
  Cu  Cu92  1  0.50509695  0.17499091  0.74139705  1
  Cu  Cu93  1  0.32832670  0.32899149  0.49648928  1
  Cu  Cu94  1  0.34361140  0.01201250  0.48773170  1
  Cu  Cu95  1  0.67366794  0.32791542  0.01423813  1
  Cu  Cu96  1  0.32411744  0.00160045  0.00204638  1
  Cu  Cu97  1  0.00819585  0.00675090  0.49327184  1
  Cu  Cu98  1  0.65721723  -0.00485620  0.00176941  1
  Cu  Cu99  1  0.16545947  0.82832039  0.76168867  1
  Cu  Cu100  1  0.82019681  0.50461896  0.74202092  1
  Cu  Cu101  1  0.83151761  0.82535976  0.74706138  1
  Cu  Cu102  1  0.82860245  0.84460127  0.25149066  1
  Cu  Cu103  1  0.01748188  0.33795313  0.00293574  1
  Cu  Cu104  1  0.49926210  0.83250341  0.24910382  1
  Cu  Cu105  1  0.83487550  0.15512660  0.73847533  1
  Cu  Cu106  1  0.66836409  0.67911936  -0.00975067  1
  Cu  Cu107  1  0.32866299  0.66318164  0.50911081  1
  Cu  Cu108  1  0.51216298  0.48564929  0.26017650  1
  Cu  Cu109  1  0.16060491  0.50132516  0.75353691  1
  Cu  Cu110  1  0.49427002  0.50430914  0.74348727  1
  Cu  Cu111  1  -0.00368663  0.33050006  0.49307467  1
  Cu  Cu112  1  -0.00898168  0.00130021  0.00467625  1
  Cu  Cu113  1  0.16013690  0.83927251  0.24003238  1
  Cu  Cu114  1  0.15970386  0.16691459  0.24959711  1
  Se  Se115  1  0.07963037  0.08619983  0.05223010  1
  Se  Se116  1  0.09268071  0.08701595  0.54813860  1
  Se  Se117  1  0.09459935  0.42158798  0.05962130  1
  Se  Se118  1  0.06981875  0.40483149  0.56307078  1
  Se  Se119  1  0.07754286  0.75014167  0.04475473  1
  Se  Se120  1  0.07671681  0.73555601  0.55840778  1
  Se  Se121  1  0.40193165  0.07525907  0.06981237  1
  Se  Se122  1  0.42456491  0.09289421  0.54641674  1
  Se  Se123  1  0.42061209  0.40278771  0.06411699  1
  Se  Se124  1  0.40700781  0.41644770  0.55042273  1
  Se  Se125  1  0.41976330  0.75217451  0.04548097  1
  Se  Se126  1  0.40905680  0.75154279  0.56264175  1
  Se  Se127  1  0.73493372  0.07845305  0.06364020  1
  Se  Se128  1  0.75397157  0.08113994  0.55137774  1
  Se  Se129  1  0.75905886  0.41420571  0.06448070  1
  Se  Se130  1  0.72313563  0.40216833  0.53963078  1
  Se  Se131  1  0.75032235  0.75537192  0.05108166  1
  Se  Se132  1  0.76319935  0.76440183  0.55094079  1
  Se  Se133  1  0.25061420  0.24443061  0.05966050  1
  Se  Se134  1  0.24493023  0.24629049  0.54980910  1
  Se  Se135  1  0.26122538  0.58131071  0.05424034  1
  Se  Se136  1  0.24249725  0.58319929  0.56466168  1
  Se  Se137  1  0.24185128  0.91470886  0.05408368  1
  Se  Se138  1  0.26609349  0.93073509  0.55358884  1
  Se  Se139  1  0.58818765  0.25081305  0.07136507  1
  Se  Se140  1  0.59589263  0.25852243  0.54201127  1
  Se  Se141  1  0.59440738  0.59708946  0.05682781  1
  Se  Se142  1  0.56444475  0.58803121  0.54525372  1
  Se  Se143  1  0.57257042  0.91565478  0.05699529  1
  Se  Se144  1  0.59289761  0.92249121  0.56008969  1
  Se  Se145  1  0.92872075  0.25950175  0.05932455  1
  Se  Se146  1  0.91420223  0.24542031  0.54689698  1
  Se  Se147  1  0.93046204  0.59023463  0.06513176  1
  Se  Se148  1  0.90030555  0.56736161  0.54998029  1
  Se  Se149  1  0.90306776  0.92069030  0.05509922  1
  Se  Se150  1  0.92785578  0.92023094  0.54798526  1
  Se  Se151  1  0.08617843  0.25207049  0.44228826  1
  Se  Se152  1  0.09298089  0.24670961  0.94963791  1
  Se  Se153  1  0.06911168  0.59274054  0.44465857  1
  Se  Se154  1  0.08785069  0.58145276  0.95290023  1
  Se  Se155  1  0.08815001  0.92551394  0.43203291  1
  Se  Se156  1  0.07897152  0.92034356  0.95072336  1
  Se  Se157  1  0.41611285  0.24784757  0.44407193  1
  Se  Se158  1  0.41392097  0.25437109  0.94238155  1
  Se  Se159  1  0.40865657  0.58192928  0.45280814  1
  Se  Se160  1  0.41378832  0.59012063  0.93066249  1
  Se  Se161  1  0.42021028  0.92563013  0.43121895  1
  Se  Se162  1  0.41537359  0.92189482  0.95204731  1
  Se  Se163  1  0.74289055  0.25350061  0.45127945  1
  Se  Se164  1  0.75166998  0.25080709  0.94956422  1
  Se  Se165  1  0.73964359  0.58803364  0.46462259  1
  Se  Se166  1  0.74342931  0.58796309  0.93508369  1
  Se  Se167  1  0.75796773  0.91527802  0.44751530  1
  Se  Se168  1  0.74737036  0.91782497  0.94826066  1
  Se  Se169  1  0.24627191  0.08905867  0.44313325  1
  Se  Se170  1  0.24991614  0.08904790  0.94599240  1
  Se  Se171  1  0.24705240  0.40713260  0.43575557  1
  Se  Se172  1  0.25527848  0.42066737  0.95102988  1
  Se  Se173  1  0.25323399  0.74393036  0.44551215  1
  Se  Se174  1  0.24937675  0.75253276  0.94293914  1
  Se  Se175  1  0.57977961  0.07829688  0.44183951  1
  Se  Se176  1  0.58812649  0.08530923  0.94154529  1
  Se  Se177  1  0.55379426  0.43985647  0.44206590  1
  Se  Se178  1  0.59155465  0.40815208  0.95230464  1
  Se  Se179  1  0.59573511  0.74369742  0.44324765  1
  Se  Se180  1  0.57624931  0.75723621  0.94107055  1
  Se  Se181  1  0.91722396  0.08944498  0.44568044  1
  Se  Se182  1  0.92340955  0.07622751  0.93103605  1
  Se  Se183  1  0.91308016  0.41783397  0.44525307  1
  Se  Se184  1  0.92983502  0.40796986  0.93916277  1
  Se  Se185  1  0.92541470  0.75465904  0.45427848  1
  Se  Se186  1  0.90272053  0.74408722  0.95042507  1
  Se  Se187  1  0.24625195  0.24884019  0.30294268  1
  Se  Se188  1  0.25471929  0.26044076  0.80000451  1
  Se  Se189  1  0.24474473  0.56761727  0.30647452  1
  Se  Se190  1  0.24759422  0.58324599  0.80542517  1
  Se  Se191  1  0.25049202  0.91289884  0.29474249  1
  Se  Se192  1  0.24581522  0.91718525  0.81265613  1
  Se  Se193  1  0.57686098  0.24113108  0.30566650  1
  Se  Se194  1  0.58267476  0.25175189  0.81126954  1
  Se  Se195  1  0.59341623  0.56608751  0.31870520  1
  Se  Se196  1  0.58509097  0.58369228  0.79428341  1
  Se  Se197  1  0.58870985  0.91314517  0.29926255  1
  Se  Se198  1  0.58773854  0.92344775  0.80403995  1
  Se  Se199  1  0.92229787  0.25585491  0.30654905  1
  Se  Se200  1  0.91316033  0.23911328  0.79873012  1
  Se  Se201  1  0.90637767  0.59091785  0.31608356  1
  Se  Se202  1  0.91065008  0.57776778  0.79847389  1
  Se  Se203  1  0.91758614  0.92483869  0.30233525  1
  Se  Se204  1  0.91332426  0.89756381  0.81345245  1
  Se  Se205  1  0.07555228  0.07966863  0.29921712  1
  Se  Se206  1  0.09661180  0.09205996  0.80073991  1
  Se  Se207  1  0.08328094  0.43304560  0.29609295  1
  Se  Se208  1  0.08416291  0.41814126  0.81619147  1
  Se  Se209  1  0.09037997  0.75909503  0.30947477  1
  Se  Se210  1  0.07701784  0.74502696  0.80979524  1
  Se  Se211  1  0.38717214  0.05560563  0.30926442  1
  Se  Se212  1  0.42981181  0.09525355  0.80730360  1
  Se  Se213  1  0.41544707  0.40781769  0.30325532  1
  Se  Se214  1  0.41554252  0.41389758  0.79526635  1
  Se  Se215  1  0.42840997  0.75026338  0.31580853  1
  Se  Se216  1  0.41596778  0.75789170  0.80034201  1
  Se  Se217  1  0.74870816  0.08511148  0.31017571  1
  Se  Se218  1  0.74936489  0.07672149  0.79334245  1
  Se  Se219  1  0.74712825  0.41444004  0.31534636  1
  Se  Se220  1  0.75016172  0.41940067  0.80737007  1
  Se  Se221  1  0.76231422  0.75210301  0.31360602  1
  Se  Se222  1  0.74088078  0.74651293  0.80075999  1
  Se  Se223  1  0.24334565  0.08213583  0.19628184  1
  Se  Se224  1  0.25074298  0.08967013  0.68818247  1
  Se  Se225  1  0.27075752  0.39804048  0.19692991  1
  Se  Se226  1  0.24335743  0.41783464  0.69902217  1
  Se  Se227  1  0.24194174  0.74972713  0.18656103  1
  Se  Se228  1  0.25028076  0.74794421  0.70605655  1
  Se  Se229  1  0.57316746  0.08315490  0.20832775  1
  Se  Se230  1  0.59126303  0.08896400  0.69524504  1
  Se  Se231  1  0.59632592  0.40764976  0.20326468  1
  Se  Se232  1  0.57433355  0.43266917  0.67549938  1
  Se  Se233  1  0.57772669  0.74934406  0.18899665  1
  Se  Se234  1  0.58660007  0.74874347  0.69610425  1
  Se  Se235  1  0.91082865  0.09249554  0.19920416  1
  Se  Se236  1  0.92173716  0.07753385  0.68302273  1
  Se  Se237  1  0.91797562  0.42088654  0.20513490  1
  Se  Se238  1  0.89691178  0.41570083  0.68567836  1
  Se  Se239  1  0.90997504  0.76371879  0.19083881  1
  Se  Se240  1  0.91532853  0.74276760  0.69351608  1
  Se  Se241  1  0.07832402  0.25605126  0.19816132  1
  Se  Se242  1  0.09289305  0.23762865  0.69267704  1
  Se  Se243  1  0.10068619  0.58227056  0.19303370  1
  Se  Se244  1  0.07283022  0.58051387  0.70057064  1
  Se  Se245  1  0.07230758  0.92137221  0.19140746  1
  Se  Se246  1  0.09179285  0.90420884  0.69210720  1
  Se  Se247  1  0.43326243  0.22308010  0.21387844  1
  Se  Se248  1  0.42220924  0.25652487  0.68841470  1
  Se  Se249  1  0.43235425  0.57152352  0.19991447  1
  Se  Se250  1  0.40620072  0.59128301  0.69642289  1
  Se  Se251  1  0.41015674  0.90769064  0.19532550  1
  Se  Se252  1  0.43118396  0.91408307  0.68481348  1
  Se  Se253  1  0.74602482  0.25804805  0.20887494  1
  Se  Se254  1  0.75623220  0.24576854  0.68447548  1
  Se  Se255  1  0.76076888  0.57403517  0.19403198  1
  Se  Se256  1  0.74043525  0.58474597  0.68432287  1
  Se  Se257  1  0.73945986  0.92310589  0.19936798  1
  Se  Se258  1  0.75258338  0.91710925  0.69759728  1
