# generated using pymatgen
data_In86Cu29Se144
_symmetry_space_group_name_H-M   'P 1'
_cell_length_a   17.58223946
_cell_length_b   17.57925586
_cell_length_c   23.44169002
_cell_angle_alpha   89.99166525
_cell_angle_beta   89.97922456
_cell_angle_gamma   90.01156296
_symmetry_Int_Tables_number   1
_chemical_formula_structural   In86Cu29Se144
_chemical_formula_sum   'In86 Cu29 Se144'
_cell_volume   7245.41981448
_cell_formula_units_Z   1
loop_
 _symmetry_equiv_pos_site_id
 _symmetry_equiv_pos_as_xyz
  1  'x, y, z'
loop_
 _atom_site_type_symbol
 _atom_site_label
 _atom_site_symmetry_multiplicity
 _atom_site_fract_x
 _atom_site_fract_y
 _atom_site_fract_z
 _atom_site_occupancy
  In  In0  1  -0.00407972  0.15234009  0.12666615  1
  In  In1  1  -0.01243686  0.17668875  0.62156688  1
  In  In2  1  -0.00765911  0.51777095  0.12253903  1
  In  In3  1  0.00947192  0.51341589  0.62586638  1
  In  In4  1  -0.00464172  0.83305902  0.12103514  1
  In  In5  1  -0.01267089  0.82131031  0.62087332  1
  In  In6  1  0.33230941  0.17734494  0.12200989  1
  In  In7  1  0.34629587  0.16611118  0.62262499  1
  In  In8  1  0.34955990  0.50029530  0.12550052  1
  In  In9  1  0.31782254  0.50959195  0.63737223  1
  In  In10  1  0.32243475  0.82723999  0.12373488  1
  In  In11  1  0.33700151  0.83322334  0.61875776  1
  In  In12  1  0.66408811  0.16932108  0.13469392  1
  In  In13  1  0.67308925  0.17376947  0.60864256  1
  In  In14  1  0.67069299  0.49557947  0.12979277  1
  In  In15  1  0.67688148  0.49802404  0.63518439  1
  In  In16  1  0.66702876  0.83027081  0.12752345  1
  In  In17  1  0.66012111  0.81793943  0.61419278  1
  In  In18  1  0.15175809  -0.00070008  0.37144757  1
  In  In19  1  0.16735484  -0.00438190  0.88057207  1
  In  In20  1  0.18478582  0.33749225  0.38561697  1
  In  In21  1  0.16906717  0.32644474  0.87494079  1
  In  In22  1  0.17821693  0.65959314  0.38404233  1
  In  In23  1  0.17629177  0.67286961  0.86234130  1
  In  In24  1  0.53028263  -0.01485180  0.39686742  1
  In  In25  1  0.49027237  -0.01317943  0.87883964  1
  In  In26  1  0.50609171  0.31152601  0.38654753  1
  In  In27  1  0.51083158  0.34391566  0.86194194  1
  In  In28  1  0.51041033  0.67380140  0.37124543  1
  In  In29  1  0.51166770  0.68706740  0.85908060  1
  In  In30  1  0.83017860  -0.00414108  0.37584756  1
  In  In31  1  0.81827556  -0.00975807  0.87608394  1
  In  In32  1  0.82260559  0.34964844  0.38321121  1
  In  In33  1  0.83009763  0.34660826  0.87353185  1
  In  In34  1  0.82760117  0.67577326  0.38250800  1
  In  In35  1  0.82717075  0.66113533  0.87143141  1
  In  In36  1  0.00055098  0.14829216  0.36996715  1
  In  In37  1  0.00308763  0.18168992  0.87557127  1
  In  In38  1  0.00210296  0.50313368  0.38585395  1
  In  In39  1  -0.02030376  0.50676625  0.86923758  1
  In  In40  1  -0.00903778  0.84263765  0.38024553  1
  In  In41  1  0.00836278  0.82149282  0.87830282  1
  In  In42  1  0.35041127  0.17160079  0.38037167  1
  In  In43  1  0.32820349  0.15800305  0.87263243  1
  In  In44  1  0.32510762  0.49470648  0.38366053  1
  In  In45  1  0.34311415  0.51602568  0.85379500  1
  In  In46  1  0.34928258  0.82389391  0.38227174  1
  In  In47  1  0.34122400  0.81598508  0.88407964  1
  In  In48  1  0.66616434  0.16883997  0.37708051  1
  In  In49  1  0.66252997  0.16967250  0.87316135  1
  In  In50  1  0.67253088  0.50983867  0.37155423  1
  In  In51  1  0.67873330  0.50496364  0.86767291  1
  In  In52  1  0.67218777  0.83063403  0.37626373  1
  In  In53  1  0.67298878  0.81284489  0.89450458  1
  In  In54  1  0.15193761  -0.01065453  0.12102867  1
  In  In55  1  0.17891292  -0.00672359  0.62009520  1
  In  In56  1  0.18249119  0.33245706  0.11784653  1
  In  In57  1  0.16803386  0.35056729  0.62649544  1
  In  In58  1  0.16182919  0.67818409  0.12679284  1
  In  In59  1  0.16577433  0.66905541  0.62796719  1
  In  In60  1  0.51461293  -0.00070757  0.13132917  1
  In  In61  1  0.50577978  -0.00694567  0.61066698  1
  In  In62  1  0.50867049  0.34136019  0.12491083  1
  In  In63  1  0.50404219  0.33219735  0.63018770  1
  In  In64  1  0.49215009  0.67438248  0.13319591  1
  In  In65  1  0.50120742  0.67556424  0.63320757  1
  In  In66  1  0.83649391  -0.00981205  0.13441563  1
  In  In67  1  0.80764914  -0.01299185  0.59840636  1
  In  In68  1  0.81735223  0.33752796  0.12090460  1
  In  In69  1  0.82953191  0.33248982  0.61492576  1
  In  In70  1  0.81411095  0.65138347  0.10696130  1
  In  In71  1  0.83239242  0.66414076  0.62929681  1
  In  In72  1  0.49455954  0.50194166  0.51334817  1
  In  In73  1  0.83855526  0.15920622  -0.00000972  1
  In  In74  1  0.65902610  -0.00983052  0.74650574  1
  In  In75  1  -0.00419773  0.34392572  0.74741690  1
  In  In76  1  0.34017398  -0.00604361  0.74321080  1
  In  In77  1  0.33294801  -0.00016484  0.25493682  1
  In  In78  1  0.34277930  0.33700879  0.25869464  1
  In  In79  1  0.16392254  0.49838170  -0.01064364  1
  In  In80  1  -0.00207501  0.33091143  0.25488471  1
  In  In81  1  0.51112222  0.51174706  -0.01303883  1
  In  In82  1  -0.00705042  0.67701608  0.25315852  1
  In  In83  1  0.16073874  0.16435371  0.49797374  1
  In  In84  1  -0.00653613  0.00204193  0.74249015  1
  In  In85  1  0.50085191  0.16271412  0.00599702  1
  Cu  Cu86  1  0.82623522  0.16902972  0.73711161  1
  Cu  Cu87  1  0.32263025  0.66898379  0.00133133  1
  Cu  Cu88  1  0.82824827  0.50114914  0.25000455  1
  Cu  Cu89  1  -0.00618306  0.33379212  0.50114736  1
  Cu  Cu90  1  0.17031791  0.83162902  0.74757453  1
  Cu  Cu91  1  0.16605702  0.83030659  0.24851838  1
  Cu  Cu92  1  -0.00288669  -0.00575712  0.49642199  1
  Cu  Cu93  1  0.50465403  0.83434750  0.25596087  1
  Cu  Cu94  1  0.17320669  0.50540237  0.25882706  1
  Cu  Cu95  1  0.66540220  -0.01038809  0.00656872  1
  Cu  Cu96  1  0.16768435  0.17311686  0.75413752  1
  Cu  Cu97  1  0.67530697  0.66693517  0.49898744  1
  Cu  Cu98  1  0.50984051  0.16353060  0.25726752  1
  Cu  Cu99  1  0.32449943  -0.00817819  0.00113067  1
  Cu  Cu100  1  0.33564156  -0.00449197  0.49714002  1
  Cu  Cu101  1  0.33742917  0.66883827  0.50770732  1
  Cu  Cu102  1  0.00695336  0.66828575  0.50391149  1
  Cu  Cu103  1  -0.00804834  0.67135035  -0.00416848  1
  Cu  Cu104  1  0.00348923  0.33387485  -0.00395495  1
  Cu  Cu105  1  0.33738281  0.32855787  -0.00934193  1
  Cu  Cu106  1  0.82743433  0.83253526  0.25189221  1
  Cu  Cu107  1  0.00468920  0.00023285  0.00183872  1
  Cu  Cu108  1  0.83296210  0.82617294  0.75084170  1
  Cu  Cu109  1  0.66180879  0.33811981  0.50279939  1
  Cu  Cu110  1  0.16425512  0.16338243  0.24822188  1
  Cu  Cu111  1  0.50865793  0.17138806  0.74417947  1
  Cu  Cu112  1  0.49789180  0.49894153  0.74368179  1
  Cu  Cu113  1  0.82713639  0.16505838  0.25263838  1
  Cu  Cu114  1  0.50559325  0.50468259  0.25180366  1
  Se  Se115  1  0.08533871  0.08770648  0.05326320  1
  Se  Se116  1  0.07262257  0.07398530  0.56170186  1
  Se  Se117  1  0.07750051  0.41483980  0.06167290  1
  Se  Se118  1  0.07662208  0.41575199  0.55564046  1
  Se  Se119  1  0.07765444  0.74723258  0.05319672  1
  Se  Se120  1  0.08815520  0.75468319  0.55653841  1
  Se  Se121  1  0.40703281  0.07012240  0.06289726  1
  Se  Se122  1  0.41665740  0.08062670  0.55044772  1
  Se  Se123  1  0.41752972  0.41065739  0.04974399  1
  Se  Se124  1  0.40338405  0.41450722  0.57075668  1
  Se  Se125  1  0.40915850  0.74561252  0.05757356  1
  Se  Se126  1  0.42743294  0.75131838  0.55441952  1
  Se  Se127  1  0.74309283  0.07768883  0.06278554  1
  Se  Se128  1  0.74346274  0.08805872  0.53704321  1
  Se  Se129  1  0.75291267  0.42904500  0.05231460  1
  Se  Se130  1  0.74545680  0.42401643  0.55333799  1
  Se  Se131  1  0.75980828  0.76692961  0.05517590  1
  Se  Se132  1  0.76140198  0.74840619  0.55248480  1
  Se  Se133  1  0.25316805  0.24748369  0.04469527  1
  Se  Se134  1  0.24675387  0.24940768  0.56251744  1
  Se  Se135  1  0.25058310  0.58041631  0.06109888  1
  Se  Se136  1  0.25047095  0.58704122  0.55728006  1
  Se  Se137  1  0.24040964  0.90981155  0.05532896  1
  Se  Se138  1  0.25123095  0.91134178  0.54750693  1
  Se  Se139  1  0.59562570  0.25755250  0.05603396  1
  Se  Se140  1  0.57374679  0.25470159  0.55117092  1
  Se  Se141  1  0.58224286  0.58832476  0.06614062  1
  Se  Se142  1  0.59354568  0.59189038  0.56277127  1
  Se  Se143  1  0.57703611  0.91028052  0.05785265  1
  Se  Se144  1  0.61047725  0.92941986  0.55155275  1
  Se  Se145  1  0.92403383  0.25628987  0.06095914  1
  Se  Se146  1  0.90803377  0.24516819  0.54512432  1
  Se  Se147  1  0.91253941  0.57886638  0.04334386  1
  Se  Se148  1  0.92003839  0.58789280  0.55739758  1
  Se  Se149  1  0.91581228  0.92329511  0.05508244  1
  Se  Se150  1  0.91511846  0.90983503  0.54963139  1
  Se  Se151  1  0.07226174  0.25625799  0.43568558  1
  Se  Se152  1  0.08946917  0.24859912  0.94943414  1
  Se  Se153  1  0.08966985  0.58212624  0.45164608  1
  Se  Se154  1  0.07493235  0.59284326  0.93449992  1
  Se  Se155  1  0.08743798  0.91411362  0.44734105  1
  Se  Se156  1  0.08266201  0.91314543  0.94628296  1
  Se  Se157  1  0.38764618  0.28088521  0.44673489  1
  Se  Se158  1  0.42271077  0.24975776  0.93406284  1
  Se  Se159  1  0.41673947  0.59112756  0.44298096  1
  Se  Se160  1  0.40316821  0.59239530  0.93928140  1
  Se  Se161  1  0.42552093  0.91081424  0.45169127  1
  Se  Se162  1  0.41291236  0.90957453  0.95214525  1
  Se  Se163  1  0.74531633  0.25639978  0.44676621  1
  Se  Se164  1  0.74960445  0.25084072  0.94208153  1
  Se  Se165  1  0.75545340  0.57854821  0.44768226  1
  Se  Se166  1  0.73879260  0.59100222  0.94387375  1
  Se  Se167  1  0.75364634  0.91149737  0.44593700  1
  Se  Se168  1  0.75318827  0.91108655  0.95392516  1
  Se  Se169  1  0.25572570  0.07627604  0.43648365  1
  Se  Se170  1  0.25010501  0.08174534  0.94675006  1
  Se  Se171  1  0.24546362  0.42546841  0.45935392  1
  Se  Se172  1  0.26601084  0.41831725  0.93277060  1
  Se  Se173  1  0.25605203  0.75084148  0.44941473  1
  Se  Se174  1  0.23765364  0.74891402  0.94630399  1
  Se  Se175  1  0.55285764  0.11771354  0.43895638  1
  Se  Se176  1  0.59027539  0.07120160  0.94314812  1
  Se  Se177  1  0.58347684  0.42159965  0.44245582  1
  Se  Se178  1  0.59625532  0.40767336  0.93995200  1
  Se  Se179  1  0.58781998  0.74793084  0.44691419  1
  Se  Se180  1  0.56638436  0.74499626  0.95047224  1
  Se  Se181  1  0.91666165  0.08092590  0.44432679  1
  Se  Se182  1  0.92659138  0.07257002  0.93342208  1
  Se  Se183  1  0.91358099  0.42334384  0.45087683  1
  Se  Se184  1  0.91889022  0.41609851  0.94498529  1
  Se  Se185  1  0.92234048  0.74785663  0.44775192  1
  Se  Se186  1  0.90873564  0.75117827  0.94014169  1
  Se  Se187  1  0.24532153  0.24003655  0.30909059  1
  Se  Se188  1  0.25619768  0.25057954  0.80501921  1
  Se  Se189  1  0.26026891  0.58464743  0.30941000  1
  Se  Se190  1  0.23677521  0.57569728  0.79302040  1
  Se  Se191  1  0.24554275  0.90601497  0.31337610  1
  Se  Se192  1  0.24957366  0.91151483  0.80875322  1
  Se  Se193  1  0.58815733  0.25700750  0.30485405  1
  Se  Se194  1  0.59244136  0.25182836  0.79899418  1
  Se  Se195  1  0.59047161  0.59016303  0.30145054  1
  Se  Se196  1  0.57585201  0.57576575  0.80605806  1
  Se  Se197  1  0.58766495  0.91762386  0.30891053  1
  Se  Se198  1  0.58303223  0.90507094  0.81754184  1
  Se  Se199  1  0.90612763  0.24510836  0.31519699  1
  Se  Se200  1  0.90652409  0.24270614  0.80245342  1
  Se  Se201  1  0.91187034  0.57697944  0.31142737  1
  Se  Se202  1  0.90691227  0.58566332  0.79628452  1
  Se  Se203  1  0.91417989  0.91556511  0.30336034  1
  Se  Se204  1  0.91112614  0.91189750  0.80864900  1
  Se  Se205  1  0.07930259  0.07556903  0.29359392  1
  Se  Se206  1  0.08610117  0.08794594  0.80772825  1
  Se  Se207  1  0.09327275  0.41999022  0.31346090  1
  Se  Se208  1  0.08541564  0.42229263  0.81459434  1
  Se  Se209  1  0.09019302  0.75346007  0.31585854  1
  Se  Se210  1  0.08173126  0.75135839  0.79847582  1
  Se  Se211  1  0.42993050  0.08053080  0.31458872  1
  Se  Se212  1  0.43117906  0.08725742  0.80440973  1
  Se  Se213  1  0.43189278  0.42518683  0.31832097  1
  Se  Se214  1  0.41461183  0.41190289  0.79588047  1
  Se  Se215  1  0.41779042  0.74814312  0.30277983  1
  Se  Se216  1  0.40298557  0.74656046  0.80011975  1
  Se  Se217  1  0.74673879  0.08261169  0.30900853  1
  Se  Se218  1  0.75401905  0.08747751  0.80265443  1
  Se  Se219  1  0.74622969  0.41643444  0.30276395  1
  Se  Se220  1  0.74870525  0.41239473  0.79863248  1
  Se  Se221  1  0.74866108  0.74394718  0.30421501  1
  Se  Se222  1  0.74406235  0.75455094  0.80790158  1
  Se  Se223  1  0.24726187  0.08651442  0.18760296  1
  Se  Se224  1  0.24392577  0.09083557  0.69231418  1
  Se  Se225  1  0.24829821  0.42316982  0.19505613  1
  Se  Se226  1  0.24864025  0.41275421  0.70392962  1
  Se  Se227  1  0.25058720  0.74490121  0.19965579  1
  Se  Se228  1  0.25641153  0.75532159  0.69114800  1
  Se  Se229  1  0.59109112  0.07920948  0.20368748  1
  Se  Se230  1  0.58195972  0.08820097  0.68289270  1
  Se  Se231  1  0.58490445  0.41591692  0.19968375  1
  Se  Se232  1  0.58688002  0.41455463  0.69765704  1
  Se  Se233  1  0.58417038  0.75017408  0.19909758  1
  Se  Se234  1  0.59343460  0.75300811  0.69798265  1
  Se  Se235  1  0.91367115  0.08281421  0.20076456  1
  Se  Se236  1  0.89835934  0.08113858  0.67886363  1
  Se  Se237  1  0.91430522  0.42464147  0.19153668  1
  Se  Se238  1  0.90744784  0.42646023  0.68379291  1
  Se  Se239  1  0.90028272  0.75079054  0.18652107  1
  Se  Se240  1  0.91999557  0.74465220  0.69996043  1
  Se  Se241  1  0.09163549  0.25049963  0.18818562  1
  Se  Se242  1  0.08527089  0.24481770  0.69090563  1
  Se  Se243  1  0.08807364  0.57942542  0.19814193  1
  Se  Se244  1  0.09898131  0.57650051  0.69947461  1
  Se  Se245  1  0.07821942  0.90878698  0.19578848  1
  Se  Se246  1  0.08950712  0.91179750  0.68794216  1
  Se  Se247  1  0.42928062  0.24237559  0.19494569  1
  Se  Se248  1  0.41510128  0.24962928  0.69716131  1
  Se  Se249  1  0.41467211  0.58280060  0.20136178  1
  Se  Se250  1  0.41602492  0.58854308  0.69661072  1
  Se  Se251  1  0.42110206  0.90994547  0.19336421  1
  Se  Se252  1  0.43592970  0.90732328  0.68883277  1
  Se  Se253  1  0.75215318  0.25383240  0.19770131  1
  Se  Se254  1  0.74455912  0.25356687  0.68554000  1
  Se  Se255  1  0.75057336  0.58772562  0.19494094  1
  Se  Se256  1  0.73220416  0.60483789  0.69820769  1
  Se  Se257  1  0.74267213  0.91759733  0.19996749  1
  Se  Se258  1  0.75785452  0.90888534  0.68828668  1
