# generated using pymatgen
data_In86Cu29Se144
_symmetry_space_group_name_H-M   'P 1'
_cell_length_a   17.57293491
_cell_length_b   17.57663167
_cell_length_c   23.43597173
_cell_angle_alpha   90.00776589
_cell_angle_beta   90.02521196
_cell_angle_gamma   89.99788536
_symmetry_Int_Tables_number   1
_chemical_formula_structural   In86Cu29Se144
_chemical_formula_sum   'In86 Cu29 Se144'
_cell_volume   7238.73822446
_cell_formula_units_Z   1
loop_
 _symmetry_equiv_pos_site_id
 _symmetry_equiv_pos_as_xyz
  1  'x, y, z'
loop_
 _atom_site_type_symbol
 _atom_site_label
 _atom_site_symmetry_multiplicity
 _atom_site_fract_x
 _atom_site_fract_y
 _atom_site_fract_z
 _atom_site_occupancy
  In  In0  1  0.00691022  0.17263989  0.11974206  1
  In  In1  1  0.00259261  0.16108157  0.62172942  1
  In  In2  1  0.01626003  0.49532318  0.14576036  1
  In  In3  1  0.00718516  0.49146873  0.61198808  1
  In  In4  1  -0.00517643  0.82885920  0.12984252  1
  In  In5  1  0.00439334  0.84397367  0.62190931  1
  In  In6  1  0.33568416  0.16951143  0.12282359  1
  In  In7  1  0.32430093  0.15771249  0.62006082  1
  In  In8  1  0.33606939  0.49566185  0.13747649  1
  In  In9  1  0.32757935  0.50585987  0.61782468  1
  In  In10  1  0.33753338  0.83301945  0.12844017  1
  In  In11  1  0.34044125  0.82973219  0.63310992  1
  In  In12  1  0.66842758  0.17039616  0.11622382  1
  In  In13  1  0.66344719  0.17495845  0.63514452  1
  In  In14  1  0.65054467  0.49772784  0.12161414  1
  In  In15  1  0.66071397  0.48516943  0.62724868  1
  In  In16  1  0.66864222  0.83970906  0.11538709  1
  In  In17  1  0.66652332  0.84888552  0.62795934  1
  In  In18  1  0.18623013  -0.00869140  0.37400383  1
  In  In19  1  0.17963660  0.00711116  0.87021984  1
  In  In20  1  0.16547036  0.32793426  0.37758209  1
  In  In21  1  0.16367684  0.32091732  0.87791131  1
  In  In22  1  0.14764420  0.65505661  0.34526077  1
  In  In23  1  0.18245314  0.66202630  0.87358703  1
  In  In24  1  0.48883826  0.00332745  0.38275853  1
  In  In25  1  0.50875328  -0.00157220  0.86783550  1
  In  In26  1  0.48701877  0.32709160  0.36508589  1
  In  In27  1  0.50980865  0.31925362  0.88589103  1
  In  In28  1  0.49406057  0.67812207  0.37888117  1
  In  In29  1  0.48335272  0.68284552  0.88575963  1
  In  In30  1  0.82222821  -0.00550619  0.37813141  1
  In  In31  1  0.82889842  0.00321664  0.87381884  1
  In  In32  1  0.83987506  0.33856084  0.36291013  1
  In  In33  1  0.81531524  0.32509288  0.87171996  1
  In  In34  1  0.85401716  0.66955160  0.38046826  1
  In  In35  1  0.84289019  0.67680449  0.87872502  1
  In  In36  1  0.00683281  0.18306541  0.37613797  1
  In  In37  1  0.01237625  0.15177504  0.88422341  1
  In  In38  1  0.01160991  0.49949929  0.36904594  1
  In  In39  1  0.00923243  0.49888388  0.87793039  1
  In  In40  1  0.00611353  0.79823123  0.38648661  1
  In  In41  1  -0.01618193  0.83709733  0.88149224  1
  In  In42  1  0.33404976  0.16333603  0.37631706  1
  In  In43  1  0.36626934  0.12670500  0.91521258  1
  In  In44  1  0.30736393  0.48713704  0.35461156  1
  In  In45  1  0.33551099  0.51420883  0.87476556  1
  In  In46  1  0.33168841  0.83769075  0.36346533  1
  In  In47  1  0.36963798  0.85823939  0.84414113  1
  In  In48  1  0.65066342  0.16379328  0.37429112  1
  In  In49  1  0.66737202  0.16088601  0.87388475  1
  In  In50  1  0.67456926  0.49188041  0.37340079  1
  In  In51  1  0.66145382  0.48635678  0.87317743  1
  In  In52  1  0.66193606  0.83405460  0.38686690  1
  In  In53  1  0.64701599  0.85446769  0.87967445  1
  In  In54  1  0.17560681  0.01332390  0.12130625  1
  In  In55  1  0.16125921  0.00459391  0.63157319  1
  In  In56  1  0.17620193  0.32809911  0.14192770  1
  In  In57  1  0.16004547  0.33089510  0.60239655  1
  In  In58  1  0.17844013  0.66265053  0.15025031  1
  In  In59  1  0.17695504  0.67275348  0.61617104  1
  In  In60  1  0.48734389  0.00025456  0.10777046  1
  In  In61  1  0.49443485  0.00096276  0.62873612  1
  In  In62  1  0.49711796  0.33299842  0.12444886  1
  In  In63  1  0.51494198  0.32615091  0.62601520  1
  In  In64  1  0.49421526  0.66592890  0.11833613  1
  In  In65  1  0.48078148  0.66785770  0.62542179  1
  In  In66  1  0.82973898  -0.00399214  0.11625765  1
  In  In67  1  0.84466790  0.00560874  0.63663492  1
  In  In68  1  0.84094073  0.32535907  0.13000656  1
  In  In69  1  0.83011133  0.31965122  0.62539117  1
  In  In70  1  0.83780334  0.67542310  0.12488005  1
  In  In71  1  0.82693399  0.67375486  0.62218941  1
  In  In72  1  0.66367334  0.00465612  0.24104892  1
  In  In73  1  0.17275770  0.83341078  0.00539458  1
  In  In74  1  0.00394014  -0.00450011  0.25041999  1
  In  In75  1  0.84053335  0.50635592  0.49005372  1
  In  In76  1  0.66476542  0.66142615  0.24981952  1
  In  In77  1  0.33350660  0.32841764  0.75415715  1
  In  In78  1  -0.00328969  0.32108130  0.74854652  1
  In  In79  1  0.83465775  0.49885053  -0.00328864  1
  In  In80  1  0.83628802  0.16600147  0.50616912  1
  In  In81  1  0.66049682  0.66991653  0.74935190  1
  In  In82  1  0.17106105  0.49615026  0.01792230  1
  In  In83  1  0.49637344  0.50153964  0.50024818  1
  In  In84  1  0.17062738  0.83176548  0.49446265  1
  In  In85  1  0.00762490  0.67024859  0.75024244  1
  Cu  Cu86  1  0.50082714  0.84175536  0.24733547  1
  Cu  Cu87  1  0.66615345  0.00124855  -0.00739980  1
  Cu  Cu88  1  0.66840872  0.32464020  0.49844793  1
  Cu  Cu89  1  0.32523312  0.34065716  0.01067796  1
  Cu  Cu90  1  0.33981788  0.67629325  0.00121590  1
  Cu  Cu91  1  -0.00502170  0.32020000  0.00283034  1
  Cu  Cu92  1  0.83293466  0.49383110  0.75211334  1
  Cu  Cu93  1  0.33632032  0.32768161  0.49073951  1
  Cu  Cu94  1  0.17345223  0.49713929  0.74387308  1
  Cu  Cu95  1  0.65872686  -0.00169795  0.50488664  1
  Cu  Cu96  1  0.17233779  0.16680190  0.25067460  1
  Cu  Cu97  1  0.16427140  0.83440097  0.74481182  1
  Cu  Cu98  1  0.49784244  0.49661659  0.24665376  1
  Cu  Cu99  1  0.32879642  0.66570535  0.49321431  1
  Cu  Cu100  1  0.33641183  -0.00147065  0.50046184  1
  Cu  Cu101  1  0.66293150  0.67775177  0.50436788  1
  Cu  Cu102  1  0.49201453  0.17153553  0.24896792  1
  Cu  Cu103  1  -0.00522084  -0.00492592  0.00168881  1
  Cu  Cu104  1  0.66120706  0.33048011  -0.00144601  1
  Cu  Cu105  1  0.17380492  0.16283331  0.75275296  1
  Cu  Cu106  1  0.84010229  0.82494917  0.25628542  1
  Cu  Cu107  1  0.66623886  0.66942464  0.00141061  1
  Cu  Cu108  1  0.83027982  0.49175262  0.25013541  1
  Cu  Cu109  1  0.83459401  0.17207540  0.24384890  1
  Cu  Cu110  1  0.49886249  0.16243421  0.75739069  1
  Cu  Cu111  1  0.82922266  0.84098307  0.75382299  1
  Cu  Cu112  1  0.00306093  0.66507058  0.00863987  1
  Cu  Cu113  1  0.50064376  0.49707417  0.74939596  1
  Cu  Cu114  1  0.00142556  0.00106902  0.50336923  1
  Se  Se115  1  0.07962574  0.07925877  0.05320661  1
  Se  Se116  1  0.08892244  0.08253033  0.55336779  1
  Se  Se117  1  0.07223156  0.40324737  0.06454997  1
  Se  Se118  1  0.09481744  0.43015627  0.53868072  1
  Se  Se119  1  0.08929793  0.73881052  0.06770290  1
  Se  Se120  1  0.07330968  0.74543678  0.55455192  1
  Se  Se121  1  0.41599808  0.09858683  0.04473669  1
  Se  Se122  1  0.41779643  0.08361371  0.55411275  1
  Se  Se123  1  0.41255060  0.42332918  0.05978773  1
  Se  Se124  1  0.41252362  0.40300617  0.55963201  1
  Se  Se125  1  0.42236762  0.76210655  0.05331234  1
  Se  Se126  1  0.40602373  0.74869418  0.55189619  1
  Se  Se127  1  0.74892453  0.08181633  0.05038505  1
  Se  Se128  1  0.74256029  0.07859947  0.56362984  1
  Se  Se129  1  0.74551985  0.41053555  0.05846446  1
  Se  Se130  1  0.74990644  0.41188960  0.55240587  1
  Se  Se131  1  0.75313842  0.74936191  0.05345328  1
  Se  Se132  1  0.74514513  0.75972221  0.55862791  1
  Se  Se133  1  0.24266379  0.25443034  0.06035742  1
  Se  Se134  1  0.25402224  0.24521055  0.54705953  1
  Se  Se135  1  0.26007932  0.59855297  0.06501196  1
  Se  Se136  1  0.24510893  0.58128147  0.54524561  1
  Se  Se137  1  0.26583069  0.92890701  0.05545568  1
  Se  Se138  1  0.25320298  0.91929256  0.56160875  1
  Se  Se139  1  0.57601261  0.24983912  0.05272608  1
  Se  Se140  1  0.58663082  0.24230142  0.55266491  1
  Se  Se141  1  0.58094066  0.58507561  0.05062089  1
  Se  Se142  1  0.58945124  0.58940184  0.56310511  1
  Se  Se143  1  0.58317264  0.91897458  0.04828409  1
  Se  Se144  1  0.57353923  0.91542585  0.55703260  1
  Se  Se145  1  0.90682411  0.24042011  0.05373361  1
  Se  Se146  1  0.93130995  0.26384611  0.55440170  1
  Se  Se147  1  0.92658157  0.57649908  0.06491197  1
  Se  Se148  1  0.92251363  0.59533575  0.55718051  1
  Se  Se149  1  0.91745060  0.90763351  0.05589688  1
  Se  Se150  1  0.91408520  0.92504260  0.55833551  1
  Se  Se151  1  0.09119811  0.24466458  0.45165631  1
  Se  Se152  1  0.08705334  0.24439294  0.95215559  1
  Se  Se153  1  0.06946695  0.60766574  0.43122001  1
  Se  Se154  1  0.08609944  0.58892497  0.94837670  1
  Se  Se155  1  0.07612035  0.92251527  0.43681847  1
  Se  Se156  1  0.08109959  0.91956750  0.94180575  1
  Se  Se157  1  0.42435972  0.24470699  0.44365992  1
  Se  Se158  1  0.40550101  0.26142740  0.95068044  1
  Se  Se159  1  0.40522500  0.57914861  0.43381054  1
  Se  Se160  1  0.41699634  0.58207532  0.95157527  1
  Se  Se161  1  0.40956851  0.90865515  0.44400777  1
  Se  Se162  1  0.42099501  0.91616051  0.93573646  1
  Se  Se163  1  0.75157854  0.25149942  0.43552242  1
  Se  Se164  1  0.74577760  0.24580861  0.94762444  1
  Se  Se165  1  0.73765272  0.59711631  0.44049577  1
  Se  Se166  1  0.74312067  0.59007023  0.93709917  1
  Se  Se167  1  0.74653871  0.91816558  0.45305112  1
  Se  Se168  1  0.75221133  0.91383076  0.94417970  1
  Se  Se169  1  0.25112770  0.08033870  0.44724030  1
  Se  Se170  1  0.23330219  0.09003000  0.95113691  1
  Se  Se171  1  0.25360913  0.41630197  0.44273517  1
  Se  Se172  1  0.25088645  0.41710146  0.94125260  1
  Se  Se173  1  0.24996100  0.74159610  0.42885950  1
  Se  Se174  1  0.26206924  0.75302885  0.93809925  1
  Se  Se175  1  0.57983432  0.08237987  0.44864781  1
  Se  Se176  1  0.57931446  0.08483857  0.94363399  1
  Se  Se177  1  0.58647039  0.40841374  0.44132903  1
  Se  Se178  1  0.57945769  0.42032521  0.95031348  1
  Se  Se179  1  0.57269217  0.75474769  0.45291093  1
  Se  Se180  1  0.58449727  0.75340734  0.94649648  1
  Se  Se181  1  0.92214116  0.07853132  0.43868169  1
  Se  Se182  1  0.91369044  0.07977187  0.94705622  1
  Se  Se183  1  0.92715065  0.40717221  0.43874453  1
  Se  Se184  1  0.92444879  0.40357865  0.93817624  1
  Se  Se185  1  0.89640219  0.76891555  0.45449996  1
  Se  Se186  1  0.91903125  0.74793640  0.95633040  1
  Se  Se187  1  0.25356457  0.24882750  0.30759086  1
  Se  Se188  1  0.25359952  0.23542759  0.81659210  1
  Se  Se189  1  0.27107591  0.60737144  0.29882582  1
  Se  Se190  1  0.25339453  0.58223101  0.79730202  1
  Se  Se191  1  0.25757311  0.92555913  0.29338904  1
  Se  Se192  1  0.24815100  0.91653878  0.79862775  1
  Se  Se193  1  0.58231234  0.24991668  0.30101578  1
  Se  Se194  1  0.58342312  0.24911759  0.80647249  1
  Se  Se195  1  0.57343050  0.57462237  0.31274583  1
  Se  Se196  1  0.57425712  0.58073220  0.81254491  1
  Se  Se197  1  0.58278223  0.91620608  0.30973142  1
  Se  Se198  1  0.58071395  0.91369127  0.79400418  1
  Se  Se199  1  0.92144091  0.24840469  0.29962556  1
  Se  Se200  1  0.91620497  0.23894034  0.81767980  1
  Se  Se201  1  0.90874557  0.57439158  0.30786618  1
  Se  Se202  1  0.91333205  0.57527263  0.80872355  1
  Se  Se203  1  0.91499332  0.91012223  0.31561858  1
  Se  Se204  1  0.91816698  0.92051346  0.80568419  1
  Se  Se205  1  0.09082936  0.08755466  0.31174531  1
  Se  Se206  1  0.08477056  0.08114984  0.80320513  1
  Se  Se207  1  0.09294998  0.41393144  0.30463752  1
  Se  Se208  1  0.09255349  0.41916823  0.80407651  1
  Se  Se209  1  0.09012287  0.77700198  0.29994582  1
  Se  Se210  1  0.09107597  0.75934803  0.81569432  1
  Se  Se211  1  0.41853051  0.08241783  0.30528095  1
  Se  Se212  1  0.41083615  0.08767012  0.81319316  1
  Se  Se213  1  0.41010380  0.41350524  0.29633915  1
  Se  Se214  1  0.42357567  0.41854391  0.81430646  1
  Se  Se215  1  0.42328350  0.75351440  0.30051591  1
  Se  Se216  1  0.41200776  0.73239706  0.79811444  1
  Se  Se217  1  0.75561844  0.09173643  0.30526377  1
  Se  Se218  1  0.73626201  0.06988118  0.80375479  1
  Se  Se219  1  0.74152805  0.40881012  0.29786873  1
  Se  Se220  1  0.74487668  0.41261522  0.80021380  1
  Se  Se221  1  0.74990311  0.75191367  0.31388172  1
  Se  Se222  1  0.75257209  0.75585290  0.81152384  1
  Se  Se223  1  0.25628404  0.08653069  0.19600405  1
  Se  Se224  1  0.25520149  0.07880989  0.69800914  1
  Se  Se225  1  0.22339896  0.44518143  0.19701396  1
  Se  Se226  1  0.24500161  0.41018405  0.68427876  1
  Se  Se227  1  0.25628182  0.76262486  0.20374934  1
  Se  Se228  1  0.24654649  0.74691396  0.69494796  1
  Se  Se229  1  0.56987578  0.09230680  0.18492075  1
  Se  Se230  1  0.57993520  0.08440127  0.69688847  1
  Se  Se231  1  0.58303636  0.41343081  0.19591186  1
  Se  Se232  1  0.58432515  0.40944190  0.70210726  1
  Se  Se233  1  0.58323853  0.75919996  0.18959183  1
  Se  Se234  1  0.57174888  0.75629067  0.68819564  1
  Se  Se235  1  0.91125826  0.08285639  0.18857354  1
  Se  Se236  1  0.91043879  0.11014535  0.69661439  1
  Se  Se237  1  0.91857150  0.41045502  0.19974822  1
  Se  Se238  1  0.91607283  0.42293422  0.68840136  1
  Se  Se239  1  0.92074935  0.74218062  0.20202395  1
  Se  Se240  1  0.90990624  0.75799027  0.69468936  1
  Se  Se241  1  0.08017453  0.24447816  0.19941905  1
  Se  Se242  1  0.10051184  0.24630717  0.68889502  1
  Se  Se243  1  0.06933370  0.60271377  0.20802691  1
  Se  Se244  1  0.08924481  0.57680069  0.68646601  1
  Se  Se245  1  0.09442603  0.91489104  0.18539598  1
  Se  Se246  1  0.07671206  0.91996847  0.69880267  1
  Se  Se247  1  0.41013137  0.25636577  0.19500029  1
  Se  Se248  1  0.42237793  0.24081136  0.69089273  1
  Se  Se249  1  0.42203526  0.58933451  0.19580819  1
  Se  Se250  1  0.41405302  0.57220224  0.69327516  1
  Se  Se251  1  0.42307369  0.92538056  0.19048969  1
  Se  Se252  1  0.40977472  0.92308323  0.69933841  1
  Se  Se253  1  0.74371687  0.24901445  0.19247505  1
  Se  Se254  1  0.75322752  0.25239908  0.70154060  1
  Se  Se255  1  0.75564053  0.57385340  0.18693206  1
  Se  Se256  1  0.75459668  0.57457326  0.69089985  1
  Se  Se257  1  0.76072746  0.90522483  0.19506648  1
  Se  Se258  1  0.75042247  0.92545864  0.69885792  1
