# generated using pymatgen
data_In86Cu29Se144
_symmetry_space_group_name_H-M   'P 1'
_cell_length_a   17.58466738
_cell_length_b   17.58854523
_cell_length_c   23.44094368
_cell_angle_alpha   89.98776869
_cell_angle_beta   89.98715613
_cell_angle_gamma   90.01770012
_symmetry_Int_Tables_number   1
_chemical_formula_structural   In86Cu29Se144
_chemical_formula_sum   'In86 Cu29 Se144'
_cell_volume   7250.01871638
_cell_formula_units_Z   1
loop_
 _symmetry_equiv_pos_site_id
 _symmetry_equiv_pos_as_xyz
  1  'x, y, z'
loop_
 _atom_site_type_symbol
 _atom_site_label
 _atom_site_symmetry_multiplicity
 _atom_site_fract_x
 _atom_site_fract_y
 _atom_site_fract_z
 _atom_site_occupancy
  In  In0  1  0.00414984  0.17460484  0.12104986  1
  In  In1  1  -0.01452406  0.17018916  0.62408252  1
  In  In2  1  -0.02181836  0.50697927  0.13131736  1
  In  In3  1  -0.00028538  0.50943187  0.62605062  1
  In  In4  1  -0.01512625  0.82609023  0.13123571  1
  In  In5  1  -0.00463449  0.82657461  0.61522971  1
  In  In6  1  0.32984181  0.16386433  0.12157146  1
  In  In7  1  0.34312578  0.15570210  0.63782026  1
  In  In8  1  0.34502537  0.49164368  0.12392734  1
  In  In9  1  0.34424377  0.48816281  0.63627937  1
  In  In10  1  0.35302818  0.83451418  0.12740813  1
  In  In11  1  0.33835082  0.83973203  0.61924404  1
  In  In12  1  0.64923562  0.14251918  0.10310995  1
  In  In13  1  0.67579521  0.17332514  0.62128266  1
  In  In14  1  0.67689759  0.51347595  0.11555572  1
  In  In15  1  0.65418158  0.48639826  0.61254137  1
  In  In16  1  0.65584371  0.84429531  0.13978358  1
  In  In17  1  0.66409720  0.82922767  0.59253234  1
  In  In18  1  0.16790335  -0.01465159  0.37380085  1
  In  In19  1  0.18495201  0.00337517  0.87105549  1
  In  In20  1  0.16243947  0.34599902  0.37362875  1
  In  In21  1  0.16875782  0.31758914  0.87514396  1
  In  In22  1  0.16953207  0.67986231  0.37549154  1
  In  In23  1  0.15444231  0.68092073  0.86960787  1
  In  In24  1  0.50180140  -0.00146688  0.37515891  1
  In  In25  1  0.49933595  0.01430813  0.88397390  1
  In  In26  1  0.50695749  0.32903245  0.38445521  1
  In  In27  1  0.50400142  0.33445025  0.86980867  1
  In  In28  1  0.51362160  0.66143538  0.39045778  1
  In  In29  1  0.51757880  0.66213686  0.88896231  1
  In  In30  1  0.81565835  0.00693576  0.38697156  1
  In  In31  1  0.83346539  0.00595652  0.87892491  1
  In  In32  1  0.83273062  0.32468094  0.37560021  1
  In  In33  1  0.83023569  0.33691827  0.87567875  1
  In  In34  1  0.83088711  0.66482222  0.37964940  1
  In  In35  1  0.82655620  0.65700532  0.87158787  1
  In  In36  1  -0.01698941  0.16560823  0.37060582  1
  In  In37  1  -0.00480923  0.17838704  0.88396918  1
  In  In38  1  -0.01212313  0.49213891  0.36924170  1
  In  In39  1  -0.01715882  0.50460479  0.87461075  1
  In  In40  1  0.00707897  0.82583723  0.37727266  1
  In  In41  1  0.01061644  0.83281995  0.86472966  1
  In  In42  1  0.35478827  0.16291556  0.37611455  1
  In  In43  1  0.33949666  0.16571861  0.87214402  1
  In  In44  1  0.33890637  0.50986266  0.37875073  1
  In  In45  1  0.35546714  0.49837147  0.86848886  1
  In  In46  1  0.32747919  0.83868054  0.37949361  1
  In  In47  1  0.34099616  0.84955816  0.86721012  1
  In  In48  1  0.66919747  0.15480763  0.38497589  1
  In  In49  1  0.65997449  0.16945203  0.87994558  1
  In  In50  1  0.66150761  0.51330643  0.38762867  1
  In  In51  1  0.67876975  0.50019062  0.87994123  1
  In  In52  1  0.66412532  0.83353959  0.38353992  1
  In  In53  1  0.65828126  0.82391067  0.88021019  1
  In  In54  1  0.17092208  0.01558399  0.12604601  1
  In  In55  1  0.17970279  -0.00300273  0.62710415  1
  In  In56  1  0.16633412  0.32125807  0.12350110  1
  In  In57  1  0.17209120  0.34323061  0.63275826  1
  In  In58  1  0.15440693  0.65926806  0.12588267  1
  In  In59  1  0.15612486  0.66717228  0.62738581  1
  In  In60  1  0.50130607  -0.00402902  0.12966932  1
  In  In61  1  0.49692982  -0.00870620  0.61764828  1
  In  In62  1  0.51076517  0.33524077  0.11627844  1
  In  In63  1  0.50726319  0.33319880  0.63282332  1
  In  In64  1  0.51972107  0.68548987  0.10996567  1
  In  In65  1  0.50566233  0.66577220  0.61579829  1
  In  In66  1  0.81228101  -0.00418379  0.12458833  1
  In  In67  1  0.82688476  0.00000428  0.61075897  1
  In  In68  1  0.82966884  0.33511498  0.12262775  1
  In  In69  1  0.81319643  0.31708616  0.61715441  1
  In  In70  1  0.83684664  0.66469930  0.13508005  1
  In  In71  1  0.83427354  0.66995147  0.61215372  1
  In  In72  1  0.17243218  0.49723335  0.00239252  1
  In  In73  1  -0.00560340  -0.00492609  0.25198221  1
  In  In74  1  0.17268140  0.83888034  -0.00862580  1
  In  In75  1  0.33894931  0.66917535  0.74589784  1
  In  In76  1  0.16476311  0.16478084  0.50899835  1
  In  In77  1  0.82825705  0.83348576  0.00148833  1
  In  In78  1  0.00147162  0.33741777  0.75323363  1
  In  In79  1  0.66800476  -0.00076348  0.74531161  1
  In  In80  1  0.67234033  0.32976085  0.24538853  1
  In  In81  1  -0.00197306  0.00096249  0.74222414  1
  In  In82  1  0.33017713  0.32958898  0.24666194  1
  In  In83  1  0.17006828  0.50350025  0.50831884  1
  In  In84  1  0.33422673  0.66958386  0.25248526  1
  In  In85  1  0.66604660  0.66202395  0.74370491  1
  Cu  Cu86  1  -0.00813303  0.66664075  0.00214643  1
  Cu  Cu87  1  0.16799582  0.83368723  0.25274598  1
  Cu  Cu88  1  0.83376312  0.49942746  0.74764232  1
  Cu  Cu89  1  0.82507032  0.82861457  0.25881367  1
  Cu  Cu90  1  -0.00267631  -0.00619798  0.49407348  1
  Cu  Cu91  1  0.82803214  0.16481596  0.24898487  1
  Cu  Cu92  1  0.33931215  0.67009815  0.50172276  1
  Cu  Cu93  1  0.00202704  0.66410460  0.49768308  1
  Cu  Cu94  1  0.17263634  0.50308331  0.75118175  1
  Cu  Cu95  1  0.33209327  0.00031549  0.50026977  1
  Cu  Cu96  1  0.66405172  0.33607010  0.50072430  1
  Cu  Cu97  1  0.50515490  0.83333712  0.25541370  1
  Cu  Cu98  1  0.50102959  0.16666113  0.75431568  1
  Cu  Cu99  1  0.50532425  0.15773970  0.24839103  1
  Cu  Cu100  1  0.34422212  0.33440175  0.50920441  1
  Cu  Cu101  1  0.16882724  0.16661547  0.24662773  1
  Cu  Cu102  1  0.00133694  0.01115348  0.00161027  1
  Cu  Cu103  1  0.14858307  0.50129868  0.24852126  1
  Cu  Cu104  1  0.50083940  0.83408767  0.74487860  1
  Cu  Cu105  1  0.83352097  0.83140903  0.73695360  1
  Cu  Cu106  1  0.66855000  0.33172641  -0.00425775  1
  Cu  Cu107  1  -0.00771884  0.32803990  0.49680278  1
  Cu  Cu108  1  0.50131496  0.50394753  0.25436356  1
  Cu  Cu109  1  0.34330536  0.66780651  -0.00257525  1
  Cu  Cu110  1  0.16982710  0.16068693  0.75286109  1
  Cu  Cu111  1  0.82696855  0.50188464  0.25166578  1
  Cu  Cu112  1  0.34017968  0.32564745  -0.00506129  1
  Cu  Cu113  1  0.33920171  0.00543085  -0.00101081  1
  Cu  Cu114  1  -0.00312441  0.34022603  -0.00038216  1
  Se  Se115  1  0.08884239  0.08983057  0.05404376  1
  Se  Se116  1  0.07097547  0.07083575  0.56309974  1
  Se  Se117  1  0.07508549  0.41758072  0.06387679  1
  Se  Se118  1  0.07477024  0.40452535  0.55827716  1
  Se  Se119  1  0.07695342  0.75150232  0.05464942  1
  Se  Se120  1  0.08763760  0.74650127  0.54976242  1
  Se  Se121  1  0.42049737  0.08286516  0.05921346  1
  Se  Se122  1  0.41133775  0.08390541  0.55633896  1
  Se  Se123  1  0.41802039  0.41185561  0.05023482  1
  Se  Se124  1  0.42539569  0.41930637  0.56100795  1
  Se  Se125  1  0.42030678  0.75849891  0.04817169  1
  Se  Se126  1  0.42242070  0.75575748  0.55310566  1
  Se  Se127  1  0.76665003  0.09067063  0.04947707  1
  Se  Se128  1  0.74310475  0.08517921  0.54819581  1
  Se  Se129  1  0.74897927  0.41646433  0.05203300  1
  Se  Se130  1  0.75516784  0.41769523  0.54902180  1
  Se  Se131  1  0.74679447  0.75337963  0.07225074  1
  Se  Se132  1  0.74295153  0.73029328  0.53823581  1
  Se  Se133  1  0.25290905  0.25114229  0.05187164  1
  Se  Se134  1  0.25760754  0.25593788  0.56576157  1
  Se  Se135  1  0.26194069  0.59380716  0.06080956  1
  Se  Se136  1  0.26439411  0.58957175  0.56770542  1
  Se  Se137  1  0.25794161  0.92328140  0.05958378  1
  Se  Se138  1  0.24698260  0.91569356  0.55036547  1
  Se  Se139  1  0.58076061  0.24765937  0.04478229  1
  Se  Se140  1  0.58312403  0.25308050  0.55748503  1
  Se  Se141  1  0.55996648  0.56207413  0.06060109  1
  Se  Se142  1  0.59554090  0.59209153  0.54984646  1
  Se  Se143  1  0.58428843  0.91455909  0.06094593  1
  Se  Se144  1  0.59903423  0.94351038  0.54614696  1
  Se  Se145  1  0.91682841  0.25457835  0.05470830  1
  Se  Se146  1  0.90881875  0.24451690  0.54926181  1
  Se  Se147  1  0.90699368  0.58653046  0.05489654  1
  Se  Se148  1  0.92046399  0.57845393  0.54973683  1
  Se  Se149  1  0.92481680  0.92500472  0.05962883  1
  Se  Se150  1  0.91304172  0.91188634  0.54894940  1
  Se  Se151  1  0.07992787  0.25159038  0.44009882  1
  Se  Se152  1  0.08425529  0.25438668  0.95223847  1
  Se  Se153  1  0.08373316  0.58231682  0.43787659  1
  Se  Se154  1  0.07928759  0.58959325  0.94418302  1
  Se  Se155  1  0.08677633  0.91203566  0.44694939  1
  Se  Se156  1  0.07546072  0.93024271  0.93796509  1
  Se  Se157  1  0.41880992  0.24923104  0.45136712  1
  Se  Se158  1  0.42468377  0.24687191  0.93997787  1
  Se  Se159  1  0.41935543  0.57958410  0.45297312  1
  Se  Se160  1  0.42127614  0.57851072  0.94652811  1
  Se  Se161  1  0.41524533  0.91841755  0.44545982  1
  Se  Se162  1  0.41819137  0.91841682  0.94516669  1
  Se  Se163  1  0.74639682  0.25093141  0.44644979  1
  Se  Se164  1  0.75381213  0.24892965  0.94410903  1
  Se  Se165  1  0.75555929  0.58326416  0.45373410  1
  Se  Se166  1  0.74121677  0.59968677  0.94776328  1
  Se  Se167  1  0.74510408  0.91663271  0.45418325  1
  Se  Se168  1  0.73970518  0.92401769  0.94188934  1
  Se  Se169  1  0.25139284  0.08176156  0.44017052  1
  Se  Se170  1  0.25442855  0.08669969  0.94500699  1
  Se  Se171  1  0.26069605  0.40978445  0.44727885  1
  Se  Se172  1  0.25900024  0.41097861  0.93757745  1
  Se  Se173  1  0.25137711  0.74983873  0.44984231  1
  Se  Se174  1  0.26150062  0.74280315  0.93543843  1
  Se  Se175  1  0.55407374  0.10597915  0.44089896  1
  Se  Se176  1  0.59310125  0.07948259  0.95154170  1
  Se  Se177  1  0.57926196  0.42152461  0.45038355  1
  Se  Se178  1  0.58715238  0.41548458  0.94072334  1
  Se  Se179  1  0.57199377  0.76385665  0.45417009  1
  Se  Se180  1  0.59221936  0.74688885  0.95821130  1
  Se  Se181  1  0.91642690  0.08410746  0.44643810  1
  Se  Se182  1  0.91398041  0.08856598  0.94792585  1
  Se  Se183  1  0.91233497  0.41366193  0.44357993  1
  Se  Se184  1  0.91145976  0.42104277  0.94681218  1
  Se  Se185  1  0.91962579  0.74912930  0.44508586  1
  Se  Se186  1  0.92272118  0.75070701  0.93700661  1
  Se  Se187  1  0.24468459  0.24296711  0.31453991  1
  Se  Se188  1  0.25322088  0.24739802  0.80235923  1
  Se  Se189  1  0.23865832  0.57360063  0.30736654  1
  Se  Se190  1  0.24870600  0.58423864  0.81373950  1
  Se  Se191  1  0.25482471  0.91682301  0.30064127  1
  Se  Se192  1  0.23292113  0.89916161  0.80399835  1
  Se  Se193  1  0.57929558  0.24523703  0.30770598  1
  Se  Se194  1  0.58932236  0.24849907  0.80296158  1
  Se  Se195  1  0.58224336  0.58510989  0.31041916  1
  Se  Se196  1  0.58073348  0.57711438  0.80934150  1
  Se  Se197  1  0.58830311  0.91694742  0.30846003  1
  Se  Se198  1  0.57890381  0.91210755  0.80930810  1
  Se  Se199  1  0.91199746  0.25103835  0.29803500  1
  Se  Se200  1  0.90998270  0.24286334  0.80493471  1
  Se  Se201  1  0.91157082  0.58483993  0.30529412  1
  Se  Se202  1  0.91457973  0.58729955  0.79871277  1
  Se  Se203  1  0.90650007  0.91263404  0.31768519  1
  Se  Se204  1  0.90444062  0.91124288  0.80418521  1
  Se  Se205  1  0.08846366  0.08737649  0.30968783  1
  Se  Se206  1  0.08107347  0.08896040  0.81221021  1
  Se  Se207  1  0.07397468  0.41040275  0.30079314  1
  Se  Se208  1  0.09151325  0.42685053  0.81600130  1
  Se  Se209  1  0.08371877  0.74792538  0.30099860  1
  Se  Se210  1  0.07285626  0.74326838  0.79273994  1
  Se  Se211  1  0.41781367  0.07807527  0.30045811  1
  Se  Se212  1  0.41920892  0.07741038  0.80372334  1
  Se  Se213  1  0.42073305  0.41911445  0.30970745  1
  Se  Se214  1  0.41849997  0.40939381  0.79744970  1
  Se  Se215  1  0.42402203  0.75222557  0.31624391  1
  Se  Se216  1  0.43245332  0.75099655  0.81136078  1
  Se  Se217  1  0.74773338  0.08408139  0.30673845  1
  Se  Se218  1  0.75367161  0.08885678  0.80757268  1
  Se  Se219  1  0.74741213  0.42313249  0.31342188  1
  Se  Se220  1  0.75216722  0.41946539  0.80420466  1
  Se  Se221  1  0.74269551  0.74628350  0.31326257  1
  Se  Se222  1  0.75329990  0.75921757  0.80398875  1
  Se  Se223  1  0.25748663  0.08429773  0.19942114  1
  Se  Se224  1  0.25296291  0.07487131  0.70273804  1
  Se  Se225  1  0.23810028  0.42664669  0.19077126  1
  Se  Se226  1  0.25571232  0.41406587  0.70619640  1
  Se  Se227  1  0.24344368  0.75529610  0.18620867  1
  Se  Se228  1  0.24695386  0.75721763  0.68891584  1
  Se  Se229  1  0.59176272  0.08061130  0.19381451  1
  Se  Se230  1  0.57562077  0.08840532  0.68768826  1
  Se  Se231  1  0.57949963  0.42437853  0.19208172  1
  Se  Se232  1  0.59277135  0.41869246  0.69737942  1
  Se  Se233  1  0.58051189  0.74347606  0.20055290  1
  Se  Se234  1  0.58568404  0.76271967  0.68324867  1
  Se  Se235  1  0.91158474  0.08559793  0.18797377  1
  Se  Se236  1  0.89745917  0.08746028  0.69115814  1
  Se  Se237  1  0.90664801  0.41352169  0.19876602  1
  Se  Se238  1  0.91089901  0.41597002  0.68622235  1
  Se  Se239  1  0.91422009  0.74883381  0.20754432  1
  Se  Se240  1  0.91529569  0.74508356  0.68693625  1
  Se  Se241  1  0.08279702  0.25025750  0.19783235  1
  Se  Se242  1  0.08928290  0.23973119  0.69151784  1
  Se  Se243  1  0.06880103  0.58828264  0.19688979  1
  Se  Se244  1  0.08429899  0.58052408  0.69945404  1
  Se  Se245  1  0.08881209  0.91107667  0.18787659  1
  Se  Se246  1  0.08595357  0.90785323  0.68661808  1
  Se  Se247  1  0.42913573  0.24604434  0.19009382  1
  Se  Se248  1  0.41778554  0.25127048  0.70013422  1
  Se  Se249  1  0.42367613  0.58249793  0.19115167  1
  Se  Se250  1  0.43667484  0.57965210  0.69499840  1
  Se  Se251  1  0.41939428  0.91606224  0.20342471  1
  Se  Se252  1  0.41671177  0.91798005  0.69401822  1
  Se  Se253  1  0.74676434  0.23321201  0.18138973  1
  Se  Se254  1  0.74363834  0.25274180  0.69937806  1
  Se  Se255  1  0.74300016  0.58473914  0.19873470  1
  Se  Se256  1  0.75638598  0.57597525  0.68268142  1
  Se  Se257  1  0.74982688  0.91899055  0.20603937  1
  Se  Se258  1  0.74706098  0.90445520  0.67895944  1
