# generated using pymatgen
data_In86Cu29Se144
_symmetry_space_group_name_H-M   'P 1'
_cell_length_a   17.58643754
_cell_length_b   17.58324456
_cell_length_c   23.44732684
_cell_angle_alpha   90.01155829
_cell_angle_beta   90.02828076
_cell_angle_gamma   89.98677694
_symmetry_Int_Tables_number   1
_chemical_formula_structural   In86Cu29Se144
_chemical_formula_sum   'In86 Cu29 Se144'
_cell_volume   7250.53669051
_cell_formula_units_Z   1
loop_
 _symmetry_equiv_pos_site_id
 _symmetry_equiv_pos_as_xyz
  1  'x, y, z'
loop_
 _atom_site_type_symbol
 _atom_site_label
 _atom_site_symmetry_multiplicity
 _atom_site_fract_x
 _atom_site_fract_y
 _atom_site_fract_z
 _atom_site_occupancy
  In  In0  1  0.00347719  0.16995105  0.11956724  1
  In  In1  1  -0.00508696  0.17104098  0.63540586  1
  In  In2  1  0.00671505  0.49739751  0.12333840  1
  In  In3  1  -0.00232894  0.49207518  0.62306520  1
  In  In4  1  0.00237257  0.83520858  0.13642948  1
  In  In5  1  0.01132913  0.84219352  0.61317064  1
  In  In6  1  0.34565744  0.17801552  0.11559445  1
  In  In7  1  0.33436590  0.15940963  0.62449275  1
  In  In8  1  0.33150614  0.49745751  0.12318261  1
  In  In9  1  0.34528813  0.51113482  0.62605336  1
  In  In10  1  0.33847110  0.82104262  0.13183317  1
  In  In11  1  0.31872493  0.83044973  0.62084397  1
  In  In12  1  0.66914125  0.16710808  0.11491821  1
  In  In13  1  0.66372448  0.18046475  0.63191056  1
  In  In14  1  0.67254089  0.50761458  0.12396672  1
  In  In15  1  0.65818462  0.49617148  0.62690932  1
  In  In16  1  0.65146361  0.82959394  0.13055137  1
  In  In17  1  0.66390136  0.81918871  0.61807945  1
  In  In18  1  0.15114720  0.00259567  0.37474245  1
  In  In19  1  0.16563531  0.01867783  0.88046673  1
  In  In20  1  0.17777842  0.34626197  0.36584014  1
  In  In21  1  0.16077359  0.33572879  0.88576640  1
  In  In22  1  0.16570161  0.66032385  0.37844148  1
  In  In23  1  0.16519609  0.64912902  0.87797050  1
  In  In24  1  0.51501957  0.00484260  0.37772071  1
  In  In25  1  0.48260312  0.00319208  0.88961344  1
  In  In26  1  0.49646007  0.34459362  0.38079908  1
  In  In27  1  0.50912697  0.33061861  0.87535485  1
  In  In28  1  0.48241092  0.65742003  0.35707365  1
  In  In29  1  0.49292819  0.67420023  0.88149275  1
  In  In30  1  0.83388189  -0.01038040  0.37502172  1
  In  In31  1  0.85144834  0.00208220  0.86865584  1
  In  In32  1  0.84178415  0.32334394  0.37020919  1
  In  In33  1  0.83006772  0.33292072  0.88147361  1
  In  In34  1  0.84641797  0.67895270  0.36479999  1
  In  In35  1  0.82240474  0.65843569  0.87690330  1
  In  In36  1  0.00142598  0.17123842  0.36120270  1
  In  In37  1  0.00007011  0.17292644  0.88266134  1
  In  In38  1  0.02054314  0.51682238  0.36102921  1
  In  In39  1  0.01230358  0.47436220  0.89992117  1
  In  In40  1  -0.00123056  0.83047734  0.37960172  1
  In  In41  1  -0.00954104  0.83436745  0.87215209  1
  In  In42  1  0.33653978  0.18401995  0.37045532  1
  In  In43  1  0.33023217  0.16681593  0.88722676  1
  In  In44  1  0.33187760  0.50045764  0.37311000  1
  In  In45  1  0.33135494  0.50530490  0.87856968  1
  In  In46  1  0.33373942  0.81053480  0.37003828  1
  In  In47  1  0.34257496  0.83834167  0.87864135  1
  In  In48  1  0.66162909  0.15270009  0.37683724  1
  In  In49  1  0.64601157  0.18536945  0.87980988  1
  In  In50  1  0.64965827  0.49711037  0.37438067  1
  In  In51  1  0.67519610  0.49397564  0.88418498  1
  In  In52  1  0.67789706  0.83689119  0.37391616  1
  In  In53  1  0.65589718  0.82093599  0.87421616  1
  In  In54  1  0.15711148  -0.00425823  0.12578952  1
  In  In55  1  0.17157268  -0.01108093  0.62320926  1
  In  In56  1  0.16298288  0.34069850  0.11882669  1
  In  In57  1  0.15499518  0.33354075  0.62735879  1
  In  In58  1  0.17749455  0.65809561  0.13398826  1
  In  In59  1  0.17304819  0.67497336  0.61716060  1
  In  In60  1  0.49688314  0.00185366  0.11045378  1
  In  In61  1  0.49460822  0.00297104  0.62061321  1
  In  In62  1  0.49038953  0.32830850  0.11900024  1
  In  In63  1  0.50410407  0.34368301  0.62858419  1
  In  In64  1  0.49952746  0.66199451  0.12911369  1
  In  In65  1  0.49814844  0.64780252  0.62545265  1
  In  In66  1  0.83869937  0.01361424  0.12149881  1
  In  In67  1  0.84353316  0.00894608  0.62566880  1
  In  In68  1  0.85950124  0.34999374  0.10086918  1
  In  In69  1  0.83827839  0.33315929  0.63560328  1
  In  In70  1  0.84220673  0.65973572  0.13665108  1
  In  In71  1  0.82626713  0.66767157  0.61534370  1
  In  In72  1  0.83854282  0.50408189  0.49598196  1
  In  In73  1  0.66532317  0.66065378  0.74543303  1
  In  In74  1  0.82684305  0.16522169  0.50334939  1
  In  In75  1  0.50061490  0.83023371  0.49160158  1
  In  In76  1  -0.00294201  0.65912008  0.74967630  1
  In  In77  1  0.17310264  0.83250383  0.01044397  1
  In  In78  1  0.66525636  0.00347288  0.75001752  1
  In  In79  1  0.32604307  0.00344751  0.75984422  1
  In  In80  1  0.67266001  -0.00341004  0.25177527  1
  In  In81  1  0.33293103  -0.00095456  0.24255642  1
  In  In82  1  0.82569910  0.83011807  -0.00184870  1
  In  In83  1  0.67171761  0.33290753  0.24586069  1
  In  In84  1  0.16919906  0.16720626  0.50075417  1
  In  In85  1  0.33715935  0.33626813  0.75629096  1
  Cu  Cu86  1  0.66812717  0.66682861  0.49424662  1
  Cu  Cu87  1  0.16534440  0.17384382  0.24459588  1
  Cu  Cu88  1  0.33278584  0.34139038  -0.00078465  1
  Cu  Cu89  1  0.00812517  0.33946939  0.49711057  1
  Cu  Cu90  1  -0.00205577  0.65587166  0.00807293  1
  Cu  Cu91  1  0.50173783  0.16957310  0.24414079  1
  Cu  Cu92  1  0.83955725  0.83340787  0.25259829  1
  Cu  Cu93  1  0.66085266  0.33124083  0.00027887  1
  Cu  Cu94  1  0.83930030  0.83702935  0.74257270  1
  Cu  Cu95  1  0.65974515  0.33434240  0.50453562  1
  Cu  Cu96  1  0.16781428  0.49907726  0.24693310  1
  Cu  Cu97  1  0.83605369  0.49936241  0.24314934  1
  Cu  Cu98  1  0.48780637  0.83434635  0.75531139  1
  Cu  Cu99  1  0.15190416  0.17092262  0.75644691  1
  Cu  Cu100  1  0.16550065  0.49506387  0.75749189  1
  Cu  Cu101  1  0.33915430  0.34109979  0.49666955  1
  Cu  Cu102  1  0.00279439  0.00352826  -0.00042906  1
  Cu  Cu103  1  0.66015167  0.66350987  0.00353222  1
  Cu  Cu104  1  0.33447061  0.65870498  0.49584346  1
  Cu  Cu105  1  0.84356852  0.17268294  0.23886821  1
  Cu  Cu106  1  0.48969552  0.49687641  0.24892131  1
  Cu  Cu107  1  0.33400172  -0.00126854  0.49904626  1
  Cu  Cu108  1  -0.00393266  -0.00273062  0.49971615  1
  Cu  Cu109  1  0.83878855  0.49053316  0.75863332  1
  Cu  Cu110  1  0.16238108  0.83187501  0.25581573  1
  Cu  Cu111  1  0.83498690  0.17025243  0.75797817  1
  Cu  Cu112  1  0.33409149  0.66228116  0.00671110  1
  Cu  Cu113  1  0.16241927  0.83088490  0.74268087  1
  Cu  Cu114  1  0.66663522  -0.00194368  -0.00403399  1
  Se  Se115  1  0.08904780  0.08262559  0.05275071  1
  Se  Se116  1  0.07399231  0.08132383  0.56138532  1
  Se  Se117  1  0.07214313  0.41040289  0.04831544  1
  Se  Se118  1  0.08858413  0.42060246  0.55273144  1
  Se  Se119  1  0.07653137  0.74212719  0.06475425  1
  Se  Se120  1  0.08488740  0.74995587  0.55021730  1
  Se  Se121  1  0.42130361  0.09167390  0.04663135  1
  Se  Se122  1  0.41424602  0.08458233  0.55028866  1
  Se  Se123  1  0.41886324  0.42236429  0.05201834  1
  Se  Se124  1  0.41912318  0.42001532  0.55738126  1
  Se  Se125  1  0.41807195  0.74651205  0.05762780  1
  Se  Se126  1  0.41399638  0.74272013  0.55751511  1
  Se  Se127  1  0.75091304  0.07986962  0.04857294  1
  Se  Se128  1  0.73702058  0.07916166  0.56468238  1
  Se  Se129  1  0.74222265  0.41489864  0.05456882  1
  Se  Se130  1  0.75219633  0.41034909  0.55897617  1
  Se  Se131  1  0.74452076  0.74201853  0.06425944  1
  Se  Se132  1  0.75101367  0.75289475  0.54414834  1
  Se  Se133  1  0.25149742  0.25610760  0.05292919  1
  Se  Se134  1  0.25890591  0.26159622  0.55944621  1
  Se  Se135  1  0.24478728  0.58046769  0.05475687  1
  Se  Se136  1  0.25387037  0.58062298  0.55597693  1
  Se  Se137  1  0.26442766  0.92320844  0.06641519  1
  Se  Se138  1  0.24733418  0.91447571  0.54666428  1
  Se  Se139  1  0.57711679  0.24657908  0.05222971  1
  Se  Se140  1  0.57854035  0.25181292  0.55895484  1
  Se  Se141  1  0.57833423  0.57868835  0.05660132  1
  Se  Se142  1  0.59109020  0.58466666  0.55330627  1
  Se  Se143  1  0.58914957  0.91450744  0.05298134  1
  Se  Se144  1  0.58608103  0.91944939  0.55633894  1
  Se  Se145  1  0.90082089  0.22683423  0.05180100  1
  Se  Se146  1  0.92513627  0.25918190  0.55596295  1
  Se  Se147  1  0.90978529  0.57826496  0.06001734  1
  Se  Se148  1  0.92944459  0.59372191  0.55504874  1
  Se  Se149  1  0.92425995  0.91566655  0.05629585  1
  Se  Se150  1  0.90976188  0.91895116  0.55407363  1
  Se  Se151  1  0.08272463  0.25464439  0.43635031  1
  Se  Se152  1  0.09992733  0.23331955  0.94995185  1
  Se  Se153  1  0.08513262  0.57560663  0.44714783  1
  Se  Se154  1  0.08683527  0.57942626  0.95489664  1
  Se  Se155  1  0.08325418  0.91715907  0.44801233  1
  Se  Se156  1  0.07931877  0.91406952  0.94299229  1
  Se  Se157  1  0.41903642  0.25152321  0.44655171  1
  Se  Se158  1  0.41620718  0.25840069  0.94489625  1
  Se  Se159  1  0.42112717  0.58186982  0.44058673  1
  Se  Se160  1  0.41723020  0.58338936  0.94878565  1
  Se  Se161  1  0.40776405  0.92047430  0.43251583  1
  Se  Se162  1  0.42057054  0.90435575  0.95568348  1
  Se  Se163  1  0.74007343  0.25927628  0.44080701  1
  Se  Se164  1  0.74488474  0.24689942  0.94769689  1
  Se  Se165  1  0.74673710  0.58680525  0.43219470  1
  Se  Se166  1  0.75052301  0.58377803  0.95397450  1
  Se  Se167  1  0.73213287  0.93813819  0.44224208  1
  Se  Se168  1  0.74437099  0.92071167  0.93154530  1
  Se  Se169  1  0.25740941  0.08099443  0.43568253  1
  Se  Se170  1  0.26690762  0.06429759  0.95032578  1
  Se  Se171  1  0.24989003  0.41898367  0.44515625  1
  Se  Se172  1  0.24780404  0.42372721  0.94695987  1
  Se  Se173  1  0.25127406  0.74585711  0.44661563  1
  Se  Se174  1  0.25352515  0.74149324  0.94345054  1
  Se  Se175  1  0.57793163  0.09021064  0.45237114  1
  Se  Se176  1  0.58217271  0.08292392  0.94514277  1
  Se  Se177  1  0.57946142  0.42192155  0.45308440  1
  Se  Se178  1  0.58005675  0.41858773  0.94819450  1
  Se  Se179  1  0.58534773  0.73888055  0.43005280  1
  Se  Se180  1  0.58024677  0.75173617  0.95211894  1
  Se  Se181  1  0.92506079  0.08621367  0.43969167  1
  Se  Se182  1  0.91473505  0.08198505  0.94727825  1
  Se  Se183  1  0.92553760  0.41320570  0.43474027  1
  Se  Se184  1  0.90107318  0.41862262  0.95540782  1
  Se  Se185  1  0.90345698  0.75904477  0.44561933  1
  Se  Se186  1  0.92364211  0.73709060  0.94403356  1
  Se  Se187  1  0.25155763  0.25390675  0.29796961  1
  Se  Se188  1  0.24299522  0.24422094  0.81188842  1
  Se  Se189  1  0.24798573  0.58270004  0.30458418  1
  Se  Se190  1  0.25051490  0.58275559  0.80336974  1
  Se  Se191  1  0.24625848  0.91539218  0.31175917  1
  Se  Se192  1  0.23526644  0.90749686  0.81318926  1
  Se  Se193  1  0.58144893  0.24552472  0.30889883  1
  Se  Se194  1  0.58074303  0.25403357  0.79722184  1
  Se  Se195  1  0.58059666  0.57728403  0.29813088  1
  Se  Se196  1  0.58482138  0.58376743  0.81765947  1
  Se  Se197  1  0.57564082  0.90799158  0.30513026  1
  Se  Se198  1  0.57134237  0.91494579  0.81113768  1
  Se  Se199  1  0.92359154  0.25859573  0.29276652  1
  Se  Se200  1  0.91740398  0.25380082  0.81206206  1
  Se  Se201  1  0.91724580  0.58286930  0.29932723  1
  Se  Se202  1  0.91720529  0.57206970  0.81837496  1
  Se  Se203  1  0.92190526  0.91749253  0.30611310  1
  Se  Se204  1  0.92402435  0.91722985  0.79563251  1
  Se  Se205  1  0.08653484  0.08574117  0.29734189  1
  Se  Se206  1  0.07426991  0.08271423  0.80909414  1
  Se  Se207  1  0.08199868  0.41266919  0.29723656  1
  Se  Se208  1  0.08162091  0.41532341  0.81223126  1
  Se  Se209  1  0.08259773  0.74773435  0.31121888  1
  Se  Se210  1  0.08856802  0.75139925  0.80966611  1
  Se  Se211  1  0.42439401  0.08778772  0.30666661  1
  Se  Se212  1  0.42145756  0.09474775  0.81086959  1
  Se  Se213  1  0.41258260  0.41112539  0.30490322  1
  Se  Se214  1  0.42699703  0.42858883  0.81105106  1
  Se  Se215  1  0.41685802  0.75505881  0.29129976  1
  Se  Se216  1  0.40863000  0.74715183  0.80659350  1
  Se  Se217  1  0.76419186  0.09615298  0.30409621  1
  Se  Se218  1  0.75116867  0.08964684  0.81521714  1
  Se  Se219  1  0.75783587  0.42405604  0.31007049  1
  Se  Se220  1  0.74765381  0.41351603  0.80855290  1
  Se  Se221  1  0.74921017  0.75250679  0.30045587  1
  Se  Se222  1  0.75879439  0.75737045  0.80297751  1
  Se  Se223  1  0.24694509  0.09417980  0.18468060  1
  Se  Se224  1  0.23462362  0.09280123  0.69523621  1
  Se  Se225  1  0.24876349  0.41466349  0.19235370  1
  Se  Se226  1  0.24563627  0.42034618  0.69223928  1
  Se  Se227  1  0.24810555  0.75176392  0.20194268  1
  Se  Se228  1  0.25044859  0.74706792  0.69614013  1
  Se  Se229  1  0.58247312  0.08592846  0.18904214  1
  Se  Se230  1  0.56950436  0.08970904  0.69362446  1
  Se  Se231  1  0.57537518  0.41947513  0.18905383  1
  Se  Se232  1  0.59166989  0.41371825  0.70088917  1
  Se  Se233  1  0.58390978  0.74080684  0.19970629  1
  Se  Se234  1  0.56980501  0.75746000  0.69315722  1
  Se  Se235  1  0.92653921  0.08176685  0.19309927  1
  Se  Se236  1  0.91521334  0.08478803  0.70306940  1
  Se  Se237  1  0.91718414  0.41485130  0.19023289  1
  Se  Se238  1  0.92531656  0.41550636  0.70078671  1
  Se  Se239  1  0.92344737  0.74722315  0.20225681  1
  Se  Se240  1  0.91473155  0.75097052  0.68472347  1
  Se  Se241  1  0.08246008  0.25477062  0.18934199  1
  Se  Se242  1  0.07577699  0.25821527  0.70152221  1
  Se  Se243  1  0.08110554  0.58286795  0.19630341  1
  Se  Se244  1  0.09248600  0.57552402  0.69017507  1
  Se  Se245  1  0.08415119  0.92034989  0.20334700  1
  Se  Se246  1  0.08127430  0.91880787  0.69339772  1
  Se  Se247  1  0.41461053  0.25312651  0.19652581  1
  Se  Se248  1  0.41849167  0.24401642  0.69158428  1
  Se  Se249  1  0.40842804  0.58204652  0.19518568  1
  Se  Se250  1  0.42180253  0.58191793  0.70341033  1
  Se  Se251  1  0.43285427  0.91412078  0.18998561  1
  Se  Se252  1  0.41215646  0.91434531  0.69149154  1
  Se  Se253  1  0.75991576  0.25049536  0.18092814  1
  Se  Se254  1  0.75314237  0.25139657  0.70158689  1
  Se  Se255  1  0.74572864  0.58502272  0.20091248  1
  Se  Se256  1  0.76610145  0.57164092  0.69204048  1
  Se  Se257  1  0.76258385  0.91050766  0.18634022  1
  Se  Se258  1  0.74920042  0.90950220  0.68635606  1
