# generated using pymatgen
data_In86Cu29Se144
_symmetry_space_group_name_H-M   'P 1'
_cell_length_a   17.58119845
_cell_length_b   17.58605503
_cell_length_c   23.44533612
_cell_angle_alpha   90.00487925
_cell_angle_beta   90.00831077
_cell_angle_gamma   90.00465228
_symmetry_Int_Tables_number   1
_chemical_formula_structural   In86Cu29Se144
_chemical_formula_sum   'In86 Cu29 Se144'
_cell_volume   7248.92088308
_cell_formula_units_Z   1
loop_
 _symmetry_equiv_pos_site_id
 _symmetry_equiv_pos_as_xyz
  1  'x, y, z'
loop_
 _atom_site_type_symbol
 _atom_site_label
 _atom_site_symmetry_multiplicity
 _atom_site_fract_x
 _atom_site_fract_y
 _atom_site_fract_z
 _atom_site_occupancy
  In  In0  1  -0.00103123  0.17266095  0.12619526  1
  In  In1  1  -0.01274999  0.15446943  0.62214718  1
  In  In2  1  -0.02109847  0.50011392  0.12937012  1
  In  In3  1  -0.00343774  0.49596490  0.60766992  1
  In  In4  1  -0.00667431  0.84627029  0.13253926  1
  In  In5  1  0.00413723  0.84368807  0.62564655  1
  In  In6  1  0.32509457  0.15612858  0.11556133  1
  In  In7  1  0.32593412  0.17718628  0.62863914  1
  In  In8  1  0.34564187  0.50327344  0.13252979  1
  In  In9  1  0.33214201  0.49128948  0.61699913  1
  In  In10  1  0.32684296  0.84403711  0.13773785  1
  In  In11  1  0.34133696  0.82707504  0.62159139  1
  In  In12  1  0.65828837  0.16536681  0.10999525  1
  In  In13  1  0.68667856  0.18000506  0.62601582  1
  In  In14  1  0.67675846  0.49960573  0.12887641  1
  In  In15  1  0.66728016  0.49602524  0.62632184  1
  In  In16  1  0.68238896  0.82464692  0.13744881  1
  In  In17  1  0.65211724  0.83568821  0.62053785  1
  In  In18  1  0.16838613  0.00758238  0.36837872  1
  In  In19  1  0.17370515  0.01126663  0.86962783  1
  In  In20  1  0.16136287  0.33247614  0.37775774  1
  In  In21  1  0.16242201  0.31802522  0.87322732  1
  In  In22  1  0.16219868  0.64794131  0.37695555  1
  In  In23  1  0.17106310  0.67100444  0.87421474  1
  In  In24  1  0.49600697  -0.01207286  0.37140183  1
  In  In25  1  0.50100788  0.01333510  0.87408940  1
  In  In26  1  0.51569302  0.33925436  0.38037041  1
  In  In27  1  0.49307733  0.32875352  0.86030198  1
  In  In28  1  0.50621891  0.67115574  0.38086016  1
  In  In29  1  0.51104180  0.64920892  0.86944571  1
  In  In30  1  0.84121115  0.00290927  0.35940791  1
  In  In31  1  0.83891647  -0.00285186  0.88153971  1
  In  In32  1  0.83679756  0.32678523  0.37993983  1
  In  In33  1  0.82406902  0.33679018  0.88760212  1
  In  In34  1  0.82057957  0.67026927  0.37989542  1
  In  In35  1  0.81866781  0.67401306  0.87813070  1
  In  In36  1  -0.00185537  0.16283285  0.36832593  1
  In  In37  1  0.00755548  0.16141790  0.88436584  1
  In  In38  1  0.01098647  0.49155982  0.38723684  1
  In  In39  1  -0.00948270  0.48587406  0.87313602  1
  In  In40  1  -0.01543047  0.84708779  0.36600319  1
  In  In41  1  -0.01892130  0.83730089  0.87899615  1
  In  In42  1  0.32634126  0.15102820  0.36978718  1
  In  In43  1  0.33395182  0.16680560  0.87120167  1
  In  In44  1  0.32766422  0.50762532  0.38036032  1
  In  In45  1  0.35336416  0.48906941  0.86753152  1
  In  In46  1  0.34522329  0.84002899  0.37330502  1
  In  In47  1  0.31887733  0.83599216  0.87516496  1
  In  In48  1  0.68249416  0.17123644  0.37374511  1
  In  In49  1  0.66123968  0.17215831  0.88706789  1
  In  In50  1  0.65757483  0.52462631  0.40082835  1
  In  In51  1  0.66770200  0.50711906  0.86149652  1
  In  In52  1  0.66295504  0.82029289  0.36195817  1
  In  In53  1  0.67846461  0.83968985  0.87391512  1
  In  In54  1  0.14646560  0.03083505  0.14913521  1
  In  In55  1  0.15616101  0.01221836  0.62880404  1
  In  In56  1  0.16366505  0.31153284  0.12468605  1
  In  In57  1  0.17434255  0.33732909  0.61799866  1
  In  In58  1  0.16582869  0.67598892  0.13296565  1
  In  In59  1  0.17320851  0.66347172  0.61518639  1
  In  In60  1  0.49486714  0.00696145  0.12827751  1
  In  In61  1  0.49720202  -0.01300319  0.62510738  1
  In  In62  1  0.51589784  0.32599077  0.12169585  1
  In  In63  1  0.49432249  0.34493178  0.63929090  1
  In  In64  1  0.49955069  0.67361309  0.13724657  1
  In  In65  1  0.51333584  0.66875820  0.61441131  1
  In  In66  1  0.83216751  0.00100331  0.12552418  1
  In  In67  1  0.83654311  0.02076759  0.62627475  1
  In  In68  1  0.83293623  0.34320137  0.11806600  1
  In  In69  1  0.82604280  0.32458885  0.62641708  1
  In  In70  1  0.82009013  0.65451059  0.12254909  1
  In  In71  1  0.82397279  0.65060175  0.61512686  1
  In  In72  1  0.33065441  0.33106178  0.25347381  1
  In  In73  1  0.67675707  0.33695618  0.24990927  1
  In  In74  1  0.66453693  0.00416001  0.75052721  1
  In  In75  1  0.16776197  0.83007050  0.49567726  1
  In  In76  1  0.50603967  0.49192208  -0.00341608  1
  In  In77  1  0.50324832  0.83772781  0.00319779  1
  In  In78  1  -0.00113216  0.66606989  0.25774648  1
  In  In79  1  0.49832267  0.16958913  0.50028314  1
  In  In80  1  0.82758842  0.83425546  0.48848355  1
  In  In81  1  -0.00269506  0.67208210  0.73920255  1
  In  In82  1  -0.00312726  0.32582856  0.74996326  1
  In  In83  1  0.16054710  0.49873109  -0.00525380  1
  In  In84  1  0.33718677  0.66819188  0.73998143  1
  In  In85  1  0.15434091  0.84798420  0.01832685  1
  Cu  Cu86  1  0.17567547  0.49799865  0.74128220  1
  Cu  Cu87  1  0.33672832  0.32436125  -0.00581126  1
  Cu  Cu88  1  0.83220073  0.50287215  0.74890517  1
  Cu  Cu89  1  0.82719330  0.83484103  0.75248713  1
  Cu  Cu90  1  0.33305764  0.33141742  0.49996240  1
  Cu  Cu91  1  -0.01625173  0.66238832  0.00014671  1
  Cu  Cu92  1  0.50727086  0.83242963  0.25268038  1
  Cu  Cu93  1  0.15934660  0.84728143  0.75119350  1
  Cu  Cu94  1  0.67302621  -0.00257121  0.00167354  1
  Cu  Cu95  1  0.18182811  0.83208198  0.25522450  1
  Cu  Cu96  1  0.17043558  0.16843428  0.74898821  1
  Cu  Cu97  1  0.00214030  0.32131639  0.50002301  1
  Cu  Cu98  1  0.49910975  0.16270301  0.24576642  1
  Cu  Cu99  1  -0.00000156  0.00228695  0.00836821  1
  Cu  Cu100  1  0.50320930  0.51219762  0.25987510  1
  Cu  Cu101  1  0.67352907  0.33984614  0.50466852  1
  Cu  Cu102  1  0.49331894  0.82785801  0.74433871  1
  Cu  Cu103  1  0.32999215  0.66799984  0.00539781  1
  Cu  Cu104  1  0.66790692  0.00294470  0.49991213  1
  Cu  Cu105  1  -0.00612691  0.00844839  0.49576125  1
  Cu  Cu106  1  0.33453164  0.01201798  0.00080058  1
  Cu  Cu107  1  -0.00272999  0.33273055  0.00152376  1
  Cu  Cu108  1  0.83110280  0.49336771  0.25642672  1
  Cu  Cu109  1  0.83744668  0.16573984  0.24692952  1
  Cu  Cu110  1  0.49955313  0.16235244  0.75029586  1
  Cu  Cu111  1  0.66778231  0.66294739  0.00016757  1
  Cu  Cu112  1  0.34086040  0.66114318  0.50009442  1
  Cu  Cu113  1  0.16488555  0.49255798  0.25751290  1
  Cu  Cu114  1  0.32926403  -0.00092630  0.49553662  1
  Se  Se115  1  0.08588581  0.08665667  0.05829229  1
  Se  Se116  1  0.08034647  0.08570003  0.55136913  1
  Se  Se117  1  0.07686882  0.41516153  0.06325505  1
  Se  Se118  1  0.08642359  0.41104718  0.54783794  1
  Se  Se119  1  0.06604617  0.73890182  0.06195341  1
  Se  Se120  1  0.07288328  0.74631378  0.55676895  1
  Se  Se121  1  0.42658045  0.08969949  0.05091347  1
  Se  Se122  1  0.40861381  0.07781275  0.55952792  1
  Se  Se123  1  0.40894232  0.40723986  0.05817130  1
  Se  Se124  1  0.42186117  0.40768599  0.55376195  1
  Se  Se125  1  0.40847981  0.74998727  0.06328440  1
  Se  Se126  1  0.42117935  0.75027488  0.55021923  1
  Se  Se127  1  0.75554901  0.08398199  0.05223604  1
  Se  Se128  1  0.74901178  0.08749820  0.55233214  1
  Se  Se129  1  0.73213408  0.41029755  0.05457126  1
  Se  Se130  1  0.76071879  0.41977537  0.55739514  1
  Se  Se131  1  0.74720728  0.74832553  0.05496280  1
  Se  Se132  1  0.74048085  0.74909294  0.55448260  1
  Se  Se133  1  0.24930486  0.24765454  0.04865653  1
  Se  Se134  1  0.24890819  0.24531818  0.54931632  1
  Se  Se135  1  0.25039758  0.58458697  0.06204086  1
  Se  Se136  1  0.25246722  0.57836763  0.54854011  1
  Se  Se137  1  0.25651025  0.93533064  0.06535037  1
  Se  Se138  1  0.25035415  0.92149817  0.56036361  1
  Se  Se139  1  0.59054887  0.26163881  0.04277942  1
  Se  Se140  1  0.58799279  0.25691620  0.56079984  1
  Se  Se141  1  0.58168235  0.59107397  0.06155290  1
  Se  Se142  1  0.58868931  0.57482735  0.55269314  1
  Se  Se143  1  0.59396506  0.91969568  0.06582349  1
  Se  Se144  1  0.57977757  0.92070953  0.54790021  1
  Se  Se145  1  0.91424853  0.25070478  0.05558973  1
  Se  Se146  1  0.91372361  0.24752610  0.55650079  1
  Se  Se147  1  0.90523834  0.57473624  0.05227970  1
  Se  Se148  1  0.92358974  0.59356723  0.54823597  1
  Se  Se149  1  0.91529659  0.91505796  0.05519406  1
  Se  Se150  1  0.91530205  0.92469127  0.55497788  1
  Se  Se151  1  0.08164106  0.24084120  0.44154705  1
  Se  Se152  1  0.08641947  0.25121811  0.95224983  1
  Se  Se153  1  0.08503813  0.58281554  0.45466607  1
  Se  Se154  1  0.06906672  0.59355415  0.93616044  1
  Se  Se155  1  0.07387419  0.92209257  0.44038843  1
  Se  Se156  1  0.07777007  0.92505072  0.94069995  1
  Se  Se157  1  0.40893202  0.25436166  0.43339434  1
  Se  Se158  1  0.42193565  0.24852153  0.93786532  1
  Se  Se159  1  0.42364820  0.57891497  0.44543705  1
  Se  Se160  1  0.40901452  0.58992772  0.94375127  1
  Se  Se161  1  0.41971680  0.91635435  0.45052284  1
  Se  Se162  1  0.40690327  0.92253612  0.94248822  1
  Se  Se163  1  0.75030689  0.25022693  0.45146636  1
  Se  Se164  1  0.75895533  0.23830512  0.95286655  1
  Se  Se165  1  0.77251539  0.57640808  0.45642349  1
  Se  Se166  1  0.74388650  0.57859566  0.94204183  1
  Se  Se167  1  0.74227348  0.92908701  0.43129376  1
  Se  Se168  1  0.75496367  0.91192205  0.94966555  1
  Se  Se169  1  0.24412522  0.08287178  0.44655126  1
  Se  Se170  1  0.24914539  0.08942689  0.94424898  1
  Se  Se171  1  0.25035515  0.41352781  0.44333839  1
  Se  Se172  1  0.25916745  0.41246758  0.93711024  1
  Se  Se173  1  0.25978120  0.74025391  0.43756072  1
  Se  Se174  1  0.24437152  0.75184483  0.95386235  1
  Se  Se175  1  0.58744942  0.08329470  0.43698582  1
  Se  Se176  1  0.58317815  0.07685377  0.95105287  1
  Se  Se177  1  0.58261817  0.41996625  0.45653938  1
  Se  Se178  1  0.58796240  0.41013344  0.92853608  1
  Se  Se179  1  0.59542755  0.75350568  0.44451927  1
  Se  Se180  1  0.58660293  0.74324093  0.94001272  1
  Se  Se181  1  0.90872932  0.08383247  0.43786130  1
  Se  Se182  1  0.91833304  0.08263941  0.95075405  1
  Se  Se183  1  0.91975094  0.40868996  0.44909493  1
  Se  Se184  1  0.91464204  0.42051402  0.95237533  1
  Se  Se185  1  0.92983858  0.74709484  0.43841098  1
  Se  Se186  1  0.90609365  0.75103495  0.94766149  1
  Se  Se187  1  0.23747432  0.23848215  0.30524518  1
  Se  Se188  1  0.25290851  0.25342227  0.80150402  1
  Se  Se189  1  0.24974185  0.58075502  0.30277584  1
  Se  Se190  1  0.24846511  0.57865038  0.80640451  1
  Se  Se191  1  0.25850176  0.92142149  0.30739108  1
  Se  Se192  1  0.25186422  0.92176309  0.80183895  1
  Se  Se193  1  0.57864305  0.24455846  0.30528231  1
  Se  Se194  1  0.58671261  0.23946360  0.80501234  1
  Se  Se195  1  0.59306563  0.58694692  0.31287763  1
  Se  Se196  1  0.57702050  0.57584877  0.79081292  1
  Se  Se197  1  0.58962292  0.92141508  0.30153535  1
  Se  Se198  1  0.57241392  0.90838339  0.80794928  1
  Se  Se199  1  0.91370047  0.25235274  0.30331652  1
  Se  Se200  1  0.91441482  0.24741296  0.82031928  1
  Se  Se201  1  0.91283539  0.57269086  0.31698538  1
  Se  Se202  1  0.91383959  0.58454000  0.80757966  1
  Se  Se203  1  0.90773383  0.91108912  0.28762591  1
  Se  Se204  1  0.91232036  0.91825664  0.80280684  1
  Se  Se205  1  0.06639476  0.06429845  0.30252823  1
  Se  Se206  1  0.08378639  0.09005658  0.80425622  1
  Se  Se207  1  0.07780160  0.41265796  0.30722638  1
  Se  Se208  1  0.09308346  0.42310134  0.80440906  1
  Se  Se209  1  0.09377693  0.75846638  0.31467143  1
  Se  Se210  1  0.08444779  0.75883124  0.80903070  1
  Se  Se211  1  0.42087319  0.08083429  0.30407550  1
  Se  Se212  1  0.41339773  0.07950335  0.80095856  1
  Se  Se213  1  0.42552434  0.42115605  0.31193841  1
  Se  Se214  1  0.42780085  0.42287787  0.78984595  1
  Se  Se215  1  0.42355196  0.75000696  0.30782460  1
  Se  Se216  1  0.41873726  0.75258853  0.81362014  1
  Se  Se217  1  0.74760912  0.08722708  0.29801657  1
  Se  Se218  1  0.75036130  0.08568189  0.81674779  1
  Se  Se219  1  0.74640746  0.42571235  0.32240754  1
  Se  Se220  1  0.75947085  0.41545308  0.80661487  1
  Se  Se221  1  0.77225481  0.76097689  0.30262292  1
  Se  Se222  1  0.74244401  0.74893814  0.80055153  1
  Se  Se223  1  0.26590138  0.08216717  0.19866029  1
  Se  Se224  1  0.25193489  0.08288946  0.69505217  1
  Se  Se225  1  0.24249380  0.42044001  0.18850756  1
  Se  Se226  1  0.25698559  0.41080821  0.69246638  1
  Se  Se227  1  0.25838844  0.74330590  0.20162419  1
  Se  Se228  1  0.23462494  0.76090667  0.69064829  1
  Se  Se229  1  0.58819580  0.08921068  0.18986683  1
  Se  Se230  1  0.57874657  0.09094133  0.68349058  1
  Se  Se231  1  0.57411467  0.42613047  0.19639534  1
  Se  Se232  1  0.61487849  0.38789417  0.69161800  1
  Se  Se233  1  0.59193770  0.74570685  0.20331828  1
  Se  Se234  1  0.58186169  0.74962729  0.69382060  1
  Se  Se235  1  0.91994451  0.08223423  0.19307579  1
  Se  Se236  1  0.91740594  0.08457869  0.70344349  1
  Se  Se237  1  0.91028023  0.41034935  0.20020438  1
  Se  Se238  1  0.91742437  0.42607211  0.69008683  1
  Se  Se239  1  0.91228833  0.74333525  0.18810881  1
  Se  Se240  1  0.90139768  0.75978711  0.68351278  1
  Se  Se241  1  0.08234414  0.24766966  0.19983392  1
  Se  Se242  1  0.08907345  0.24459626  0.68565336  1
  Se  Se243  1  0.08619014  0.57297469  0.19326867  1
  Se  Se244  1  0.08987687  0.57528246  0.68569922  1
  Se  Se245  1  0.09686496  0.90658188  0.19636952  1
  Se  Se246  1  0.07421696  0.92798830  0.69844684  1
  Se  Se247  1  0.42157424  0.24797110  0.18768035  1
  Se  Se248  1  0.41555611  0.24833647  0.69871503  1
  Se  Se249  1  0.41570895  0.58906378  0.20429554  1
  Se  Se250  1  0.42391089  0.57913609  0.68136292  1
  Se  Se251  1  0.42389309  0.91749880  0.19931554  1
  Se  Se252  1  0.40930592  0.91408368  0.69630687  1
  Se  Se253  1  0.75381211  0.24300486  0.18561822  1
  Se  Se254  1  0.76222243  0.24468458  0.70572253  1
  Se  Se255  1  0.74980202  0.58006090  0.20353211  1
  Se  Se256  1  0.74844792  0.58503817  0.69568159  1
  Se  Se257  1  0.74879767  0.92581634  0.19800488  1
  Se  Se258  1  0.75192276  0.91530521  0.68625484  1
