# generated using pymatgen
data_In86Cu29Se144
_symmetry_space_group_name_H-M   'P 1'
_cell_length_a   17.58954161
_cell_length_b   17.58888831
_cell_length_c   23.45142201
_cell_angle_alpha   89.99498415
_cell_angle_beta   90.01159165
_cell_angle_gamma   89.99383594
_symmetry_Int_Tables_number   1
_chemical_formula_structural   In86Cu29Se144
_chemical_formula_sum   'In86 Cu29 Se144'
_cell_volume   7255.41204459
_cell_formula_units_Z   1
loop_
 _symmetry_equiv_pos_site_id
 _symmetry_equiv_pos_as_xyz
  1  'x, y, z'
loop_
 _atom_site_type_symbol
 _atom_site_label
 _atom_site_symmetry_multiplicity
 _atom_site_fract_x
 _atom_site_fract_y
 _atom_site_fract_z
 _atom_site_occupancy
  In  In0  1  0.00648957  0.17190698  0.12563267  1
  In  In1  1  0.01832296  0.18002144  0.62584087  1
  In  In2  1  -0.00696828  0.49616245  0.12293904  1
  In  In3  1  -0.00067170  0.50317642  0.62696111  1
  In  In4  1  -0.01479619  0.83815171  0.12287026  1
  In  In5  1  -0.01614330  0.81846101  0.61875512  1
  In  In6  1  0.34182685  0.16518426  0.12918298  1
  In  In7  1  0.34556349  0.17186234  0.62262266  1
  In  In8  1  0.33227088  0.49799183  0.12610870  1
  In  In9  1  0.32100072  0.49332505  0.60051005  1
  In  In10  1  0.33517152  0.82239741  0.13223054  1
  In  In11  1  0.33365290  0.82628732  0.60574293  1
  In  In12  1  0.66176179  0.18195765  0.12980948  1
  In  In13  1  0.65407647  0.17015709  0.62081611  1
  In  In14  1  0.65897154  0.50434570  0.12462921  1
  In  In15  1  0.67456302  0.50573600  0.61934504  1
  In  In16  1  0.64126735  0.79507803  0.10071873  1
  In  In17  1  0.65327724  0.81240612  0.61858225  1
  In  In18  1  0.16373785  -0.00672466  0.37750062  1
  In  In19  1  0.17683459  -0.00426380  0.87379993  1
  In  In20  1  0.19103505  0.35670973  0.35132048  1
  In  In21  1  0.17469837  0.34435568  0.87242046  1
  In  In22  1  0.19654907  0.64233089  0.40234397  1
  In  In23  1  0.15156701  0.66740162  0.87092266  1
  In  In24  1  0.50268028  -0.00009269  0.37923791  1
  In  In25  1  0.50307429  -0.00984009  0.89117783  1
  In  In26  1  0.49753973  0.33461294  0.37565036  1
  In  In27  1  0.49483429  0.34589998  0.87869052  1
  In  In28  1  0.49469149  0.65794408  0.37540600  1
  In  In29  1  0.50898241  0.65965372  0.88389157  1
  In  In30  1  0.82860599  -0.01409252  0.37571938  1
  In  In31  1  0.82763705  0.00050852  0.87824339  1
  In  In32  1  0.84054028  0.34857511  0.36738684  1
  In  In33  1  0.84730324  0.33619611  0.87517030  1
  In  In34  1  0.82317392  0.67289581  0.37782415  1
  In  In35  1  0.83492110  0.66165567  0.88042859  1
  In  In36  1  0.00285522  0.17622531  0.37033540  1
  In  In37  1  -0.00670413  0.18125761  0.87397001  1
  In  In38  1  0.01060011  0.49555926  0.38089526  1
  In  In39  1  0.00241672  0.50090204  0.87826818  1
  In  In40  1  0.00426058  0.82486102  0.38066399  1
  In  In41  1  0.00684066  0.81680272  0.87262762  1
  In  In42  1  0.33707767  0.20487612  0.37047412  1
  In  In43  1  0.33073152  0.17758036  0.87840507  1
  In  In44  1  0.34136913  0.49591744  0.37868147  1
  In  In45  1  0.34270010  0.49006693  0.87869991  1
  In  In46  1  0.35991954  0.79894001  0.40030560  1
  In  In47  1  0.34687531  0.83611034  0.87710872  1
  In  In48  1  0.65208774  0.16859865  0.37622567  1
  In  In49  1  0.66332135  0.15920522  0.87862943  1
  In  In50  1  0.66475202  0.50198276  0.37269343  1
  In  In51  1  0.66138601  0.51710060  0.88916401  1
  In  In52  1  0.66382580  0.82379398  0.37332665  1
  In  In53  1  0.68128855  0.81299660  0.89430284  1
  In  In54  1  0.15941100  -0.00701580  0.12686981  1
  In  In55  1  0.17779152  0.00022062  0.62474045  1
  In  In56  1  0.15354400  0.34050566  0.13893371  1
  In  In57  1  0.16692883  0.34418899  0.62711964  1
  In  In58  1  0.18451874  0.66938303  0.12808703  1
  In  In59  1  0.15980299  0.64820797  0.60878773  1
  In  In60  1  0.48727289  -0.00013519  0.11565335  1
  In  In61  1  0.49777683  -0.00838977  0.61862708  1
  In  In62  1  0.49771207  0.33540063  0.12583631  1
  In  In63  1  0.48938059  0.33152213  0.61326462  1
  In  In64  1  0.50093597  0.66175667  0.12632164  1
  In  In65  1  0.50208081  0.66715027  0.61759547  1
  In  In66  1  0.83442207  -0.02152464  0.11828894  1
  In  In67  1  0.84307673  -0.01356036  0.63034959  1
  In  In68  1  0.81888680  0.34609149  0.13477759  1
  In  In69  1  0.83861154  0.35439917  0.62251480  1
  In  In70  1  0.80563787  0.64659475  0.10146701  1
  In  In71  1  0.82927414  0.66243148  0.62675688  1
  In  In72  1  0.67060506  0.34218437  0.74997722  1
  In  In73  1  0.16878937  0.16748681  0.49542319  1
  In  In74  1  -0.00344290  0.00167787  0.24461373  1
  In  In75  1  0.32795434  0.65976446  0.73754936  1
  In  In76  1  0.66638368  0.00091915  0.25369856  1
  In  In77  1  0.17455102  0.16590582  0.00669841  1
  In  In78  1  0.83338519  0.16906967  -0.00284633  1
  In  In79  1  0.33148234  0.00131035  0.24792499  1
  In  In80  1  0.34007873  0.00158828  0.74997052  1
  In  In81  1  -0.00085443  0.66879717  0.25236358  1
  In  In82  1  0.82547864  0.16048507  0.49749852  1
  In  In83  1  0.00319172  0.00023159  0.75998383  1
  In  In84  1  0.66623072  -0.00455348  0.76110736  1
  In  In85  1  0.16978041  0.82832954  -0.00026934  1
  Cu  Cu86  1  0.16615030  0.50225067  0.74559367  1
  Cu  Cu87  1  0.66081902  0.33731761  0.00666821  1
  Cu  Cu88  1  0.66985425  -0.01109796  0.49871190  1
  Cu  Cu89  1  0.16074942  0.82882565  0.74114430  1
  Cu  Cu90  1  0.50323097  0.82106034  0.74769200  1
  Cu  Cu91  1  -0.00102013  0.66521464  -0.00114264  1
  Cu  Cu92  1  0.33600477  0.33738826  0.00208475  1
  Cu  Cu93  1  0.33598199  0.65849894  0.00242160  1
  Cu  Cu94  1  0.49561598  0.17146361  0.74897656  1
  Cu  Cu95  1  0.66158531  0.33777674  0.49740002  1
  Cu  Cu96  1  0.49985098  0.50158632  0.75097583  1
  Cu  Cu97  1  0.17301848  0.82310828  0.25898346  1
  Cu  Cu98  1  0.49805631  0.49839601  0.24980485  1
  Cu  Cu99  1  0.82990053  0.50559738  0.24666729  1
  Cu  Cu100  1  0.82654432  0.82329170  0.24668662  1
  Cu  Cu101  1  0.17064111  0.50643835  0.25480939  1
  Cu  Cu102  1  0.83750518  0.50684039  0.75220936  1
  Cu  Cu103  1  0.66492293  0.00480243  0.00385375  1
  Cu  Cu104  1  0.67002153  0.66159554  0.49695005  1
  Cu  Cu105  1  0.84302411  0.18005051  0.74381730  1
  Cu  Cu106  1  0.00104166  0.33934119  0.00423009  1
  Cu  Cu107  1  -0.00808779  0.66373272  0.50076485  1
  Cu  Cu108  1  0.00091281  0.33708736  0.50002686  1
  Cu  Cu109  1  0.83651672  0.17242631  0.25010329  1
  Cu  Cu110  1  0.49833070  0.17388881  0.25055747  1
  Cu  Cu111  1  -0.00730319  -0.00855640  0.50084573  1
  Cu  Cu112  1  0.33174721  0.00275965  0.49695912  1
  Cu  Cu113  1  0.82259923  0.82074439  0.75137994  1
  Cu  Cu114  1  0.17090479  0.18705806  0.75319681  1
  Se  Se115  1  0.07399377  0.07314583  0.05576026  1
  Se  Se116  1  0.07528400  0.07456856  0.55713143  1
  Se  Se117  1  0.08720883  0.41823483  0.05844201  1
  Se  Se118  1  0.08204710  0.41991881  0.55619366  1
  Se  Se119  1  0.07778143  0.74276745  0.06312472  1
  Se  Se120  1  0.07851795  0.74810031  0.55250179  1
  Se  Se121  1  0.40766353  0.08781741  0.05147349  1
  Se  Se122  1  0.41571338  0.08032031  0.55496687  1
  Se  Se123  1  0.41965862  0.42141044  0.05526828  1
  Se  Se124  1  0.42486333  0.42416167  0.54413543  1
  Se  Se125  1  0.41267692  0.74530170  0.05797366  1
  Se  Se126  1  0.43266660  0.75728733  0.54600140  1
  Se  Se127  1  0.74593375  0.08435911  0.06408528  1
  Se  Se128  1  0.74361016  0.06899329  0.56530858  1
  Se  Se129  1  0.74728168  0.42037765  0.05602289  1
  Se  Se130  1  0.75028911  0.41692621  0.54906238  1
  Se  Se131  1  0.77863749  0.78191716  0.06430535  1
  Se  Se132  1  0.75151718  0.74535636  0.55325911  1
  Se  Se133  1  0.25461659  0.26270209  0.06613844  1
  Se  Se134  1  0.25436863  0.25616641  0.55857629  1
  Se  Se135  1  0.24803503  0.58038154  0.05480853  1
  Se  Se136  1  0.27221519  0.61006696  0.54354033  1
  Se  Se137  1  0.25566662  0.91778399  0.06293574  1
  Se  Se138  1  0.24686025  0.92040274  0.54921693  1
  Se  Se139  1  0.57866988  0.24934641  0.05460388  1
  Se  Se140  1  0.58086902  0.24961555  0.54805347  1
  Se  Se141  1  0.59878776  0.60264816  0.05426081  1
  Se  Se142  1  0.58491382  0.58067459  0.55123961  1
  Se  Se143  1  0.58420248  0.91993609  0.05694396  1
  Se  Se144  1  0.58362060  0.91001219  0.55346434  1
  Se  Se145  1  0.91654053  0.25996765  0.06190500  1
  Se  Se146  1  0.92093904  0.25075491  0.55651236  1
  Se  Se147  1  0.91748428  0.57912599  0.05041920  1
  Se  Se148  1  0.91233352  0.58030563  0.55721362  1
  Se  Se149  1  0.92993825  0.92513861  0.04633878  1
  Se  Se150  1  0.90645154  0.90881175  0.55071945  1
  Se  Se151  1  0.08277929  0.26222690  0.43839711  1
  Se  Se152  1  0.08199948  0.25701673  0.94589068  1
  Se  Se153  1  0.08221642  0.57970365  0.45435722  1
  Se  Se154  1  0.08676828  0.58454225  0.94756724  1
  Se  Se155  1  0.08084632  0.91523617  0.44747841  1
  Se  Se156  1  0.08112123  0.91948793  0.93753084  1
  Se  Se157  1  0.43218935  0.23932741  0.44698775  1
  Se  Se158  1  0.41763364  0.25508873  0.94635950  1
  Se  Se159  1  0.40228919  0.59397390  0.44906995  1
  Se  Se160  1  0.41958319  0.57743132  0.94735498  1
  Se  Se161  1  0.41963102  0.91895921  0.44870079  1
  Se  Se162  1  0.40625553  0.91884920  0.95392837  1
  Se  Se163  1  0.74606008  0.25820674  0.43766781  1
  Se  Se164  1  0.74096502  0.26286556  0.93987007  1
  Se  Se165  1  0.75320323  0.57718433  0.44447516  1
  Se  Se166  1  0.74398551  0.59993819  0.95541997  1
  Se  Se167  1  0.74933391  0.90492146  0.44417044  1
  Se  Se168  1  0.74883886  0.92327269  0.94970129  1
  Se  Se169  1  0.26087824  0.08478694  0.43230188  1
  Se  Se170  1  0.26191522  0.07350481  0.94413919  1
  Se  Se171  1  0.25054124  0.41042348  0.44091373  1
  Se  Se172  1  0.25038958  0.41930673  0.94897206  1
  Se  Se173  1  0.22575847  0.77628616  0.44032561  1
  Se  Se174  1  0.25892089  0.73791152  0.93732003  1
  Se  Se175  1  0.58897521  0.07802482  0.44904462  1
  Se  Se176  1  0.58111261  0.08789474  0.95145214  1
  Se  Se177  1  0.58091769  0.42089674  0.44261246  1
  Se  Se178  1  0.58210231  0.41991552  0.94835993  1
  Se  Se179  1  0.58399981  0.74140105  0.44306965  1
  Se  Se180  1  0.56051163  0.77044829  0.94580603  1
  Se  Se181  1  0.92342942  0.07524664  0.43680814  1
  Se  Se182  1  0.92793377  0.07905854  0.94017815  1
  Se  Se183  1  0.91627644  0.41864099  0.44672371  1
  Se  Se184  1  0.91698127  0.41995839  0.94917373  1
  Se  Se185  1  0.91314738  0.74898292  0.44602201  1
  Se  Se186  1  0.91941315  0.75204519  0.94607009  1
  Se  Se187  1  0.23839315  0.23993940  0.29553919  1
  Se  Se188  1  0.26111475  0.26259216  0.80479399  1
  Se  Se189  1  0.25489955  0.58413871  0.31162107  1
  Se  Se190  1  0.24639151  0.57788566  0.81036865  1
  Se  Se191  1  0.25216644  0.90993702  0.31321846  1
  Se  Se192  1  0.24655804  0.90130211  0.80142646  1
  Se  Se193  1  0.58394813  0.25447902  0.30348044  1
  Se  Se194  1  0.58218238  0.24635654  0.80877825  1
  Se  Se195  1  0.58032605  0.58241060  0.30328064  1
  Se  Se196  1  0.58219525  0.58032869  0.80749823  1
  Se  Se197  1  0.57259945  0.90865749  0.30644097  1
  Se  Se198  1  0.57233013  0.90429962  0.81344845  1
  Se  Se199  1  0.91915358  0.25569469  0.30258162  1
  Se  Se200  1  0.92495252  0.26240311  0.79779697  1
  Se  Se201  1  0.91103697  0.57790412  0.31250369  1
  Se  Se202  1  0.92087998  0.58605099  0.80911223  1
  Se  Se203  1  0.91212971  0.90251897  0.30357638  1
  Se  Se204  1  0.90412561  0.90596651  0.80864012  1
  Se  Se205  1  0.08855043  0.08546930  0.30622212  1
  Se  Se206  1  0.09764418  0.09849636  0.81237933  1
  Se  Se207  1  0.07826479  0.42292150  0.29897694  1
  Se  Se208  1  0.08577079  0.42205310  0.80541896  1
  Se  Se209  1  0.09539462  0.74053594  0.31793088  1
  Se  Se210  1  0.07853697  0.74483954  0.79333074  1
  Se  Se211  1  0.42021452  0.09179072  0.31158259  1
  Se  Se212  1  0.42640299  0.08800400  0.81447901  1
  Se  Se213  1  0.41553632  0.41359553  0.30329770  1
  Se  Se214  1  0.41610947  0.41521342  0.80006620  1
  Se  Se215  1  0.41222684  0.74469083  0.30800531  1
  Se  Se216  1  0.41709183  0.74353356  0.80528967  1
  Se  Se217  1  0.76058582  0.09153519  0.31293875  1
  Se  Se218  1  0.76460147  0.09900498  0.80443740  1
  Se  Se219  1  0.74709821  0.42017856  0.30068884  1
  Se  Se220  1  0.75616424  0.42843158  0.81526001  1
  Se  Se221  1  0.74288381  0.74309890  0.30065844  1
  Se  Se222  1  0.74480678  0.74173424  0.81125251  1
  Se  Se223  1  0.23585627  0.08872085  0.19028911  1
  Se  Se224  1  0.24543334  0.09766601  0.69551559  1
  Se  Se225  1  0.24962543  0.41980152  0.19932198  1
  Se  Se226  1  0.25600593  0.43007207  0.68906797  1
  Se  Se227  1  0.25863067  0.74281140  0.20605720  1
  Se  Se228  1  0.24194709  0.75461023  0.67914950  1
  Se  Se229  1  0.57269733  0.08703286  0.19081334  1
  Se  Se230  1  0.57593721  0.08388598  0.69553291  1
  Se  Se231  1  0.58252069  0.41683506  0.19439502  1
  Se  Se232  1  0.57753360  0.42112259  0.68609629  1
  Se  Se233  1  0.58888495  0.74310417  0.19375305  1
  Se  Se234  1  0.58439103  0.73535820  0.69698217  1
  Se  Se235  1  0.90174008  0.08859278  0.18523511  1
  Se  Se236  1  0.92066649  0.09150760  0.69015284  1
  Se  Se237  1  0.91615062  0.41966879  0.19840251  1
  Se  Se238  1  0.91870861  0.42070092  0.69968726  1
  Se  Se239  1  0.90628466  0.74388345  0.18608823  1
  Se  Se240  1  0.91252270  0.74524991  0.69794839  1
  Se  Se241  1  0.07728828  0.24581651  0.20197064  1
  Se  Se242  1  0.08426452  0.26497763  0.69984071  1
  Se  Se243  1  0.09023758  0.58106382  0.19033604  1
  Se  Se244  1  0.08585373  0.58820277  0.69328087  1
  Se  Se245  1  0.08849831  0.89636793  0.19775468  1
  Se  Se246  1  0.08171724  0.91676254  0.68683662  1
  Se  Se247  1  0.41326084  0.25532268  0.19789610  1
  Se  Se248  1  0.41814553  0.25679124  0.69468383  1
  Se  Se249  1  0.41542074  0.58075292  0.19490144  1
  Se  Se250  1  0.42071261  0.57021861  0.68270369  1
  Se  Se251  1  0.42743188  0.91063535  0.19504223  1
  Se  Se252  1  0.41931958  0.90047056  0.68963862  1
  Se  Se253  1  0.74527919  0.25378720  0.20259078  1
  Se  Se254  1  0.75437477  0.24837301  0.68412712  1
  Se  Se255  1  0.74710985  0.58773380  0.19221207  1
  Se  Se256  1  0.74718919  0.58068871  0.69811325  1
  Se  Se257  1  0.74766673  0.90868363  0.19121562  1
  Se  Se258  1  0.74655160  0.90653934  0.69265016  1
