# generated using pymatgen
data_In86Cu29Se144
_symmetry_space_group_name_H-M   'P 1'
_cell_length_a   17.58061325
_cell_length_b   17.58458626
_cell_length_c   23.44078017
_cell_angle_alpha   89.99797906
_cell_angle_beta   89.99645181
_cell_angle_gamma   90.00805495
_symmetry_Int_Tables_number   1
_chemical_formula_structural   In86Cu29Se144
_chemical_formula_sum   'In86 Cu29 Se144'
_cell_volume   7246.66577009
_cell_formula_units_Z   1
loop_
 _symmetry_equiv_pos_site_id
 _symmetry_equiv_pos_as_xyz
  1  'x, y, z'
loop_
 _atom_site_type_symbol
 _atom_site_label
 _atom_site_symmetry_multiplicity
 _atom_site_fract_x
 _atom_site_fract_y
 _atom_site_fract_z
 _atom_site_occupancy
  In  In0  1  0.00157997  0.15809303  0.12332077  1
  In  In1  1  -0.00143055  0.16388079  0.63026579  1
  In  In2  1  0.02122275  0.50528515  0.13078496  1
  In  In3  1  0.01470206  0.49799582  0.63391274  1
  In  In4  1  0.00302361  0.82042001  0.13919763  1
  In  In5  1  0.00464408  0.83207943  0.62015004  1
  In  In6  1  0.31998577  0.17857767  0.14239634  1
  In  In7  1  0.33564057  0.16103212  0.62725054  1
  In  In8  1  0.34110014  0.49078218  0.13578341  1
  In  In9  1  0.31767553  0.52268553  0.65523513  1
  In  In10  1  0.32800300  0.83556931  0.13649342  1
  In  In11  1  0.33274626  0.83433796  0.61992386  1
  In  In12  1  0.66275020  0.17133860  0.13685795  1
  In  In13  1  0.65622800  0.18367314  0.62363566  1
  In  In14  1  0.64075943  0.50564597  0.12103002  1
  In  In15  1  0.65878356  0.50495027  0.63871939  1
  In  In16  1  0.67900170  0.83411788  0.13392858  1
  In  In17  1  0.65912607  0.81802318  0.60294647  1
  In  In18  1  0.15381367  -0.00664599  0.35958785  1
  In  In19  1  0.17445540  0.00739350  0.86519370  1
  In  In20  1  0.17540670  0.32528550  0.37488575  1
  In  In21  1  0.16492628  0.32896302  0.86469177  1
  In  In22  1  0.17121507  0.66600053  0.37814479  1
  In  In23  1  0.16752900  0.66300850  0.85778916  1
  In  In24  1  0.49792674  0.00130355  0.38078304  1
  In  In25  1  0.49394870  0.01101537  0.87645501  1
  In  In26  1  0.48878161  0.32480977  0.37288778  1
  In  In27  1  0.50108908  0.33870778  0.86403427  1
  In  In28  1  0.49727313  0.68063586  0.38639813  1
  In  In29  1  0.47773840  0.63736238  0.84239739  1
  In  In30  1  0.82279970  -0.01633186  0.36089816  1
  In  In31  1  0.83748136  -0.01681011  0.87577265  1
  In  In32  1  0.82791755  0.34683693  0.37498188  1
  In  In33  1  0.83905281  0.33784634  0.86883518  1
  In  In34  1  0.83905439  0.66940202  0.38067360  1
  In  In35  1  0.83342575  0.66573024  0.86480221  1
  In  In36  1  0.01423299  0.14884063  0.36946931  1
  In  In37  1  0.01474822  0.17655984  0.86572632  1
  In  In38  1  0.00155434  0.51450035  0.37442269  1
  In  In39  1  0.01200938  0.50283171  0.85720584  1
  In  In40  1  0.00366690  0.83540030  0.37872246  1
  In  In41  1  -0.00374539  0.83258583  0.86181588  1
  In  In42  1  0.33549616  0.17607684  0.36753092  1
  In  In43  1  0.32659710  0.15939876  0.86819169  1
  In  In44  1  0.31969095  0.48940312  0.36821559  1
  In  In45  1  0.33063584  0.49932927  0.86131115  1
  In  In46  1  0.33358622  0.83020497  0.37826568  1
  In  In47  1  0.33478355  0.82712318  0.86187784  1
  In  In48  1  0.65755988  0.15955306  0.37396816  1
  In  In49  1  0.65413434  0.17074667  0.87531839  1
  In  In50  1  0.67136351  0.49638176  0.37442492  1
  In  In51  1  0.64506523  0.48403756  0.85073656  1
  In  In52  1  0.65474622  0.83752377  0.38965810  1
  In  In53  1  0.67108203  0.82493641  0.87353006  1
  In  In54  1  0.15608620  0.01279599  0.13707644  1
  In  In55  1  0.17447716  -0.00856019  0.62439308  1
  In  In56  1  0.19894645  0.33500043  0.12637368  1
  In  In57  1  0.16405291  0.34690596  0.63821648  1
  In  In58  1  0.17299606  0.64732504  0.14771296  1
  In  In59  1  0.16495437  0.66768643  0.62481037  1
  In  In60  1  0.49114213  0.01233631  0.13921263  1
  In  In61  1  0.49180406  -0.00493438  0.61513301  1
  In  In62  1  0.48770302  0.34556267  0.12950172  1
  In  In63  1  0.49640398  0.33792469  0.63245930  1
  In  In64  1  0.49581206  0.65299174  0.12143447  1
  In  In65  1  0.49606398  0.67037563  0.63063733  1
  In  In66  1  0.84535717  -0.01492942  0.14777342  1
  In  In67  1  0.84393795  -0.00613976  0.62359762  1
  In  In68  1  0.83243478  0.32160336  0.12480101  1
  In  In69  1  0.82522354  0.34217064  0.63274863  1
  In  In70  1  0.84151084  0.67427644  0.13072790  1
  In  In71  1  0.82885444  0.67942764  0.62407438  1
  In  In72  1  0.66964114  -0.00207728  0.75443576  1
  In  In73  1  0.83177424  0.15830421  -0.00076769  1
  In  In74  1  0.50243493  0.82930198  -0.00060759  1
  In  In75  1  0.48921762  0.50223213  0.51468099  1
  In  In76  1  0.16462577  0.83084317  0.00196842  1
  In  In77  1  0.83589915  0.83046969  0.01507486  1
  In  In78  1  0.66130433  0.66611417  0.25624976  1
  In  In79  1  0.17368021  0.16233950  0.49621194  1
  In  In80  1  -0.00171998  0.33523003  0.25072222  1
  In  In81  1  0.83375874  0.50713505  0.50402179  1
  In  In82  1  0.83026673  0.49939896  -0.00634718  1
  In  In83  1  0.17642609  0.49902472  -0.00415325  1
  In  In84  1  0.83146123  0.16482124  0.50049008  1
  In  In85  1  0.49143265  0.17550996  0.00221395  1
  Cu  Cu86  1  0.50380728  0.83508111  0.26039677  1
  Cu  Cu87  1  0.32480206  0.00409054  -0.00249805  1
  Cu  Cu88  1  0.33089172  0.66288305  0.50604711  1
  Cu  Cu89  1  0.51070544  0.16643945  0.25654588  1
  Cu  Cu90  1  0.33375240  -0.00368366  0.49709797  1
  Cu  Cu91  1  0.16637032  0.16414986  0.74518313  1
  Cu  Cu92  1  0.00887416  0.66906269  0.49985753  1
  Cu  Cu93  1  0.01330671  0.00509297  0.00018852  1
  Cu  Cu94  1  0.01564699  0.33074615  -0.00831967  1
  Cu  Cu95  1  0.16894487  0.82717802  0.25753888  1
  Cu  Cu96  1  0.00693689  0.33573466  0.50984748  1
  Cu  Cu97  1  0.82354117  0.49779493  0.24925388  1
  Cu  Cu98  1  0.66072657  0.34245744  -0.00429346  1
  Cu  Cu99  1  0.00145206  0.66733193  0.00061062  1
  Cu  Cu100  1  0.83133951  0.16916654  0.25225606  1
  Cu  Cu101  1  0.84241345  0.50327944  0.74618999  1
  Cu  Cu102  1  0.33095330  0.33699608  0.50183975  1
  Cu  Cu103  1  0.83291410  0.16743220  0.74658568  1
  Cu  Cu104  1  0.33574859  0.66076716  -0.00792580  1
  Cu  Cu105  1  0.65341229  0.33487661  0.50069651  1
  Cu  Cu106  1  0.16575327  0.83489880  0.74233977  1
  Cu  Cu107  1  0.66546214  0.00322247  0.49647608  1
  Cu  Cu108  1  0.49196778  0.49484320  0.25164124  1
  Cu  Cu109  1  0.49879836  0.83673263  0.73809641  1
  Cu  Cu110  1  0.65313177  0.65540270  -0.00686392  1
  Cu  Cu111  1  0.49759439  0.16276503  0.74982384  1
  Cu  Cu112  1  0.66842780  0.00031604  0.01708003  1
  Cu  Cu113  1  0.83776235  0.83748634  0.74296012  1
  Cu  Cu114  1  0.00170928  -0.00682769  0.49600819  1
  Se  Se115  1  0.09346135  0.08858440  0.05331797  1
  Se  Se116  1  0.07678923  0.07802988  0.55666847  1
  Se  Se117  1  0.08489470  0.41105917  0.05784825  1
  Se  Se118  1  0.09121207  0.41964454  0.55804042  1
  Se  Se119  1  0.08421046  0.73657751  0.06541591  1
  Se  Se120  1  0.09227442  0.75366629  0.55129297  1
  Se  Se121  1  0.40822391  0.07819388  0.05918243  1
  Se  Se122  1  0.41199940  0.08570411  0.54986119  1
  Se  Se123  1  0.40737160  0.41690251  0.05559234  1
  Se  Se124  1  0.39426968  0.41674255  0.57118657  1
  Se  Se125  1  0.40412756  0.74506830  0.05767245  1
  Se  Se126  1  0.41835571  0.74643924  0.55546924  1
  Se  Se127  1  0.75325768  0.07681348  0.07357571  1
  Se  Se128  1  0.74051687  0.07970706  0.56404913  1
  Se  Se129  1  0.74310797  0.41347078  0.06043127  1
  Se  Se130  1  0.73689600  0.41481563  0.55805641  1
  Se  Se131  1  0.73385958  0.73166387  0.05772914  1
  Se  Se132  1  0.76489795  0.75527698  0.54332523  1
  Se  Se133  1  0.26069975  0.24438625  0.05496644  1
  Se  Se134  1  0.24868507  0.25556499  0.56267656  1
  Se  Se135  1  0.25539130  0.59175907  0.06079296  1
  Se  Se136  1  0.25559178  0.57760807  0.56383314  1
  Se  Se137  1  0.25230776  0.92194258  0.06112655  1
  Se  Se138  1  0.24838218  0.91431311  0.54860651  1
  Se  Se139  1  0.58963193  0.25898695  0.06056246  1
  Se  Se140  1  0.56754809  0.25552363  0.55377219  1
  Se  Se141  1  0.56462573  0.57450804  0.04239811  1
  Se  Se142  1  0.59219145  0.59005345  0.56081357  1
  Se  Se143  1  0.58318839  0.91802436  0.06922942  1
  Se  Se144  1  0.58048008  0.91853159  0.54733706  1
  Se  Se145  1  0.92683158  0.25628219  0.05020626  1
  Se  Se146  1  0.91768072  0.25876643  0.56183816  1
  Se  Se147  1  0.92073043  0.58584977  0.05891528  1
  Se  Se148  1  0.92977002  0.58916408  0.56310480  1
  Se  Se149  1  0.93407894  0.92522667  0.06382715  1
  Se  Se150  1  0.91685837  0.91234517  0.54999249  1
  Se  Se151  1  0.07286881  0.25224487  0.44275350  1
  Se  Se152  1  0.09670770  0.24392654  0.94241748  1
  Se  Se153  1  0.08795564  0.58049527  0.44824665  1
  Se  Se154  1  0.07999583  0.59082301  0.93809987  1
  Se  Se155  1  0.09384517  0.91868346  0.44440643  1
  Se  Se156  1  0.07833598  0.91727197  0.93598289  1
  Se  Se157  1  0.40880623  0.25044419  0.44753356  1
  Se  Se158  1  0.41024453  0.25588932  0.93175178  1
  Se  Se159  1  0.40639796  0.58168631  0.44195301  1
  Se  Se160  1  0.41439806  0.58116998  0.93316053  1
  Se  Se161  1  0.41965890  0.91120659  0.44759982  1
  Se  Se162  1  0.40573417  0.92022807  0.94070191  1
  Se  Se163  1  0.74219728  0.26043125  0.44329412  1
  Se  Se164  1  0.74421308  0.25897408  0.94157762  1
  Se  Se165  1  0.73878439  0.59139293  0.44462463  1
  Se  Se166  1  0.74173336  0.58533072  0.93204631  1
  Se  Se167  1  0.75341907  0.92166920  0.44671526  1
  Se  Se168  1  0.74160714  0.91868914  0.95162324  1
  Se  Se169  1  0.25602172  0.07322322  0.43232569  1
  Se  Se170  1  0.24354632  0.08612273  0.94349748  1
  Se  Se171  1  0.24479992  0.41415568  0.44660645  1
  Se  Se172  1  0.25886855  0.40723590  0.93428331  1
  Se  Se173  1  0.25241973  0.74774058  0.44974468  1
  Se  Se174  1  0.25304157  0.74205688  0.93625452  1
  Se  Se175  1  0.57894804  0.08914281  0.45023084  1
  Se  Se176  1  0.59094768  0.07591892  0.95155789  1
  Se  Se177  1  0.57621950  0.41851478  0.44237594  1
  Se  Se178  1  0.58008453  0.42043545  0.93781753  1
  Se  Se179  1  0.58493100  0.74562988  0.45812784  1
  Se  Se180  1  0.57762591  0.73858418  0.93209984  1
  Se  Se181  1  0.92051406  0.07741243  0.43959189  1
  Se  Se182  1  0.92659967  0.07550654  0.93727179  1
  Se  Se183  1  0.92538316  0.41255218  0.44592901  1
  Se  Se184  1  0.93313086  0.41556475  0.93788305  1
  Se  Se185  1  0.92195517  0.75034275  0.44832873  1
  Se  Se186  1  0.91973385  0.74834416  0.94241206  1
  Se  Se187  1  0.23970356  0.24256574  0.29903254  1
  Se  Se188  1  0.25156158  0.24615490  0.79781753  1
  Se  Se189  1  0.25428682  0.58977188  0.30597838  1
  Se  Se190  1  0.25460432  0.58651616  0.79172093  1
  Se  Se191  1  0.25508286  0.91270499  0.30561129  1
  Se  Se192  1  0.24948748  0.91435830  0.80003283  1
  Se  Se193  1  0.58877151  0.25706033  0.30790138  1
  Se  Se194  1  0.58368259  0.24767269  0.79939506  1
  Se  Se195  1  0.56861045  0.57543361  0.31512854  1
  Se  Se196  1  0.61207683  0.61168977  0.80390799  1
  Se  Se197  1  0.58589108  0.91905764  0.31258847  1
  Se  Se198  1  0.57159575  0.90835842  0.81174796  1
  Se  Se199  1  0.91135963  0.24477473  0.31621888  1
  Se  Se200  1  0.91680741  0.24896835  0.80283762  1
  Se  Se201  1  0.90260940  0.57814810  0.30729548  1
  Se  Se202  1  0.92343025  0.59044626  0.79771791  1
  Se  Se203  1  0.94339355  0.93743652  0.31108761  1
  Se  Se204  1  0.91786230  0.92323718  0.79577619  1
  Se  Se205  1  0.10441457  0.10065133  0.29247000  1
  Se  Se206  1  0.08094354  0.07999160  0.79793251  1
  Se  Se207  1  0.08685631  0.42199154  0.31214255  1
  Se  Se208  1  0.08760151  0.41183030  0.79445887  1
  Se  Se209  1  0.08213093  0.74697688  0.31051509  1
  Se  Se210  1  0.08166941  0.75129227  0.79635373  1
  Se  Se211  1  0.42307166  0.08606051  0.30785834  1
  Se  Se212  1  0.41347254  0.07704425  0.79992168  1
  Se  Se213  1  0.40883916  0.40824907  0.30263011  1
  Se  Se214  1  0.43371898  0.43448662  0.79747243  1
  Se  Se215  1  0.41936302  0.74830056  0.30796477  1
  Se  Se216  1  0.41403725  0.75000301  0.78903148  1
  Se  Se217  1  0.74751463  0.08646881  0.30478045  1
  Se  Se218  1  0.75898218  0.09069974  0.81579110  1
  Se  Se219  1  0.74167550  0.41258719  0.29997936  1
  Se  Se220  1  0.75844677  0.41851188  0.79903653  1
  Se  Se221  1  0.74652494  0.75487010  0.31750163  1
  Se  Se222  1  0.75468455  0.75690772  0.79935532  1
  Se  Se223  1  0.27599586  0.05592554  0.19123795  1
  Se  Se224  1  0.24949258  0.07901720  0.69372010  1
  Se  Se225  1  0.22038337  0.44989115  0.19160685  1
  Se  Se226  1  0.26543451  0.40318495  0.70506061  1
  Se  Se227  1  0.25425223  0.74463075  0.20407573  1
  Se  Se228  1  0.25179634  0.75293823  0.69098394  1
  Se  Se229  1  0.59107595  0.07859884  0.20365958  1
  Se  Se230  1  0.58045866  0.08315711  0.68997774  1
  Se  Se231  1  0.58156843  0.41857015  0.19756056  1
  Se  Se232  1  0.59861154  0.39966068  0.69799473  1
  Se  Se233  1  0.57302539  0.75349584  0.19049948  1
  Se  Se234  1  0.58946552  0.75759555  0.68952339  1
  Se  Se235  1  0.92080540  0.09031944  0.20060151  1
  Se  Se236  1  0.91381184  0.08038071  0.69647385  1
  Se  Se237  1  0.90869300  0.42572361  0.18622507  1
  Se  Se238  1  0.92201515  0.41417251  0.69546783  1
  Se  Se239  1  0.89547515  0.76778115  0.20316991  1
  Se  Se240  1  0.92119993  0.75222924  0.69194625  1
  Se  Se241  1  0.08505134  0.25722895  0.18137877  1
  Se  Se242  1  0.08079252  0.24917133  0.69544536  1
  Se  Se243  1  0.05555191  0.60422536  0.20586366  1
  Se  Se244  1  0.09391036  0.58418055  0.69999130  1
  Se  Se245  1  0.08864821  0.90959125  0.19940928  1
  Se  Se246  1  0.08057229  0.91967976  0.69155809  1
  Se  Se247  1  0.42680223  0.24705509  0.19884841  1
  Se  Se248  1  0.41523483  0.24617181  0.69624892  1
  Se  Se249  1  0.41570980  0.58698423  0.19974139  1
  Se  Se250  1  0.44766657  0.56342556  0.69755858  1
  Se  Se251  1  0.42064772  0.91260450  0.20106453  1
  Se  Se252  1  0.41289207  0.92146374  0.69060266  1
  Se  Se253  1  0.75000114  0.25595735  0.20104989  1
  Se  Se254  1  0.74688812  0.24888330  0.69603306  1
  Se  Se255  1  0.74694058  0.57917240  0.18634721  1
  Se  Se256  1  0.75834516  0.58637119  0.69336302  1
  Se  Se257  1  0.74767431  0.91426658  0.20873508  1
  Se  Se258  1  0.74724162  0.91082596  0.68546614  1
