# generated using pymatgen
data_In86Cu29Se144
_symmetry_space_group_name_H-M   'P 1'
_cell_length_a   17.58586601
_cell_length_b   17.58945147
_cell_length_c   23.44315337
_cell_angle_alpha   90.01364350
_cell_angle_beta   89.97151534
_cell_angle_gamma   90.01211746
_symmetry_Int_Tables_number   1
_chemical_formula_structural   In86Cu29Se144
_chemical_formula_sum   'In86 Cu29 Se144'
_cell_volume   7251.56942171
_cell_formula_units_Z   1
loop_
 _symmetry_equiv_pos_site_id
 _symmetry_equiv_pos_as_xyz
  1  'x, y, z'
loop_
 _atom_site_type_symbol
 _atom_site_label
 _atom_site_symmetry_multiplicity
 _atom_site_fract_x
 _atom_site_fract_y
 _atom_site_fract_z
 _atom_site_occupancy
  In  In0  1  -0.00722366  0.17948444  0.12190981  1
  In  In1  1  -0.00650414  0.16344097  0.62167428  1
  In  In2  1  0.01030953  0.50642359  0.13261015  1
  In  In3  1  -0.00730487  0.50813909  0.62700571  1
  In  In4  1  0.00216318  0.82297906  0.12362450  1
  In  In5  1  -0.00637384  0.82990966  0.62375654  1
  In  In6  1  0.34721891  0.15875138  0.12651507  1
  In  In7  1  0.34700614  0.18037066  0.62050812  1
  In  In8  1  0.32490312  0.49241977  0.13320521  1
  In  In9  1  0.34343351  0.48835128  0.62826267  1
  In  In10  1  0.33330067  0.83925410  0.11941165  1
  In  In11  1  0.32035271  0.83327927  0.62578208  1
  In  In12  1  0.66607271  0.16573244  0.12918872  1
  In  In13  1  0.66565255  0.17127036  0.61651423  1
  In  In14  1  0.66317063  0.49876734  0.14146637  1
  In  In15  1  0.67876831  0.51591944  0.59578966  1
  In  In16  1  0.67533903  0.83252637  0.14436658  1
  In  In17  1  0.68306042  0.81424577  0.62862062  1
  In  In18  1  0.15862282  0.00735229  0.38397394  1
  In  In19  1  0.14970371  -0.00104032  0.87383891  1
  In  In20  1  0.15887496  0.32456904  0.37742850  1
  In  In21  1  0.16668350  0.33391613  0.86195396  1
  In  In22  1  0.16342610  0.67971897  0.38129067  1
  In  In23  1  0.16737438  0.66921573  0.86772870  1
  In  In24  1  0.52089565  0.00215546  0.37753059  1
  In  In25  1  0.52657010  0.00709050  0.86606893  1
  In  In26  1  0.50159439  0.33925682  0.37412430  1
  In  In27  1  0.48861280  0.33302418  0.87531063  1
  In  In28  1  0.52629864  0.63619689  0.39271052  1
  In  In29  1  0.50608568  0.68387958  0.85182797  1
  In  In30  1  0.82643229  0.00881830  0.37973170  1
  In  In31  1  0.83003868  0.00649663  0.86359613  1
  In  In32  1  0.79577263  0.37170317  0.42979221  1
  In  In33  1  0.82237730  0.31383964  0.86701939  1
  In  In34  1  0.83094467  0.66486046  0.37385509  1
  In  In35  1  0.83281892  0.66935594  0.86173991  1
  In  In36  1  -0.02323462  0.20372867  0.40791045  1
  In  In37  1  -0.02373703  0.14994669  0.84721644  1
  In  In38  1  -0.04165585  0.50174249  0.39040803  1
  In  In39  1  -0.00321866  0.49921766  0.85829609  1
  In  In40  1  0.00054858  0.82875482  0.38003216  1
  In  In41  1  0.00243721  0.84209837  0.87086409  1
  In  In42  1  0.32526749  0.17873416  0.38038998  1
  In  In43  1  0.33367161  0.17986875  0.87175722  1
  In  In44  1  0.35769084  0.49341029  0.37612217  1
  In  In45  1  0.33232173  0.49913185  0.86277511  1
  In  In46  1  0.32576773  0.83092850  0.38082674  1
  In  In47  1  0.33302706  0.81681957  0.87053045  1
  In  In48  1  0.67445920  0.17457839  0.38998917  1
  In  In49  1  0.67095626  0.16099364  0.88128919  1
  In  In50  1  0.66709709  0.49916144  0.37169129  1
  In  In51  1  0.65632022  0.50710528  0.87236055  1
  In  In52  1  0.68339441  0.83915640  0.36872724  1
  In  In53  1  0.66976692  0.84362489  0.85821032  1
  In  In54  1  0.17828101  -0.00272590  0.11887425  1
  In  In55  1  0.15487642  -0.01062674  0.62054962  1
  In  In56  1  0.16322219  0.34505694  0.13166860  1
  In  In57  1  0.17238040  0.32531938  0.62612682  1
  In  In58  1  0.16117091  0.66696770  0.12710635  1
  In  In59  1  0.15306336  0.67533325  0.62982258  1
  In  In60  1  0.50413950  0.00812595  0.12488071  1
  In  In61  1  0.50561588  0.01304348  0.62418349  1
  In  In62  1  0.51891831  0.31767535  0.14533725  1
  In  In63  1  0.50671444  0.32911771  0.61059805  1
  In  In64  1  0.50566105  0.67556577  0.12728130  1
  In  In65  1  0.51728419  0.65355807  0.62946340  1
  In  In66  1  0.82193852  0.00817458  0.13094542  1
  In  In67  1  0.83973943  0.00033380  0.62725930  1
  In  In68  1  0.83465991  0.31696732  0.12547620  1
  In  In69  1  0.83777952  0.33194816  0.61398316  1
  In  In70  1  0.83554815  0.67028796  0.14301267  1
  In  In71  1  0.82967505  0.66988669  0.61582450  1
  In  In72  1  0.49226266  0.49903471  0.00052057  1
  In  In73  1  0.16610897  0.50249295  0.50736577  1
  In  In74  1  0.16554806  0.49595092  0.00367001  1
  In  In75  1  0.34345628  0.66466533  0.25852661  1
  In  In76  1  -0.00902062  0.34170151  0.26251052  1
  In  In77  1  0.16355623  0.16866036  -0.00373903  1
  In  In78  1  0.00202905  0.00353952  0.26047425  1
  In  In79  1  0.34045131  0.00183713  0.24524440  1
  In  In80  1  0.83603152  0.49553202  0.00570596  1
  In  In81  1  0.66833992  0.33649800  0.73442750  1
  In  In82  1  0.49985349  0.83335433  0.49818881  1
  In  In83  1  0.83488014  0.83737616  0.00177982  1
  In  In84  1  0.50244204  0.84113038  -0.00814607  1
  In  In85  1  0.33003487  0.00500262  0.74651639  1
  Cu  Cu86  1  0.16521089  0.17261215  0.26024248  1
  Cu  Cu87  1  0.66911126  0.66980201  -0.00054739  1
  Cu  Cu88  1  0.50694046  0.82434101  0.25993824  1
  Cu  Cu89  1  0.33195975  0.66997296  0.50207005  1
  Cu  Cu90  1  0.16759184  0.50378626  0.25801719  1
  Cu  Cu91  1  0.15887666  0.82997850  0.74767222  1
  Cu  Cu92  1  0.33310579  0.00648087  0.50787675  1
  Cu  Cu93  1  0.83003812  0.49570263  0.26467482  1
  Cu  Cu94  1  0.00760720  0.67014736  0.00081544  1
  Cu  Cu95  1  0.82371908  0.50160485  0.73669645  1
  Cu  Cu96  1  0.33499823  0.32683757  0.00132132  1
  Cu  Cu97  1  0.33733381  0.33730065  0.49886977  1
  Cu  Cu98  1  -0.00981568  0.32416912  -0.01154322  1
  Cu  Cu99  1  0.16759541  0.50064545  0.74042310  1
  Cu  Cu100  1  0.66945233  -0.00214816  0.50329764  1
  Cu  Cu101  1  0.50546530  0.17791380  0.74320048  1
  Cu  Cu102  1  0.66201012  0.32195755  0.00602154  1
  Cu  Cu103  1  0.33291832  0.66513989  -0.01323414  1
  Cu  Cu104  1  0.00370908  -0.00785119  0.50529740  1
  Cu  Cu105  1  0.50629766  0.16740624  0.25734238  1
  Cu  Cu106  1  -0.00642485  0.00409992  -0.00990682  1
  Cu  Cu107  1  -0.00904648  0.66613478  0.50322703  1
  Cu  Cu108  1  0.82334375  0.16937095  0.25790020  1
  Cu  Cu109  1  0.16345107  0.16922597  0.74334427  1
  Cu  Cu110  1  0.66597495  0.00617493  0.00290851  1
  Cu  Cu111  1  0.83137810  0.82877431  0.74224221  1
  Cu  Cu112  1  0.33299287  -0.00697535  -0.00608604  1
  Cu  Cu113  1  0.16554550  0.83392496  0.25252293  1
  Cu  Cu114  1  0.50487695  0.50045188  0.74465076  1
  Se  Se115  1  0.07341561  0.07751554  0.05894605  1
  Se  Se116  1  0.08380504  0.08356257  0.55402406  1
  Se  Se117  1  0.06421414  0.40349950  0.05535934  1
  Se  Se118  1  0.07692617  0.41138135  0.56357455  1
  Se  Se119  1  0.09194043  0.75233572  0.05270304  1
  Se  Se120  1  0.07875711  0.74919004  0.55229261  1
  Se  Se121  1  0.41323603  0.07300885  0.05184052  1
  Se  Se122  1  0.42252336  0.08968137  0.55272337  1
  Se  Se123  1  0.41035927  0.40773620  0.06466435  1
  Se  Se124  1  0.42169613  0.42207201  0.54914930  1
  Se  Se125  1  0.41308956  0.74246329  0.05070062  1
  Se  Se126  1  0.41412080  0.74676793  0.56353901  1
  Se  Se127  1  0.75084271  0.08836134  0.05594675  1
  Se  Se128  1  0.75255330  0.07917470  0.55781872  1
  Se  Se129  1  0.73832358  0.40972986  0.06397034  1
  Se  Se130  1  0.73801281  0.39809557  0.54606325  1
  Se  Se131  1  0.74699156  0.74449046  0.06341193  1
  Se  Se132  1  0.74708971  0.74807629  0.54435056  1
  Se  Se133  1  0.24982336  0.25470386  0.06407304  1
  Se  Se134  1  0.25493344  0.25229331  0.55141709  1
  Se  Se135  1  0.26079628  0.59019087  0.05749612  1
  Se  Se136  1  0.25597537  0.59147485  0.56751095  1
  Se  Se137  1  0.24934228  0.91104953  0.04656676  1
  Se  Se138  1  0.24888334  0.91734483  0.55223481  1
  Se  Se139  1  0.57583883  0.24378011  0.05998838  1
  Se  Se140  1  0.58722859  0.24823082  0.54266531  1
  Se  Se141  1  0.59114118  0.58710344  0.05845750  1
  Se  Se142  1  0.57821435  0.59417210  0.54033389  1
  Se  Se143  1  0.59574958  0.91561638  0.06224044  1
  Se  Se144  1  0.58853570  0.91772893  0.56236997  1
  Se  Se145  1  0.90888585  0.24419051  0.04590617  1
  Se  Se146  1  0.89965886  0.22866267  0.54842404  1
  Se  Se147  1  0.92624840  0.59314500  0.06232278  1
  Se  Se148  1  0.90936414  0.57564626  0.55029164  1
  Se  Se149  1  0.92341594  0.92875073  0.06238397  1
  Se  Se150  1  0.91266015  0.91238330  0.55373997  1
  Se  Se151  1  0.10238149  0.24289412  0.45714328  1
  Se  Se152  1  0.07743250  0.25128794  0.93047679  1
  Se  Se153  1  0.07279680  0.58570572  0.44232275  1
  Se  Se154  1  0.07571332  0.58078919  0.93921905  1
  Se  Se155  1  0.08619651  0.91092771  0.44738967  1
  Se  Se156  1  0.08021852  0.91481904  0.94870722  1
  Se  Se157  1  0.41923908  0.25326542  0.44472443  1
  Se  Se158  1  0.41884451  0.24512166  0.94856046  1
  Se  Se159  1  0.41410546  0.58388406  0.45273731  1
  Se  Se160  1  0.41924718  0.59060352  0.92930144  1
  Se  Se161  1  0.41073269  0.93019244  0.44011390  1
  Se  Se162  1  0.41351539  0.92549116  0.92691566  1
  Se  Se163  1  0.78427998  0.22536466  0.45492278  1
  Se  Se164  1  0.75017598  0.24780561  0.94971772  1
  Se  Se165  1  0.77148904  0.56016823  0.43929184  1
  Se  Se166  1  0.74903523  0.58791363  0.94148432  1
  Se  Se167  1  0.75248727  0.91624320  0.44805139  1
  Se  Se168  1  0.74191481  0.92335255  0.94101035  1
  Se  Se169  1  0.25265321  0.08428601  0.44649600  1
  Se  Se170  1  0.25476924  0.07726465  0.93537588  1
  Se  Se171  1  0.25368661  0.41720357  0.44020989  1
  Se  Se172  1  0.25674137  0.40921596  0.94031902  1
  Se  Se173  1  0.24673405  0.75423242  0.45441405  1
  Se  Se174  1  0.24317951  0.74937144  0.94292205  1
  Se  Se175  1  0.58647334  0.08540401  0.45312765  1
  Se  Se176  1  0.57878427  0.08610171  0.95050154  1
  Se  Se177  1  0.58402296  0.42038615  0.44310966  1
  Se  Se178  1  0.59010261  0.40758715  0.94410900  1
  Se  Se179  1  0.59684265  0.75039757  0.44071336  1
  Se  Se180  1  0.59321726  0.74696354  0.93568618  1
  Se  Se181  1  0.92742510  0.07297412  0.44525835  1
  Se  Se182  1  0.91304568  0.08593933  0.93533372  1
  Se  Se183  1  0.94479456  0.37975873  0.44729678  1
  Se  Se184  1  0.91568010  0.41362153  0.93303722  1
  Se  Se185  1  0.91126163  0.74860222  0.44575184  1
  Se  Se186  1  0.91948534  0.74133231  0.94057777  1
  Se  Se187  1  0.25160604  0.25947672  0.30480413  1
  Se  Se188  1  0.25189192  0.24922334  0.79642094  1
  Se  Se189  1  0.24846390  0.58053793  0.32026628  1
  Se  Se190  1  0.24636491  0.58276707  0.79953669  1
  Se  Se191  1  0.24565662  0.91821831  0.30831124  1
  Se  Se192  1  0.24042337  0.91211274  0.80788127  1
  Se  Se193  1  0.58824951  0.24559038  0.31489374  1
  Se  Se194  1  0.58433070  0.25500406  0.80886190  1
  Se  Se195  1  0.57744861  0.57450289  0.30238251  1
  Se  Se196  1  0.58868831  0.58629310  0.79565356  1
  Se  Se197  1  0.58894439  0.91754418  0.30380269  1
  Se  Se198  1  0.56651644  0.90413138  0.79577193  1
  Se  Se199  1  0.90257051  0.25020826  0.31735185  1
  Se  Se200  1  0.92634946  0.27039010  0.79841957  1
  Se  Se201  1  0.92157598  0.58397878  0.30457303  1
  Se  Se202  1  0.90928043  0.58149527  0.79411805  1
  Se  Se203  1  0.90945199  0.91297574  0.31332013  1
  Se  Se204  1  0.90846463  0.91063069  0.80326851  1
  Se  Se205  1  0.08015426  0.10186765  0.31972476  1
  Se  Se206  1  0.08586608  0.07983350  0.79576903  1
  Se  Se207  1  0.08173188  0.43165639  0.32061575  1
  Se  Se208  1  0.08399209  0.41647022  0.79464157  1
  Se  Se209  1  0.08318100  0.75096362  0.30524159  1
  Se  Se210  1  0.07537259  0.74850656  0.80383314  1
  Se  Se211  1  0.42196073  0.08621242  0.31415129  1
  Se  Se212  1  0.42657675  0.09545901  0.80515963  1
  Se  Se213  1  0.41680075  0.41077058  0.29912383  1
  Se  Se214  1  0.42201491  0.41722165  0.79936398  1
  Se  Se215  1  0.42822176  0.75100069  0.32410670  1
  Se  Se216  1  0.40479048  0.74922025  0.79086673  1
  Se  Se217  1  0.74068591  0.08690615  0.31117188  1
  Se  Se218  1  0.73376003  0.08178023  0.80240934  1
  Se  Se219  1  0.76251462  0.40228756  0.32184985  1
  Se  Se220  1  0.75056776  0.42535391  0.80645878  1
  Se  Se221  1  0.74317884  0.73712964  0.30325625  1
  Se  Se222  1  0.74486342  0.74718011  0.79608607  1
  Se  Se223  1  0.23874038  0.09376779  0.19412397  1
  Se  Se224  1  0.24532888  0.09133568  0.68122068  1
  Se  Se225  1  0.24544582  0.41508963  0.20639694  1
  Se  Se226  1  0.25216757  0.41240637  0.69454128  1
  Se  Se227  1  0.25274196  0.75587367  0.19480644  1
  Se  Se228  1  0.24619755  0.74841490  0.69769787  1
  Se  Se229  1  0.58300955  0.08143239  0.19908852  1
  Se  Se230  1  0.58891261  0.09249627  0.69380382  1
  Se  Se231  1  0.58345462  0.41625525  0.20842984  1
  Se  Se232  1  0.58421156  0.43109778  0.67657947  1
  Se  Se233  1  0.58822664  0.74222285  0.20312095  1
  Se  Se234  1  0.57903004  0.75544489  0.69352150  1
  Se  Se235  1  0.91422012  0.09882248  0.19825162  1
  Se  Se236  1  0.92874065  0.07464479  0.69631882  1
  Se  Se237  1  0.90599612  0.42566074  0.18956238  1
  Se  Se238  1  0.90898736  0.41610569  0.68865335  1
  Se  Se239  1  0.92553859  0.75548698  0.20028976  1
  Se  Se240  1  0.91355130  0.74200183  0.69143153  1
  Se  Se241  1  0.08283699  0.24907245  0.19779832  1
  Se  Se242  1  0.07802227  0.24894270  0.69013085  1
  Se  Se243  1  0.08823071  0.58812869  0.20350974  1
  Se  Se244  1  0.07725170  0.58552567  0.69733776  1
  Se  Se245  1  0.09212756  0.91909202  0.19147086  1
  Se  Se246  1  0.07623675  0.91349376  0.69482197  1
  Se  Se247  1  0.41487776  0.24161909  0.20136746  1
  Se  Se248  1  0.42490170  0.26374205  0.69140172  1
  Se  Se249  1  0.42386998  0.57782592  0.18966733  1
  Se  Se250  1  0.41793493  0.58294934  0.69339604  1
  Se  Se251  1  0.43168277  0.90170314  0.19246430  1
  Se  Se252  1  0.41807998  0.91795810  0.68549483  1
  Se  Se253  1  0.74570066  0.25322588  0.19889933  1
  Se  Se254  1  0.76289243  0.24046750  0.68882610  1
  Se  Se255  1  0.75360963  0.57951787  0.20434702  1
  Se  Se256  1  0.74156980  0.58460647  0.68294798  1
  Se  Se257  1  0.76330131  0.91732850  0.20301072  1
  Se  Se258  1  0.74968333  0.91614706  0.69214373  1
