# generated using pymatgen
data_In86Cu29Se144
_symmetry_space_group_name_H-M   'P 1'
_cell_length_a   17.57606171
_cell_length_b   17.57761771
_cell_length_c   23.43280192
_cell_angle_alpha   89.96847329
_cell_angle_beta   90.00872970
_cell_angle_gamma   89.98231408
_symmetry_Int_Tables_number   1
_chemical_formula_structural   In86Cu29Se144
_chemical_formula_sum   'In86 Cu29 Se144'
_cell_volume   7239.45234340
_cell_formula_units_Z   1
loop_
 _symmetry_equiv_pos_site_id
 _symmetry_equiv_pos_as_xyz
  1  'x, y, z'
loop_
 _atom_site_type_symbol
 _atom_site_label
 _atom_site_symmetry_multiplicity
 _atom_site_fract_x
 _atom_site_fract_y
 _atom_site_fract_z
 _atom_site_occupancy
  In  In0  1  0.00913467  0.15797935  0.13522687  1
  In  In1  1  0.00890499  0.17698167  0.61637547  1
  In  In2  1  -0.00731726  0.50714783  0.13276332  1
  In  In3  1  0.00390456  0.49886789  0.62865229  1
  In  In4  1  0.00694352  0.82604011  0.13375975  1
  In  In5  1  0.00994645  0.82215805  0.62158389  1
  In  In6  1  0.32621655  0.15884065  0.11983081  1
  In  In7  1  0.33017921  0.16499558  0.61214083  1
  In  In8  1  0.33659476  0.48573538  0.12176297  1
  In  In9  1  0.33152664  0.51339252  0.63096153  1
  In  In10  1  0.33438456  0.85129416  0.12896868  1
  In  In11  1  0.31660620  0.83463547  0.61947520  1
  In  In12  1  0.66294516  0.16969940  0.12987471  1
  In  In13  1  0.65628564  0.15586466  0.61255061  1
  In  In14  1  0.67090674  0.49665665  0.12157044  1
  In  In15  1  0.67528632  0.50554361  0.62690735  1
  In  In16  1  0.67745187  0.82491226  0.14333243  1
  In  In17  1  0.67164102  0.83251497  0.63068012  1
  In  In18  1  0.16738693  0.00514214  0.37584923  1
  In  In19  1  0.16530390  0.00181161  0.88120973  1
  In  In20  1  0.16292916  0.33867944  0.38605293  1
  In  In21  1  0.15609555  0.33113855  0.87165169  1
  In  In22  1  0.14480595  0.67831304  0.39518104  1
  In  In23  1  0.17297544  0.67452231  0.86837425  1
  In  In24  1  0.50333766  0.00881841  0.36945351  1
  In  In25  1  0.50807069  0.00058071  0.87598854  1
  In  In26  1  0.49713142  0.31967991  0.37494304  1
  In  In27  1  0.50547354  0.32836220  0.88105306  1
  In  In28  1  0.51233667  0.66396722  0.37273420  1
  In  In29  1  0.49491918  0.66398241  0.87066859  1
  In  In30  1  0.84292594  0.00197955  0.36127906  1
  In  In31  1  0.82455929  0.01112454  0.87420951  1
  In  In32  1  0.82294233  0.32238034  0.36647080  1
  In  In33  1  0.84934545  0.33612199  0.87582151  1
  In  In34  1  0.83543686  0.67231929  0.36420403  1
  In  In35  1  0.82622688  0.66175306  0.87177978  1
  In  In36  1  -0.00191680  0.16567001  0.37342033  1
  In  In37  1  0.00179797  0.17903716  0.87257547  1
  In  In38  1  0.00712717  0.50442878  0.37100202  1
  In  In39  1  -0.00828628  0.49794424  0.87298165  1
  In  In40  1  0.00272746  0.83870070  0.36661590  1
  In  In41  1  0.01640327  0.83431901  0.87800498  1
  In  In42  1  0.34380806  0.15647581  0.39556556  1
  In  In43  1  0.33298592  0.16684983  0.87771938  1
  In  In44  1  0.32446556  0.48344312  0.38212893  1
  In  In45  1  0.33451729  0.51326177  0.87275798  1
  In  In46  1  0.31501539  0.84132008  0.38056856  1
  In  In47  1  0.32945223  0.82198509  0.87368661  1
  In  In48  1  0.66605669  0.16595972  0.37312172  1
  In  In49  1  0.65946941  0.15478073  0.87207966  1
  In  In50  1  0.67760141  0.50695369  0.36412528  1
  In  In51  1  0.65972295  0.50747447  0.88221123  1
  In  In52  1  0.67134857  0.83099924  0.36224713  1
  In  In53  1  0.66859936  0.83450272  0.86896607  1
  In  In54  1  0.16791267  0.00162746  0.12875706  1
  In  In55  1  0.17509369  0.00347944  0.60467172  1
  In  In56  1  0.17381708  0.31899366  0.12922746  1
  In  In57  1  0.15067445  0.31717022  0.61556249  1
  In  In58  1  0.15180523  0.66640648  0.12811799  1
  In  In59  1  0.16314331  0.66949590  0.62199231  1
  In  In60  1  0.49431673  0.00341153  0.13172802  1
  In  In61  1  0.50302450  0.01547511  0.62463810  1
  In  In62  1  0.50786632  0.33614676  0.11710106  1
  In  In63  1  0.50222395  0.32133986  0.62205184  1
  In  In64  1  0.51110129  0.66404113  0.12204563  1
  In  In65  1  0.50535598  0.66089884  0.63221557  1
  In  In66  1  0.83617172  -0.00760136  0.14244492  1
  In  In67  1  0.81938044  -0.00053713  0.62169847  1
  In  In68  1  0.82722421  0.34140717  0.13097458  1
  In  In69  1  0.84788904  0.33728683  0.62305718  1
  In  In70  1  0.84587691  0.66007213  0.13283258  1
  In  In71  1  0.83938449  0.66838207  0.63042906  1
  In  In72  1  0.16771003  0.49850184  -0.00242594  1
  In  In73  1  0.83719450  0.83232340  0.01216912  1
  In  In74  1  0.66970637  0.33170850  0.75195636  1
  In  In75  1  -0.00334050  -0.00089986  0.75045016  1
  In  In76  1  0.50027932  0.49581860  0.50353600  1
  In  In77  1  0.33059110  0.66507793  0.25933570  1
  In  In78  1  0.33357220  0.00120884  0.73831093  1
  In  In79  1  0.32786580  0.33216610  0.74098200  1
  In  In80  1  0.33022738  0.32650392  0.25665246  1
  In  In81  1  0.49873744  0.83611489  0.00300961  1
  In  In82  1  0.83504018  0.17212533  0.00163795  1
  In  In83  1  0.49957598  0.83447666  0.49202218  1
  In  In84  1  0.83882949  0.50387988  0.50080556  1
  In  In85  1  0.83826451  0.83543018  0.49311840  1
  Cu  Cu86  1  0.82984262  0.16793922  0.74834796  1
  Cu  Cu87  1  0.66949145  0.33279961  0.00355027  1
  Cu  Cu88  1  0.33907381  0.32895501  -0.00040169  1
  Cu  Cu89  1  0.33210631  0.66209411  0.50300595  1
  Cu  Cu90  1  0.83469085  0.16882810  0.25061722  1
  Cu  Cu91  1  0.16464017  0.83128789  0.74594982  1
  Cu  Cu92  1  0.66399076  0.00198532  0.00560429  1
  Cu  Cu93  1  0.16495469  0.83546824  0.25457000  1
  Cu  Cu94  1  0.00070357  0.66954189  0.00593166  1
  Cu  Cu95  1  0.66494259  0.32801856  0.49285192  1
  Cu  Cu96  1  0.33190242  0.66663403  -0.00538695  1
  Cu  Cu97  1  0.83640179  0.49440130  0.24945174  1
  Cu  Cu98  1  -0.00144278  -0.00082436  0.48985535  1
  Cu  Cu99  1  0.32981495  0.00558840  0.00450015  1
  Cu  Cu100  1  0.66720818  0.65520119  -0.00133454  1
  Cu  Cu101  1  0.83672301  0.50685280  0.74961589  1
  Cu  Cu102  1  0.66334297  0.00504000  0.49477286  1
  Cu  Cu103  1  0.50812166  0.49835609  0.24427004  1
  Cu  Cu104  1  0.01303159  0.00623203  0.00444828  1
  Cu  Cu105  1  0.49635048  0.83888634  0.25053158  1
  Cu  Cu106  1  0.15882650  0.50507904  0.75040904  1
  Cu  Cu107  1  0.50241797  0.83131337  0.75047319  1
  Cu  Cu108  1  0.50061122  0.50168169  0.75429002  1
  Cu  Cu109  1  0.00609174  0.33265163  0.00132662  1
  Cu  Cu110  1  0.16511563  0.16238339  0.25477672  1
  Cu  Cu111  1  0.15697207  0.50242633  0.25792677  1
  Cu  Cu112  1  0.83334611  0.83325715  0.74741140  1
  Cu  Cu113  1  0.49890661  0.16824120  0.25166010  1
  Cu  Cu114  1  -0.00785070  0.32865289  0.49621617  1
  Se  Se115  1  0.09216319  0.09182455  0.05806118  1
  Se  Se116  1  0.07787570  0.08357282  0.54702151  1
  Se  Se117  1  0.08342038  0.41293534  0.06472015  1
  Se  Se118  1  0.07105008  0.41224817  0.55382423  1
  Se  Se119  1  0.08490810  0.75477000  0.05494269  1
  Se  Se120  1  0.09337735  0.75596917  0.54776689  1
  Se  Se121  1  0.42121029  0.08260816  0.05527744  1
  Se  Se122  1  0.41470822  0.07570938  0.55141057  1
  Se  Se123  1  0.42096818  0.41703570  0.04854798  1
  Se  Se124  1  0.40895263  0.41298677  0.56578763  1
  Se  Se125  1  0.40648236  0.74495294  0.06216989  1
  Se  Se126  1  0.41763133  0.74213947  0.55953429  1
  Se  Se127  1  0.75396682  0.07550969  0.06301201  1
  Se  Se128  1  0.75256418  0.08465884  0.54629810  1
  Se  Se129  1  0.75661189  0.41614940  0.05144165  1
  Se  Se130  1  0.74209618  0.40858150  0.55533446  1
  Se  Se131  1  0.74127890  0.73804260  0.06188570  1
  Se  Se132  1  0.75103481  0.74704179  0.55765286  1
  Se  Se133  1  0.25082510  0.24969941  0.05123233  1
  Se  Se134  1  0.25159837  0.25658034  0.55015202  1
  Se  Se135  1  0.25507765  0.58922510  0.06166432  1
  Se  Se136  1  0.24762118  0.58106289  0.55592201  1
  Se  Se137  1  0.24829110  0.91843634  0.05569807  1
  Se  Se138  1  0.25467033  0.91452313  0.54142773  1
  Se  Se139  1  0.58720524  0.24455022  0.05209679  1
  Se  Se140  1  0.57904055  0.24730226  0.54620311  1
  Se  Se141  1  0.58096344  0.57526794  0.05198226  1
  Se  Se142  1  0.59462783  0.59100638  0.55511169  1
  Se  Se143  1  0.59266314  0.91532638  0.06681171  1
  Se  Se144  1  0.59139655  0.91902775  0.55660673  1
  Se  Se145  1  0.92609452  0.25496180  0.06468859  1
  Se  Se146  1  0.90938096  0.24532087  0.55003510  1
  Se  Se147  1  0.91810731  0.58249041  0.05488252  1
  Se  Se148  1  0.92891871  0.59509092  0.55732470  1
  Se  Se149  1  0.92818096  0.92957896  0.06340660  1
  Se  Se150  1  0.92451093  0.92346247  0.55934709  1
  Se  Se151  1  0.07849629  0.24553409  0.44593642  1
  Se  Se152  1  0.08634318  0.24812625  0.94784281  1
  Se  Se153  1  0.09147901  0.56332528  0.44968326  1
  Se  Se154  1  0.07876852  0.59201213  0.94037254  1
  Se  Se155  1  0.08280184  0.91425280  0.44030516  1
  Se  Se156  1  0.08930626  0.91592579  0.95173642  1
  Se  Se157  1  0.40620593  0.26833115  0.45017965  1
  Se  Se158  1  0.42077937  0.24386112  0.94635216  1
  Se  Se159  1  0.41276077  0.58828424  0.43944141  1
  Se  Se160  1  0.41970542  0.58403017  0.94646988  1
  Se  Se161  1  0.40959619  0.92887011  0.43956983  1
  Se  Se162  1  0.40610357  0.92310586  0.94096132  1
  Se  Se163  1  0.75204402  0.24463403  0.44421219  1
  Se  Se164  1  0.74396996  0.25510874  0.93541304  1
  Se  Se165  1  0.74866469  0.59212852  0.44027728  1
  Se  Se166  1  0.75804890  0.57804146  0.94760423  1
  Se  Se167  1  0.74343791  0.92395688  0.43571912  1
  Se  Se168  1  0.74603875  0.92099452  0.94692350  1
  Se  Se169  1  0.23654907  0.08983938  0.45045144  1
  Se  Se170  1  0.24864646  0.08690175  0.94686197  1
  Se  Se171  1  0.25051687  0.41073733  0.45774447  1
  Se  Se172  1  0.25931627  0.40886875  0.93684654  1
  Se  Se173  1  0.25085740  0.74867675  0.45129968  1
  Se  Se174  1  0.24490988  0.75135118  0.94754065  1
  Se  Se175  1  0.57844139  0.08911503  0.44414638  1
  Se  Se176  1  0.58193324  0.08324562  0.95031820  1
  Se  Se177  1  0.59189328  0.41674564  0.43502768  1
  Se  Se178  1  0.58477484  0.41477784  0.94778177  1
  Se  Se179  1  0.59861978  0.74449239  0.44241955  1
  Se  Se180  1  0.59062373  0.74588318  0.94302148  1
  Se  Se181  1  0.91088836  0.08056320  0.44009117  1
  Se  Se182  1  0.92674655  0.07765529  0.94233192  1
  Se  Se183  1  0.91487600  0.40970340  0.43507454  1
  Se  Se184  1  0.92138102  0.41735396  0.95077781  1
  Se  Se185  1  0.92706601  0.74124960  0.43851903  1
  Se  Se186  1  0.92093739  0.74845650  0.94255241  1
  Se  Se187  1  0.24368709  0.23985260  0.31860761  1
  Se  Se188  1  0.24277761  0.24264609  0.80516896  1
  Se  Se189  1  0.24055936  0.57722670  0.31903730  1
  Se  Se190  1  0.24929109  0.58455525  0.80075313  1
  Se  Se191  1  0.24879877  0.92184390  0.30308162  1
  Se  Se192  1  0.24459480  0.91392005  0.80554436  1
  Se  Se193  1  0.58449546  0.25145936  0.30242107  1
  Se  Se194  1  0.57256388  0.24099014  0.80295827  1
  Se  Se195  1  0.58667870  0.58586752  0.29784994  1
  Se  Se196  1  0.58655135  0.58506498  0.80530479  1
  Se  Se197  1  0.58239275  0.92001498  0.30335790  1
  Se  Se198  1  0.58237652  0.91730995  0.80381660  1
  Se  Se199  1  0.92054440  0.25161827  0.30192542  1
  Se  Se200  1  0.91501317  0.25032169  0.80033060  1
  Se  Se201  1  0.91805134  0.58035138  0.30274097  1
  Se  Se202  1  0.91997047  0.58979497  0.80410839  1
  Se  Se203  1  0.90064342  0.89493748  0.29938977  1
  Se  Se204  1  0.90811614  0.90944424  0.81541486  1
  Se  Se205  1  0.07819823  0.07839621  0.30452584  1
  Se  Se206  1  0.08928264  0.08874557  0.80719677  1
  Se  Se207  1  0.08272263  0.40760413  0.30738890  1
  Se  Se208  1  0.07964281  0.41929357  0.80499142  1
  Se  Se209  1  0.08723880  0.74444786  0.30588518  1
  Se  Se210  1  0.08085173  0.75066601  0.80111165  1
  Se  Se211  1  0.41083120  0.09324537  0.30803978  1
  Se  Se212  1  0.41957349  0.08425094  0.80661112  1
  Se  Se213  1  0.42492771  0.42525714  0.30742324  1
  Se  Se214  1  0.41973514  0.41612857  0.80901808  1
  Se  Se215  1  0.42028622  0.76076061  0.31620403  1
  Se  Se216  1  0.41544166  0.75044319  0.80242227  1
  Se  Se217  1  0.74871462  0.08550430  0.30219865  1
  Se  Se218  1  0.74572148  0.08328426  0.79891470  1
  Se  Se219  1  0.74721711  0.41198149  0.29795254  1
  Se  Se220  1  0.75758421  0.42501418  0.81109184  1
  Se  Se221  1  0.73753377  0.73481494  0.29684925  1
  Se  Se222  1  0.75024381  0.74980609  0.80277080  1
  Se  Se223  1  0.25206300  0.08516794  0.19797310  1
  Se  Se224  1  0.23730735  0.09088334  0.68569754  1
  Se  Se225  1  0.24123745  0.42516776  0.19779096  1
  Se  Se226  1  0.23379345  0.42327119  0.68727067  1
  Se  Se227  1  0.24634776  0.75419847  0.19307156  1
  Se  Se228  1  0.25010143  0.74863032  0.69372839  1
  Se  Se229  1  0.58173340  0.08452894  0.19783575  1
  Se  Se230  1  0.59201215  0.08384744  0.69468321  1
  Se  Se231  1  0.58727514  0.41241495  0.19098124  1
  Se  Se232  1  0.57642482  0.42232126  0.69053534  1
  Se  Se233  1  0.57362001  0.74875599  0.19858507  1
  Se  Se234  1  0.58765882  0.74830580  0.69730827  1
  Se  Se235  1  0.92091126  0.08181009  0.20317647  1
  Se  Se236  1  0.91002916  0.08765760  0.68698589  1
  Se  Se237  1  0.92272826  0.41082328  0.19854380  1
  Se  Se238  1  0.91743128  0.41935373  0.69818442  1
  Se  Se239  1  0.89962189  0.76848227  0.19480085  1
  Se  Se240  1  0.92200467  0.75550371  0.69586831  1
  Se  Se241  1  0.08650648  0.25060220  0.20148669  1
  Se  Se242  1  0.07502203  0.25230870  0.69616484  1
  Se  Se243  1  0.07796673  0.58743564  0.20230745  1
  Se  Se244  1  0.07996399  0.59075859  0.69497082  1
  Se  Se245  1  0.08459761  0.91874279  0.19790889  1
  Se  Se246  1  0.09237814  0.91971631  0.68650095  1
  Se  Se247  1  0.41986663  0.24760268  0.18799748  1
  Se  Se248  1  0.42047270  0.23518915  0.69095703  1
  Se  Se249  1  0.41715681  0.57689440  0.19140124  1
  Se  Se250  1  0.41709179  0.58650904  0.70231695  1
  Se  Se251  1  0.41086896  0.92541622  0.20408689  1
  Se  Se252  1  0.42511211  0.90548129  0.68360653  1
  Se  Se253  1  0.74980378  0.25025158  0.19624467  1
  Se  Se254  1  0.75337231  0.24741197  0.68392916  1
  Se  Se255  1  0.75311360  0.57679800  0.19293016  1
  Se  Se256  1  0.75086766  0.58838231  0.69764857  1
  Se  Se257  1  0.73334198  0.93102068  0.20452212  1
  Se  Se258  1  0.74952175  0.92008604  0.69903303  1
