# generated using pymatgen
data_In86Cu29Se144
_symmetry_space_group_name_H-M   'P 1'
_cell_length_a   17.57959402
_cell_length_b   17.58188810
_cell_length_c   23.43782383
_cell_angle_alpha   90.02646584
_cell_angle_beta   89.96730762
_cell_angle_gamma   90.02487974
_symmetry_Int_Tables_number   1
_chemical_formula_structural   In86Cu29Se144
_chemical_formula_sum   'In86 Cu29 Se144'
_cell_volume   7244.21749270
_cell_formula_units_Z   1
loop_
 _symmetry_equiv_pos_site_id
 _symmetry_equiv_pos_as_xyz
  1  'x, y, z'
loop_
 _atom_site_type_symbol
 _atom_site_label
 _atom_site_symmetry_multiplicity
 _atom_site_fract_x
 _atom_site_fract_y
 _atom_site_fract_z
 _atom_site_occupancy
  In  In0  1  -0.00033166  0.18182152  0.12301093  1
  In  In1  1  0.00858112  0.14824016  0.63184366  1
  In  In2  1  0.00136999  0.50543207  0.12125963  1
  In  In3  1  -0.00711770  0.51386485  0.62159607  1
  In  In4  1  -0.01232762  0.83195263  0.12774043  1
  In  In5  1  0.01114487  0.83507036  0.60790814  1
  In  In6  1  0.33800926  0.14564292  0.12591525  1
  In  In7  1  0.33744760  0.16037546  0.62041395  1
  In  In8  1  0.33568915  0.51342083  0.12451245  1
  In  In9  1  0.35020489  0.48796412  0.64121834  1
  In  In10  1  0.35775203  0.81749042  0.14417884  1
  In  In11  1  0.32229372  0.84578865  0.62847050  1
  In  In12  1  0.66537950  0.16450586  0.12108432  1
  In  In13  1  0.64989572  0.16553657  0.62498335  1
  In  In14  1  0.67995330  0.48630306  0.14466649  1
  In  In15  1  0.67082016  0.50250136  0.61350682  1
  In  In16  1  0.65078509  0.84602013  0.14571256  1
  In  In17  1  0.67886471  0.83428194  0.62037751  1
  In  In18  1  0.18609134  -0.02024624  0.39635166  1
  In  In19  1  0.17733608  0.02113571  0.85185782  1
  In  In20  1  0.15932062  0.32699093  0.38063301  1
  In  In21  1  0.17906076  0.33651470  0.86999233  1
  In  In22  1  0.17957835  0.67638452  0.36684478  1
  In  In23  1  0.16514822  0.65430497  0.87672464  1
  In  In24  1  0.50648630  -0.00295616  0.36969329  1
  In  In25  1  0.50197079  -0.00218473  0.87660098  1
  In  In26  1  0.51208644  0.32253732  0.37697949  1
  In  In27  1  0.48080992  0.32944688  0.87381138  1
  In  In28  1  0.48706952  0.66689865  0.36727739  1
  In  In29  1  0.50636393  0.67751346  0.87588165  1
  In  In30  1  0.81777124  -0.00570715  0.37254898  1
  In  In31  1  0.84281733  0.00680397  0.86568752  1
  In  In32  1  0.82676607  0.34845030  0.37228417  1
  In  In33  1  0.82406734  0.34230212  0.88053487  1
  In  In34  1  0.83567958  0.66415189  0.37248103  1
  In  In35  1  0.82166390  0.66286005  0.88006211  1
  In  In36  1  0.00822340  0.17152760  0.38012192  1
  In  In37  1  0.00469679  0.15877535  0.87077657  1
  In  In38  1  -0.01981170  0.51001483  0.38107379  1
  In  In39  1  -0.00508623  0.50997075  0.88163335  1
  In  In40  1  0.01212769  0.81228434  0.38908212  1
  In  In41  1  -0.00645681  0.84540063  0.87280116  1
  In  In42  1  0.35362956  0.14509374  0.39699799  1
  In  In43  1  0.34088647  0.17101969  0.87138746  1
  In  In44  1  0.33164295  0.51722385  0.37629547  1
  In  In45  1  0.33038226  0.48948286  0.86616388  1
  In  In46  1  0.33595145  0.82614469  0.37124633  1
  In  In47  1  0.34034484  0.84442275  0.86799973  1
  In  In48  1  0.65706030  0.15286363  0.36480201  1
  In  In49  1  0.67449671  0.15977926  0.88254063  1
  In  In50  1  0.66857476  0.49794503  0.36917412  1
  In  In51  1  0.66866713  0.51235474  0.87896976  1
  In  In52  1  0.66671449  0.84496237  0.36690621  1
  In  In53  1  0.65301730  0.82800611  0.87865006  1
  In  In54  1  0.18130686  0.00710248  0.12494198  1
  In  In55  1  0.17605395  -0.00371269  0.61804435  1
  In  In56  1  0.15273510  0.33648175  0.12330296  1
  In  In57  1  0.18581268  0.33045244  0.62967919  1
  In  In58  1  0.17672084  0.66242484  0.12928099  1
  In  In59  1  0.17119041  0.68781802  0.61557806  1
  In  In60  1  0.50213560  -0.00247484  0.12235475  1
  In  In61  1  0.48198918  0.01493308  0.63067230  1
  In  In62  1  0.51382416  0.33337968  0.12350241  1
  In  In63  1  0.49631895  0.32684356  0.61793759  1
  In  In64  1  0.50176093  0.67042920  0.13523153  1
  In  In65  1  0.49795112  0.65302571  0.62277729  1
  In  In66  1  0.82071698  -0.00582777  0.12176865  1
  In  In67  1  0.84051831  -0.00813289  0.63053949  1
  In  In68  1  0.82744261  0.33129407  0.11863233  1
  In  In69  1  0.82682010  0.34316383  0.62349328  1
  In  In70  1  0.83494816  0.65801545  0.13991265  1
  In  In71  1  0.84076437  0.66575319  0.60551090  1
  In  In72  1  0.16857425  0.50028208  0.50467642  1
  In  In73  1  0.83427148  0.16704055  0.49975295  1
  In  In74  1  0.66239168  0.66653930  0.74698509  1
  In  In75  1  0.50104468  0.50043066  -0.00035497  1
  In  In76  1  -0.00020461  0.33322600  0.74314127  1
  In  In77  1  -0.00270328  0.33640873  0.25561444  1
  In  In78  1  0.33356412  0.33136020  0.25235149  1
  In  In79  1  0.00242255  0.67267968  0.74793019  1
  In  In80  1  0.16883348  0.83769113  -0.00388243  1
  In  In81  1  0.50015108  0.83630457  0.49679794  1
  In  In82  1  0.82554127  0.82873641  0.00285844  1
  In  In83  1  0.16936546  0.17194746  -0.00845782  1
  In  In84  1  0.65913533  0.33796938  0.75335563  1
  In  In85  1  -0.00099399  -0.00201493  0.25124362  1
  Cu  Cu86  1  0.00109427  0.01008141  -0.01037987  1
  Cu  Cu87  1  0.33973461  0.33458677  0.50543878  1
  Cu  Cu88  1  0.66450280  -0.00011872  0.00169719  1
  Cu  Cu89  1  0.16211588  0.50709480  0.24935710  1
  Cu  Cu90  1  0.00166443  0.33010799  0.50366854  1
  Cu  Cu91  1  0.34453919  -0.00881839  0.00027870  1
  Cu  Cu92  1  -0.00111048  0.66256503  0.00628848  1
  Cu  Cu93  1  0.49871790  0.83737740  0.75107050  1
  Cu  Cu94  1  0.17624279  0.15797845  0.26000583  1
  Cu  Cu95  1  0.16522194  0.83494680  0.25727976  1
  Cu  Cu96  1  0.66620327  0.33167545  0.00341498  1
  Cu  Cu97  1  -0.00903335  0.34225844  0.00013981  1
  Cu  Cu98  1  0.66737159  0.66278678  0.49330829  1
  Cu  Cu99  1  0.33336071  0.66819563  0.49835193  1
  Cu  Cu100  1  0.66731514  0.33592690  0.49603713  1
  Cu  Cu101  1  0.32739859  0.33191244  -0.00483220  1
  Cu  Cu102  1  0.16583955  0.83883525  0.74182646  1
  Cu  Cu103  1  0.33580950  0.66876394  0.00559879  1
  Cu  Cu104  1  0.83509898  0.83756795  0.74418207  1
  Cu  Cu105  1  0.66233728  0.00227062  0.49689297  1
  Cu  Cu106  1  0.82626432  0.16667385  0.75359077  1
  Cu  Cu107  1  0.50414133  0.16167504  0.25078632  1
  Cu  Cu108  1  0.82556809  0.16777826  0.24483851  1
  Cu  Cu109  1  0.66812676  0.66442352  0.01202839  1
  Cu  Cu110  1  0.17129504  0.50244696  0.74988269  1
  Cu  Cu111  1  0.83585700  0.82743872  0.25465064  1
  Cu  Cu112  1  0.49565651  0.16053629  0.74852152  1
  Cu  Cu113  1  -0.00203447  -0.00502080  0.50452445  1
  Cu  Cu114  1  0.49809554  0.50234411  0.25121116  1
  Se  Se115  1  0.08052897  0.08133629  0.05728263  1
  Se  Se116  1  0.08334902  0.08006699  0.55283054  1
  Se  Se117  1  0.08171296  0.42033763  0.05108393  1
  Se  Se118  1  0.07978779  0.40840405  0.56694335  1
  Se  Se119  1  0.07829823  0.75042536  0.05957794  1
  Se  Se120  1  0.06142671  0.72141397  0.54890994  1
  Se  Se121  1  0.42284758  0.08300863  0.04955032  1
  Se  Se122  1  0.42073210  0.08470765  0.54721634  1
  Se  Se123  1  0.40823040  0.40867944  0.05969191  1
  Se  Se124  1  0.41919093  0.42445344  0.55534292  1
  Se  Se125  1  0.42213544  0.74721374  0.05945000  1
  Se  Se126  1  0.41232004  0.74874660  0.56071651  1
  Se  Se127  1  0.75205261  0.08306864  0.05121222  1
  Se  Se128  1  0.74431356  0.07845151  0.56055821  1
  Se  Se129  1  0.74312430  0.42177847  0.05616493  1
  Se  Se130  1  0.75461155  0.41799047  0.54612191  1
  Se  Se131  1  0.74209050  0.74965583  0.07275262  1
  Se  Se132  1  0.74751869  0.74942050  0.54633740  1
  Se  Se133  1  0.25447958  0.25330900  0.06391611  1
  Se  Se134  1  0.25357391  0.25026405  0.55336825  1
  Se  Se135  1  0.24843195  0.58282071  0.05172826  1
  Se  Se136  1  0.26227226  0.58547106  0.56445332  1
  Se  Se137  1  0.26302493  0.91411089  0.06147635  1
  Se  Se138  1  0.24371389  0.90383676  0.54741420  1
  Se  Se139  1  0.58043599  0.24595033  0.05049946  1
  Se  Se140  1  0.58566441  0.25024735  0.54906074  1
  Se  Se141  1  0.58765033  0.57927489  0.06842683  1
  Se  Se142  1  0.58240449  0.58327245  0.54832110  1
  Se  Se143  1  0.58936964  0.91172073  0.05735789  1
  Se  Se144  1  0.58477121  0.92505225  0.56217594  1
  Se  Se145  1  0.91442423  0.25028737  0.05038702  1
  Se  Se146  1  0.92309221  0.25083973  0.56676686  1
  Se  Se147  1  0.90850960  0.58703400  0.05864507  1
  Se  Se148  1  0.91563979  0.57277115  0.54113743  1
  Se  Se149  1  0.92519910  0.92633660  0.05130403  1
  Se  Se150  1  0.90794848  0.91331082  0.55204704  1
  Se  Se151  1  0.08692154  0.24550793  0.45569636  1
  Se  Se152  1  0.07311237  0.26387493  0.93794600  1
  Se  Se153  1  0.09090010  0.58520715  0.43446103  1
  Se  Se154  1  0.08417048  0.58273210  0.95183384  1
  Se  Se155  1  0.08302702  0.90857208  0.45464331  1
  Se  Se156  1  0.08762074  0.93360553  0.93295054  1
  Se  Se157  1  0.42354303  0.25365900  0.44985134  1
  Se  Se158  1  0.41435269  0.24551846  0.95019267  1
  Se  Se159  1  0.42007955  0.58656348  0.44770155  1
  Se  Se160  1  0.41106527  0.58857459  0.93917388  1
  Se  Se161  1  0.40835265  0.92541695  0.44019581  1
  Se  Se162  1  0.42477055  0.90686564  0.94592365  1
  Se  Se163  1  0.74354263  0.24935934  0.43543604  1
  Se  Se164  1  0.75136503  0.25130419  0.94826023  1
  Se  Se165  1  0.75081425  0.57872451  0.44064194  1
  Se  Se166  1  0.74942194  0.58284456  0.95540947  1
  Se  Se167  1  0.74425843  0.91472826  0.44745615  1
  Se  Se168  1  0.74660661  0.92204136  0.93803501  1
  Se  Se169  1  0.23153754  0.10092447  0.44721962  1
  Se  Se170  1  0.25815265  0.07076889  0.94209421  1
  Se  Se171  1  0.25942825  0.41112185  0.44126556  1
  Se  Se172  1  0.24886556  0.42060832  0.94459027  1
  Se  Se173  1  0.25136543  0.75220999  0.44563444  1
  Se  Se174  1  0.25857565  0.74412885  0.93896679  1
  Se  Se175  1  0.57960167  0.08386381  0.44354374  1
  Se  Se176  1  0.58193618  0.08243666  0.94698704  1
  Se  Se177  1  0.58434062  0.41883039  0.44182965  1
  Se  Se178  1  0.58749657  0.40747957  0.93722419  1
  Se  Se179  1  0.58692695  0.74571491  0.43529618  1
  Se  Se180  1  0.58564422  0.74469895  0.95502194  1
  Se  Se181  1  0.92096979  0.07241169  0.43896575  1
  Se  Se182  1  0.91206098  0.09109226  0.94163736  1
  Se  Se183  1  0.91892493  0.40795615  0.44705963  1
  Se  Se184  1  0.90864623  0.42646729  0.94667576  1
  Se  Se185  1  0.90052759  0.75671358  0.44502667  1
  Se  Se186  1  0.92471514  0.74398787  0.94172036  1
  Se  Se187  1  0.25230434  0.24257929  0.31849859  1
  Se  Se188  1  0.23538166  0.23098360  0.80921815  1
  Se  Se189  1  0.25441704  0.58628089  0.29790576  1
  Se  Se190  1  0.25242237  0.58693625  0.80416468  1
  Se  Se191  1  0.24951177  0.91766163  0.30873670  1
  Se  Se192  1  0.25223132  0.91755920  0.79750048  1
  Se  Se193  1  0.58756710  0.25030222  0.29853186  1
  Se  Se194  1  0.57563827  0.24016151  0.81152072  1
  Se  Se195  1  0.58000856  0.58469133  0.30576998  1
  Se  Se196  1  0.57300652  0.57459601  0.80641320  1
  Se  Se197  1  0.57983160  0.91676558  0.29625641  1
  Se  Se198  1  0.58547378  0.91498123  0.80576646  1
  Se  Se199  1  0.90716655  0.23829407  0.31076970  1
  Se  Se200  1  0.90625586  0.25210025  0.80962340  1
  Se  Se201  1  0.91320977  0.57966139  0.30076405  1
  Se  Se202  1  0.90786250  0.58451403  0.80624471  1
  Se  Se203  1  0.91722455  0.90767990  0.31538983  1
  Se  Se204  1  0.92111173  0.92035116  0.79588174  1
  Se  Se205  1  0.09072380  0.07896632  0.31615954  1
  Se  Se206  1  0.06990858  0.08079313  0.79320786  1
  Se  Se207  1  0.08933144  0.42731743  0.31392734  1
  Se  Se208  1  0.08303244  0.42798351  0.80863846  1
  Se  Se209  1  0.07946697  0.74769452  0.30314178  1
  Se  Se210  1  0.09264191  0.76183490  0.81093429  1
  Se  Se211  1  0.41759401  0.08625015  0.30775342  1
  Se  Se212  1  0.41651617  0.07754165  0.80664561  1
  Se  Se213  1  0.41985835  0.42170702  0.31402454  1
  Se  Se214  1  0.41873086  0.41384367  0.79884823  1
  Se  Se215  1  0.41933605  0.75770126  0.29681184  1
  Se  Se216  1  0.41966328  0.75036383  0.80484648  1
  Se  Se217  1  0.74889502  0.07783988  0.29749387  1
  Se  Se218  1  0.74352090  0.08074479  0.80410054  1
  Se  Se219  1  0.74844846  0.41643813  0.29701524  1
  Se  Se220  1  0.75397449  0.43229864  0.80510095  1
  Se  Se221  1  0.74767087  0.74956313  0.30685766  1
  Se  Se222  1  0.75653584  0.75869525  0.80716252  1
  Se  Se223  1  0.25680459  0.07765919  0.20359493  1
  Se  Se224  1  0.25579486  0.07686671  0.68873297  1
  Se  Se225  1  0.24122699  0.42132401  0.19120830  1
  Se  Se226  1  0.25517342  0.41184803  0.70517319  1
  Se  Se227  1  0.24688875  0.75266954  0.19915073  1
  Se  Se228  1  0.25041411  0.74963429  0.69607180  1
  Se  Se229  1  0.58583805  0.08161459  0.19192219  1
  Se  Se230  1  0.58317898  0.07826734  0.69849404  1
  Se  Se231  1  0.57812138  0.41142936  0.20297591  1
  Se  Se232  1  0.58003225  0.42336170  0.68417685  1
  Se  Se233  1  0.57968914  0.74984445  0.20810783  1
  Se  Se234  1  0.57599470  0.75951099  0.68613512  1
  Se  Se235  1  0.91316874  0.09063623  0.18725227  1
  Se  Se236  1  0.91065810  0.08530048  0.69918225  1
  Se  Se237  1  0.91272452  0.41910322  0.18896730  1
  Se  Se238  1  0.90736864  0.43106292  0.69391130  1
  Se  Se239  1  0.92185393  0.74747364  0.20182153  1
  Se  Se240  1  0.91189556  0.75560306  0.68367000  1
  Se  Se241  1  0.09494553  0.23982377  0.20139823  1
  Se  Se242  1  0.09560883  0.24129438  0.69377388  1
  Se  Se243  1  0.08054221  0.58701579  0.19273707  1
  Se  Se244  1  0.09457152  0.58233720  0.68825847  1
  Se  Se245  1  0.09268760  0.91193341  0.18782110  1
  Se  Se246  1  0.08220060  0.91480090  0.68399223  1
  Se  Se247  1  0.42269902  0.24228455  0.18981447  1
  Se  Se248  1  0.41962278  0.24600451  0.69113682  1
  Se  Se249  1  0.41297673  0.58516416  0.19994018  1
  Se  Se250  1  0.41425836  0.59371616  0.70045925  1
  Se  Se251  1  0.39991565  0.94142642  0.19099912  1
  Se  Se252  1  0.41322620  0.91844940  0.69736903  1
  Se  Se253  1  0.74668085  0.25143139  0.18988052  1
  Se  Se254  1  0.75092226  0.24638911  0.69108101  1
  Se  Se255  1  0.73246747  0.59727766  0.20359330  1
  Se  Se256  1  0.75749348  0.58670446  0.68387121  1
  Se  Se257  1  0.75800032  0.91721342  0.20205708  1
  Se  Se258  1  0.74466589  0.91904769  0.69674275  1
