# generated using pymatgen
data_In86Cu29Se144
_symmetry_space_group_name_H-M   'P 1'
_cell_length_a   17.59497122
_cell_length_b   17.58542698
_cell_length_c   23.44464889
_cell_angle_alpha   90.01978097
_cell_angle_beta   89.99854498
_cell_angle_gamma   89.99118405
_symmetry_Int_Tables_number   1
_chemical_formula_structural   In86Cu29Se144
_chemical_formula_sum   'In86 Cu29 Se144'
_cell_volume   7254.12743007
_cell_formula_units_Z   1
loop_
 _symmetry_equiv_pos_site_id
 _symmetry_equiv_pos_as_xyz
  1  'x, y, z'
loop_
 _atom_site_type_symbol
 _atom_site_label
 _atom_site_symmetry_multiplicity
 _atom_site_fract_x
 _atom_site_fract_y
 _atom_site_fract_z
 _atom_site_occupancy
  In  In0  1  0.00343703  0.16494583  0.12319335  1
  In  In1  1  0.01856318  0.17498874  0.59985146  1
  In  In2  1  -0.01291168  0.49743676  0.12608117  1
  In  In3  1  -0.01611038  0.49316522  0.62054833  1
  In  In4  1  0.00754797  0.84748063  0.11660411  1
  In  In5  1  -0.00751969  0.84923048  0.61938617  1
  In  In6  1  0.33944323  0.17339374  0.11822425  1
  In  In7  1  0.33070884  0.18528105  0.61593014  1
  In  In8  1  0.33759383  0.49333846  0.13311817  1
  In  In9  1  0.33904070  0.49156438  0.62675594  1
  In  In10  1  0.32379989  0.83180954  0.12452690  1
  In  In11  1  0.32925223  0.81899609  0.62910158  1
  In  In12  1  0.67272365  0.16167673  0.13103546  1
  In  In13  1  0.66726962  0.15448834  0.62783229  1
  In  In14  1  0.66837005  0.48522973  0.12631646  1
  In  In15  1  0.66614745  0.50010630  0.61426424  1
  In  In16  1  0.68688335  0.84456559  0.12345217  1
  In  In17  1  0.67563762  0.84689161  0.61880919  1
  In  In18  1  0.16640477  0.02421051  0.38253267  1
  In  In19  1  0.15076579  0.01103921  0.89797468  1
  In  In20  1  0.15445288  0.32137530  0.36962864  1
  In  In21  1  0.16302703  0.33132009  0.86843960  1
  In  In22  1  0.17051186  0.65615791  0.37180885  1
  In  In23  1  0.17937558  0.67192142  0.87836935  1
  In  In24  1  0.49204760  -0.00931631  0.37561915  1
  In  In25  1  0.51520653  0.00310975  0.87359164  1
  In  In26  1  0.50767971  0.33335480  0.36832580  1
  In  In27  1  0.48572788  0.33663037  0.87424546  1
  In  In28  1  0.49556712  0.67643770  0.37651769  1
  In  In29  1  0.49130085  0.66832422  0.87307481  1
  In  In30  1  0.83926241  0.01155373  0.37567006  1
  In  In31  1  0.83177957  0.01173507  0.88671520  1
  In  In32  1  0.83312655  0.32881017  0.37542003  1
  In  In33  1  0.84324548  0.31840208  0.88437494  1
  In  In34  1  0.82668179  0.66856511  0.38171978  1
  In  In35  1  0.83793772  0.66163386  0.87970769  1
  In  In36  1  0.00001073  0.17020323  0.37808612  1
  In  In37  1  -0.00469494  0.17306466  0.88307888  1
  In  In38  1  -0.00509025  0.47818892  0.37757460  1
  In  In39  1  0.00435521  0.48147685  0.87390174  1
  In  In40  1  -0.01418147  0.83407469  0.37682644  1
  In  In41  1  -0.00570189  0.84538699  0.89158629  1
  In  In42  1  0.32281209  0.16617347  0.37797369  1
  In  In43  1  0.32246354  0.17854617  0.88147128  1
  In  In44  1  0.33885923  0.50512839  0.37216522  1
  In  In45  1  0.33552521  0.49940197  0.86677772  1
  In  In46  1  0.34796971  0.84187198  0.37424058  1
  In  In47  1  0.32553413  0.82392830  0.87819368  1
  In  In48  1  0.67121888  0.17902221  0.35911844  1
  In  In49  1  0.67703982  0.15907077  0.88158833  1
  In  In50  1  0.67729000  0.48649915  0.38123828  1
  In  In51  1  0.66841373  0.50402734  0.87699321  1
  In  In52  1  0.66353486  0.84455195  0.37556137  1
  In  In53  1  0.66701522  0.85071875  0.87454358  1
  In  In54  1  0.15426635  -0.00138184  0.11564249  1
  In  In55  1  0.16019111  0.01244651  0.62236064  1
  In  In56  1  0.17826828  0.32150175  0.13276782  1
  In  In57  1  0.16853326  0.32897418  0.62314469  1
  In  In58  1  0.17353700  0.67443645  0.12581008  1
  In  In59  1  0.17650832  0.67626940  0.63074996  1
  In  In60  1  0.50024176  0.02503821  0.13282721  1
  In  In61  1  0.51831245  0.00826973  0.62434550  1
  In  In62  1  0.51801726  0.30755103  0.15264851  1
  In  In63  1  0.47875773  0.33582852  0.61571991  1
  In  In64  1  0.49633387  0.66231502  0.12873515  1
  In  In65  1  0.49207257  0.65815896  0.61855128  1
  In  In66  1  0.83718837  0.00316891  0.12791626  1
  In  In67  1  0.83418607  -0.00086376  0.61763756  1
  In  In68  1  0.83726999  0.33105076  0.12770561  1
  In  In69  1  0.84370561  0.32948039  0.60835304  1
  In  In70  1  0.84373775  0.67272429  0.11882605  1
  In  In71  1  0.82337050  0.66729007  0.61807640  1
  In  In72  1  0.66407487  0.66664854  0.24841023  1
  In  In73  1  0.66484804  0.32848630  0.74675829  1
  In  In74  1  0.50092319  0.16568495  0.49543033  1
  In  In75  1  0.50143130  0.83523301  -0.00253273  1
  In  In76  1  0.00294380  0.66402008  0.24710099  1
  In  In77  1  0.16475720  0.49356026  0.49854672  1
  In  In78  1  0.32990494  0.00533938  0.25243127  1
  In  In79  1  0.16690459  0.83908518  0.50370881  1
  In  In80  1  0.33550726  -0.00389778  0.75387986  1
  In  In81  1  0.66368217  0.66686666  0.74916395  1
  In  In82  1  0.16531258  0.50203035  -0.00029224  1
  In  In83  1  0.00441600  0.66582306  0.74689945  1
  In  In84  1  -0.00172683  0.00574238  0.74966787  1
  In  In85  1  0.50135752  0.49312877  -0.00254534  1
  Cu  Cu86  1  0.67326161  0.32336061  0.00969606  1
  Cu  Cu87  1  0.33730848  0.33180674  0.00522505  1
  Cu  Cu88  1  0.83578864  0.85087724  0.25087223  1
  Cu  Cu89  1  -0.00471011  0.66784013  0.00211908  1
  Cu  Cu90  1  0.84125549  0.16787384  0.24963189  1
  Cu  Cu91  1  0.48674948  0.49677878  0.74113958  1
  Cu  Cu92  1  0.65848796  0.67263162  0.49777522  1
  Cu  Cu93  1  0.16928161  0.83361400  0.75752799  1
  Cu  Cu94  1  0.33503027  0.00356122  0.00436939  1
  Cu  Cu95  1  0.66890437  -0.00227841  0.49479343  1
  Cu  Cu96  1  -0.00028447  0.33227902  0.00253270  1
  Cu  Cu97  1  0.83686889  0.48269907  0.74679796  1
  Cu  Cu98  1  -0.00820253  0.66519530  0.50134188  1
  Cu  Cu99  1  0.49854845  0.49969009  0.25274760  1
  Cu  Cu100  1  0.82951816  0.83983801  0.74649510  1
  Cu  Cu101  1  0.16742904  0.17359150  0.74722465  1
  Cu  Cu102  1  0.49655392  0.17129717  0.74563339  1
  Cu  Cu103  1  0.66342053  0.33340736  0.49533113  1
  Cu  Cu104  1  0.67494608  0.66317062  -0.00070954  1
  Cu  Cu105  1  0.50266787  0.83220091  0.75156542  1
  Cu  Cu106  1  0.15852324  0.16351277  0.24842305  1
  Cu  Cu107  1  0.16702295  0.49521579  0.75075502  1
  Cu  Cu108  1  0.16833664  0.83656694  0.24535748  1
  Cu  Cu109  1  0.84118567  0.16268006  0.75443198  1
  Cu  Cu110  1  0.17141609  0.49311379  0.25457248  1
  Cu  Cu111  1  0.33771234  0.66939524  0.49826158  1
  Cu  Cu112  1  0.49968316  0.83569254  0.25306931  1
  Cu  Cu113  1  0.83230810  0.49431802  0.25250676  1
  Cu  Cu114  1  0.66739320  0.00536859  0.00396082  1
  Se  Se115  1  0.07493481  0.08193367  0.04775686  1
  Se  Se116  1  0.07539394  0.06289282  0.54324009  1
  Se  Se117  1  0.08179121  0.41103978  0.06304761  1
  Se  Se118  1  0.07009021  0.40658585  0.55469568  1
  Se  Se119  1  0.08088930  0.74392841  0.05823683  1
  Se  Se120  1  0.07510485  0.74188442  0.56167046  1
  Se  Se121  1  0.42231309  0.08732667  0.05177058  1
  Se  Se122  1  0.41470657  0.08053969  0.56269276  1
  Se  Se123  1  0.42193697  0.40606108  0.06526705  1
  Se  Se124  1  0.41200566  0.42538836  0.54605473  1
  Se  Se125  1  0.41332278  0.74372896  0.05670118  1
  Se  Se126  1  0.41648988  0.75383666  0.55428792  1
  Se  Se127  1  0.75404547  0.08589000  0.05695465  1
  Se  Se128  1  0.74572897  0.08275644  0.55220659  1
  Se  Se129  1  0.75509552  0.41461011  0.05548727  1
  Se  Se130  1  0.74968981  0.41403320  0.55017045  1
  Se  Se131  1  0.75118665  0.75000057  0.05395365  1
  Se  Se132  1  0.74604573  0.75360703  0.55054866  1
  Se  Se133  1  0.24630970  0.24887780  0.05101852  1
  Se  Se134  1  0.23430217  0.24353310  0.54676080  1
  Se  Se135  1  0.26061848  0.58407947  0.06051927  1
  Se  Se136  1  0.25191975  0.59163849  0.55632286  1
  Se  Se137  1  0.25189356  0.91896879  0.05494508  1
  Se  Se138  1  0.25847311  0.92276844  0.56635496  1
  Se  Se139  1  0.58502848  0.24856611  0.06468490  1
  Se  Se140  1  0.58854133  0.25515243  0.56225343  1
  Se  Se141  1  0.59178319  0.58712668  0.05863835  1
  Se  Se142  1  0.58004568  0.58320597  0.54988687  1
  Se  Se143  1  0.58422842  0.92545799  0.06289027  1
  Se  Se144  1  0.58312596  0.91965142  0.55041645  1
  Se  Se145  1  0.91689461  0.24930329  0.05617845  1
  Se  Se146  1  0.90127168  0.22425516  0.54303772  1
  Se  Se147  1  0.91479214  0.57836349  0.05136940  1
  Se  Se148  1  0.90816964  0.58186174  0.55359278  1
  Se  Se149  1  0.89336742  0.89874062  0.06104872  1
  Se  Se150  1  0.91130055  0.91623543  0.54577338  1
  Se  Se151  1  0.09527683  0.23751005  0.44791779  1
  Se  Se152  1  0.08655507  0.25703917  0.94493939  1
  Se  Se153  1  0.07158615  0.58801289  0.44002606  1
  Se  Se154  1  0.07350719  0.59041447  0.93740710  1
  Se  Se155  1  0.07906049  0.92137796  0.43842790  1
  Se  Se156  1  0.09839994  0.89951033  0.95587745  1
  Se  Se157  1  0.41197051  0.25878980  0.43968422  1
  Se  Se158  1  0.41955065  0.24987902  0.94822233  1
  Se  Se159  1  0.41858224  0.58605435  0.44377379  1
  Se  Se160  1  0.40762348  0.58704897  0.94421347  1
  Se  Se161  1  0.41527726  0.91864571  0.45171194  1
  Se  Se162  1  0.41116969  0.92715626  0.93754094  1
  Se  Se163  1  0.74205862  0.24768263  0.44143074  1
  Se  Se164  1  0.75581204  0.24194407  0.95229501  1
  Se  Se165  1  0.74320760  0.58574743  0.44769144  1
  Se  Se166  1  0.75494918  0.57649684  0.94677702  1
  Se  Se167  1  0.75660115  0.91975955  0.44049800  1
  Se  Se168  1  0.74861588  0.91966367  0.94949389  1
  Se  Se169  1  0.27478480  0.06418332  0.44873763  1
  Se  Se170  1  0.25147594  0.08984017  0.95254791  1
  Se  Se171  1  0.25004549  0.41125541  0.43253970  1
  Se  Se172  1  0.25902222  0.41198265  0.94185429  1
  Se  Se173  1  0.25245684  0.74660734  0.43979000  1
  Se  Se174  1  0.24942949  0.75084819  0.95361045  1
  Se  Se175  1  0.59172480  0.08016530  0.43346201  1
  Se  Se176  1  0.58317808  0.08631742  0.94919413  1
  Se  Se177  1  0.57790162  0.41617534  0.44480007  1
  Se  Se178  1  0.59626976  0.39998549  0.94168562  1
  Se  Se179  1  0.58122660  0.75890267  0.44231569  1
  Se  Se180  1  0.59384454  0.74133222  0.93767109  1
  Se  Se181  1  0.89965586  0.10869917  0.44799967  1
  Se  Se182  1  0.94244986  0.06485375  0.94591256  1
  Se  Se183  1  0.90420614  0.41704846  0.44833021  1
  Se  Se184  1  0.91747687  0.41609894  0.94796627  1
  Se  Se185  1  0.91126424  0.75120556  0.44881738  1
  Se  Se186  1  0.91050093  0.75035186  0.94883773  1
  Se  Se187  1  0.24493260  0.24282889  0.30297335  1
  Se  Se188  1  0.25326454  0.25379607  0.80117311  1
  Se  Se189  1  0.25386502  0.58379129  0.29995661  1
  Se  Se190  1  0.24446967  0.58212045  0.80487648  1
  Se  Se191  1  0.24077681  0.91506967  0.31329570  1
  Se  Se192  1  0.23774127  0.92229092  0.81854585  1
  Se  Se193  1  0.57419241  0.24637602  0.29380601  1
  Se  Se194  1  0.57752257  0.24393991  0.81263088  1
  Se  Se195  1  0.58199498  0.57774596  0.31354946  1
  Se  Se196  1  0.56970447  0.57051753  0.80485363  1
  Se  Se197  1  0.58167253  0.92166432  0.30295297  1
  Se  Se198  1  0.58666080  0.91997370  0.79855542  1
  Se  Se199  1  0.92086958  0.25256808  0.30560228  1
  Se  Se200  1  0.92190308  0.24994980  0.80553415  1
  Se  Se201  1  0.91047316  0.58000046  0.31079091  1
  Se  Se202  1  0.91227662  0.57225905  0.80436470  1
  Se  Se203  1  0.92259132  0.92663651  0.30560720  1
  Se  Se204  1  0.91105056  0.91355946  0.81028378  1
  Se  Se205  1  0.07878516  0.08308243  0.30618470  1
  Se  Se206  1  0.09232537  0.09114122  0.81011022  1
  Se  Se207  1  0.07957723  0.41362618  0.30170277  1
  Se  Se208  1  0.07971339  0.40982233  0.79663871  1
  Se  Se209  1  0.08919657  0.75698651  0.30957237  1
  Se  Se210  1  0.08087595  0.75799812  0.81458798  1
  Se  Se211  1  0.42258078  0.09314078  0.30955150  1
  Se  Se212  1  0.42060123  0.09298898  0.81212048  1
  Se  Se213  1  0.41567134  0.41540278  0.30460195  1
  Se  Se214  1  0.41013817  0.41077123  0.79736226  1
  Se  Se215  1  0.41435082  0.75151673  0.30152934  1
  Se  Se216  1  0.41538072  0.75532384  0.80506321  1
  Se  Se217  1  0.75510866  0.08489160  0.30118025  1
  Se  Se218  1  0.75558613  0.08159632  0.80696114  1
  Se  Se219  1  0.74860828  0.41023470  0.30348403  1
  Se  Se220  1  0.75421281  0.41397409  0.81168497  1
  Se  Se221  1  0.75757027  0.75887442  0.30448581  1
  Se  Se222  1  0.75652206  0.75530250  0.80891392  1
  Se  Se223  1  0.24129013  0.08713581  0.18564994  1
  Se  Se224  1  0.24982560  0.09009695  0.69227133  1
  Se  Se225  1  0.25454102  0.41062684  0.20038137  1
  Se  Se226  1  0.24760315  0.41451085  0.69184537  1
  Se  Se227  1  0.25416863  0.74899516  0.20066900  1
  Se  Se228  1  0.25330500  0.74795123  0.70843453  1
  Se  Se229  1  0.58448672  0.09234568  0.20504141  1
  Se  Se230  1  0.58597144  0.08435360  0.70446622  1
  Se  Se231  1  0.58857528  0.41901395  0.20340452  1
  Se  Se232  1  0.57603039  0.42030791  0.68633853  1
  Se  Se233  1  0.58041022  0.76270126  0.18722866  1
  Se  Se234  1  0.58002689  0.75581711  0.68575386  1
  Se  Se235  1  0.92316670  0.08335127  0.19576693  1
  Se  Se236  1  0.91799556  0.09378067  0.68362653  1
  Se  Se237  1  0.91918769  0.41342838  0.20033195  1
  Se  Se238  1  0.91564810  0.40122942  0.69073502  1
  Se  Se239  1  0.91337015  0.76123445  0.19444342  1
  Se  Se240  1  0.90946493  0.75692926  0.68930950  1
  Se  Se241  1  0.07900012  0.25165833  0.19567905  1
  Se  Se242  1  0.07969285  0.24329525  0.68702738  1
  Se  Se243  1  0.09419529  0.57156925  0.18902947  1
  Se  Se244  1  0.08991478  0.57255192  0.68508054  1
  Se  Se245  1  0.08377925  0.91956036  0.19450441  1
  Se  Se246  1  0.09226335  0.91005182  0.69335276  1
  Se  Se247  1  0.39610441  0.25620890  0.19790918  1
  Se  Se248  1  0.41296305  0.25316856  0.69321103  1
  Se  Se249  1  0.41689907  0.58407119  0.19955746  1
  Se  Se250  1  0.40788063  0.58943876  0.69415208  1
  Se  Se251  1  0.42074200  0.91506198  0.18891214  1
  Se  Se252  1  0.42508930  0.91298131  0.68862237  1
  Se  Se253  1  0.75472707  0.25048518  0.19760779  1
  Se  Se254  1  0.76106883  0.24216821  0.69050986  1
  Se  Se255  1  0.76067505  0.58037542  0.19000538  1
  Se  Se256  1  0.75561976  0.57066679  0.69333468  1
  Se  Se257  1  0.74618449  0.92958318  0.20094803  1
  Se  Se258  1  0.75088562  0.92594931  0.69375298  1
