# generated using pymatgen
data_In86Cu29Se144
_symmetry_space_group_name_H-M   'P 1'
_cell_length_a   17.59285080
_cell_length_b   17.59654612
_cell_length_c   23.45525335
_cell_angle_alpha   90.00634112
_cell_angle_beta   89.97767295
_cell_angle_gamma   90.03134298
_symmetry_Int_Tables_number   1
_chemical_formula_structural   In86Cu29Se144
_chemical_formula_sum   'In86 Cu29 Se144'
_cell_volume   7261.12109233
_cell_formula_units_Z   1
loop_
 _symmetry_equiv_pos_site_id
 _symmetry_equiv_pos_as_xyz
  1  'x, y, z'
loop_
 _atom_site_type_symbol
 _atom_site_label
 _atom_site_symmetry_multiplicity
 _atom_site_fract_x
 _atom_site_fract_y
 _atom_site_fract_z
 _atom_site_occupancy
  In  In0  1  -0.00725067  0.15637302  0.12066377  1
  In  In1  1  0.00562158  0.15534726  0.62650306  1
  In  In2  1  0.01800092  0.49529092  0.12934320  1
  In  In3  1  0.00738156  0.49982677  0.61975695  1
  In  In4  1  0.00708022  0.83408136  0.13920577  1
  In  In5  1  0.01089992  0.83738899  0.62205322  1
  In  In6  1  0.34478749  0.17907771  0.12301612  1
  In  In7  1  0.33764847  0.16804266  0.61566058  1
  In  In8  1  0.33658761  0.49977378  0.13130885  1
  In  In9  1  0.34251481  0.50880078  0.60859245  1
  In  In10  1  0.33777106  0.81879879  0.13532540  1
  In  In11  1  0.34265763  0.83313495  0.60364467  1
  In  In12  1  0.66342462  0.16336534  0.12852286  1
  In  In13  1  0.64895281  0.15590438  0.62539979  1
  In  In14  1  0.65025168  0.51398982  0.13299532  1
  In  In15  1  0.66761720  0.50411780  0.62487855  1
  In  In16  1  0.65183945  0.84851472  0.13140440  1
  In  In17  1  0.65979698  0.84291807  0.62783346  1
  In  In18  1  0.16836392  0.00878823  0.37603114  1
  In  In19  1  0.15713306  0.01650322  0.87461528  1
  In  In20  1  0.18268075  0.31994470  0.37795178  1
  In  In21  1  0.17316587  0.32843881  0.88129958  1
  In  In22  1  0.17242178  0.67048187  0.37753150  1
  In  In23  1  0.16007956  0.65971454  0.87820077  1
  In  In24  1  0.50159141  -0.00340782  0.37316418  1
  In  In25  1  0.51111240  -0.01156665  0.89289489  1
  In  In26  1  0.50407201  0.33862201  0.37521709  1
  In  In27  1  0.49899850  0.33374042  0.88317623  1
  In  In28  1  0.49308980  0.66438514  0.37534763  1
  In  In29  1  0.50745519  0.65640837  0.88292936  1
  In  In30  1  0.83110923  -0.00364781  0.36896216  1
  In  In31  1  0.83731016  0.00389969  0.87212023  1
  In  In32  1  0.82072821  0.34129115  0.37229916  1
  In  In33  1  0.81865563  0.32509160  0.88006717  1
  In  In34  1  0.83247892  0.66388426  0.36549549  1
  In  In35  1  0.82498254  0.68353465  0.87810305  1
  In  In36  1  0.01653032  0.16721546  0.37161476  1
  In  In37  1  0.01147783  0.15284652  0.88133310  1
  In  In38  1  0.00529956  0.51375947  0.37024669  1
  In  In39  1  0.01087572  0.50689893  0.87902745  1
  In  In40  1  0.02355593  0.84828237  0.35840603  1
  In  In41  1  -0.01296432  0.83621930  0.87325897  1
  In  In42  1  0.33713616  0.17004158  0.37063901  1
  In  In43  1  0.33032814  0.16741536  0.88359605  1
  In  In44  1  0.33933654  0.50363873  0.37880438  1
  In  In45  1  0.33761299  0.49500349  0.88149745  1
  In  In46  1  0.33882962  0.82274695  0.38228961  1
  In  In47  1  0.34048564  0.84316515  0.87752843  1
  In  In48  1  0.65535573  0.16396975  0.36583753  1
  In  In49  1  0.67507534  0.15300055  0.89306383  1
  In  In50  1  0.64090864  0.48258645  0.36126271  1
  In  In51  1  0.64808158  0.50595123  0.87734830  1
  In  In52  1  0.65262324  0.82015645  0.36404872  1
  In  In53  1  0.65913253  0.82976140  0.87267901  1
  In  In54  1  0.15222047  -0.00338695  0.12939165  1
  In  In55  1  0.16900998  -0.00267929  0.61923520  1
  In  In56  1  0.18056259  0.34163546  0.12304806  1
  In  In57  1  0.17499771  0.33956103  0.61506350  1
  In  In58  1  0.18610735  0.65845669  0.14709166  1
  In  In59  1  0.17993433  0.67570077  0.60544075  1
  In  In60  1  0.52512448  0.01914210  0.10851437  1
  In  In61  1  0.50037263  0.00114635  0.62073839  1
  In  In62  1  0.49329388  0.33413715  0.13175273  1
  In  In63  1  0.50607839  0.32797218  0.61385785  1
  In  In64  1  0.49847441  0.66634610  0.12624382  1
  In  In65  1  0.50310502  0.67112801  0.61527118  1
  In  In66  1  0.82017713  0.01470616  0.13122877  1
  In  In67  1  0.83281575  -0.00040685  0.63509092  1
  In  In68  1  0.82773646  0.31185626  0.12155633  1
  In  In69  1  0.83342424  0.33881079  0.62398765  1
  In  In70  1  0.83070677  0.67170368  0.13381473  1
  In  In71  1  0.82194034  0.65978800  0.62477582  1
  In  In72  1  0.33532800  0.00316746  0.74751025  1
  In  In73  1  -0.00347363  0.32969520  0.24679928  1
  In  In74  1  0.66474102  0.32682073  0.74669065  1
  In  In75  1  0.33656398  0.33140068  0.75719989  1
  In  In76  1  0.83532654  0.49075557  0.00180870  1
  In  In77  1  0.82913038  0.16792452  0.49776689  1
  In  In78  1  0.33519164  0.66955167  0.73623559  1
  In  In79  1  0.17172392  0.82901852  0.00606304  1
  In  In80  1  0.83605944  0.83209229  0.49205158  1
  In  In81  1  0.82798507  0.49993071  0.50114538  1
  In  In82  1  -0.00240495  0.33087518  0.74356019  1
  In  In83  1  -0.00542505  0.67133028  0.74408186  1
  In  In84  1  0.34161922  -0.00173570  0.25031078  1
  In  In85  1  0.83223327  0.83784957  0.00224709  1
  Cu  Cu86  1  0.65947958  0.66832407  0.00384102  1
  Cu  Cu87  1  0.33284637  0.65960887  0.00938975  1
  Cu  Cu88  1  0.00778431  0.67284150  0.49165763  1
  Cu  Cu89  1  0.33417865  -0.00026980  0.00280132  1
  Cu  Cu90  1  0.00603284  0.33339861  0.49467626  1
  Cu  Cu91  1  0.33882262  0.33328827  0.49334956  1
  Cu  Cu92  1  0.82394973  0.83909482  0.75251328  1
  Cu  Cu93  1  0.00865582  0.00150045  0.49742666  1
  Cu  Cu94  1  0.01201954  0.65706285  0.00921943  1
  Cu  Cu95  1  0.83790082  0.83343105  0.25042485  1
  Cu  Cu96  1  0.50265261  0.82889464  0.75150572  1
  Cu  Cu97  1  0.49342855  0.50580483  0.25171473  1
  Cu  Cu98  1  -0.00292970  -0.00052883  0.00258079  1
  Cu  Cu99  1  0.65535472  -0.00391038  0.49766588  1
  Cu  Cu100  1  0.82894607  0.16136265  0.24821267  1
  Cu  Cu101  1  0.33632142  0.00540430  0.49186648  1
  Cu  Cu102  1  0.00567498  0.32693435  0.00535938  1
  Cu  Cu103  1  0.83257589  0.16271504  0.75581720  1
  Cu  Cu104  1  0.17048836  0.50036776  0.74590172  1
  Cu  Cu105  1  0.66150732  0.66503307  0.49196839  1
  Cu  Cu106  1  0.33052231  0.33797918  0.00610052  1
  Cu  Cu107  1  0.65859871  0.33258414  0.00692315  1
  Cu  Cu108  1  0.50128945  0.83445694  0.24897286  1
  Cu  Cu109  1  0.82220709  0.51179750  0.75390743  1
  Cu  Cu110  1  0.82588330  0.49741640  0.24605992  1
  Cu  Cu111  1  0.50209531  0.16101149  0.75381843  1
  Cu  Cu112  1  0.16983281  0.16523828  0.25004064  1
  Cu  Cu113  1  0.16100500  0.84376994  0.74419487  1
  Cu  Cu114  1  0.17174529  0.50012582  0.25627629  1
  Se  Se115  1  0.08527891  0.08085705  0.05320380  1
  Se  Se116  1  0.08883486  0.08671699  0.55157508  1
  Se  Se117  1  0.08753699  0.41461645  0.05382132  1
  Se  Se118  1  0.08491707  0.41886119  0.54954163  1
  Se  Se119  1  0.08592032  0.74094239  0.06934051  1
  Se  Se120  1  0.08454020  0.75875517  0.54778080  1
  Se  Se121  1  0.41592638  0.08705285  0.05364666  1
  Se  Se122  1  0.42066058  0.08337339  0.55055762  1
  Se  Se123  1  0.41624146  0.41905457  0.05901855  1
  Se  Se124  1  0.42239090  0.41357262  0.54915131  1
  Se  Se125  1  0.41456207  0.74922385  0.05660062  1
  Se  Se126  1  0.39584280  0.71992280  0.54791048  1
  Se  Se127  1  0.74789135  0.08802645  0.05527309  1
  Se  Se128  1  0.74484431  0.06936372  0.55672294  1
  Se  Se129  1  0.74007195  0.41450168  0.06587823  1
  Se  Se130  1  0.73689028  0.40352578  0.55481510  1
  Se  Se131  1  0.74248085  0.74709131  0.06137477  1
  Se  Se132  1  0.74305848  0.74534584  0.55330586  1
  Se  Se133  1  0.24869679  0.24751309  0.05421884  1
  Se  Se134  1  0.25448396  0.25194788  0.54919821  1
  Se  Se135  1  0.24701765  0.58223679  0.06391030  1
  Se  Se136  1  0.22811487  0.55929353  0.55240121  1
  Se  Se137  1  0.25758029  0.92068006  0.06648923  1
  Se  Se138  1  0.25330489  0.92234519  0.54740493  1
  Se  Se139  1  0.57795780  0.25113128  0.06326910  1
  Se  Se140  1  0.58677329  0.23964462  0.55084627  1
  Se  Se141  1  0.57577377  0.58175959  0.05259454  1
  Se  Se142  1  0.58742051  0.58109298  0.55223421  1
  Se  Se143  1  0.58692939  0.91397049  0.04687919  1
  Se  Se144  1  0.57593877  0.91011424  0.55199669  1
  Se  Se145  1  0.91660057  0.24342784  0.05035350  1
  Se  Se146  1  0.92558649  0.25747452  0.55781235  1
  Se  Se147  1  0.92057282  0.58356591  0.06416481  1
  Se  Se148  1  0.92460651  0.59698422  0.55426559  1
  Se  Se149  1  0.92326580  0.91973650  0.06658480  1
  Se  Se150  1  0.91948547  0.92726302  0.55551119  1
  Se  Se151  1  0.08921701  0.24628304  0.44620469  1
  Se  Se152  1  0.08671758  0.24609148  0.94636706  1
  Se  Se153  1  0.08775327  0.58079851  0.44539915  1
  Se  Se154  1  0.09379207  0.57573382  0.95430267  1
  Se  Se155  1  0.08887415  0.91781907  0.44299934  1
  Se  Se156  1  0.07640732  0.91514333  0.94379427  1
  Se  Se157  1  0.42122406  0.24842658  0.44107746  1
  Se  Se158  1  0.41119882  0.25458793  0.94907656  1
  Se  Se159  1  0.41710131  0.58646462  0.45027583  1
  Se  Se160  1  0.41544230  0.58157531  0.94933215  1
  Se  Se161  1  0.41994897  0.91703490  0.44419400  1
  Se  Se162  1  0.41690656  0.90994385  0.95606668  1
  Se  Se163  1  0.73888520  0.25592572  0.44055321  1
  Se  Se164  1  0.74809221  0.25019156  0.95758885  1
  Se  Se165  1  0.74272271  0.58368327  0.43454997  1
  Se  Se166  1  0.74704930  0.59017858  0.94606524  1
  Se  Se167  1  0.73763060  0.91817079  0.43740479  1
  Se  Se168  1  0.74372641  0.92254533  0.93966743  1
  Se  Se169  1  0.25310163  0.09165483  0.44203994  1
  Se  Se170  1  0.24783288  0.07827716  0.94798287  1
  Se  Se171  1  0.25165344  0.41599375  0.44344642  1
  Se  Se172  1  0.24803254  0.41872040  0.94797715  1
  Se  Se173  1  0.24917065  0.75029992  0.45091272  1
  Se  Se174  1  0.26009269  0.73946854  0.94128759  1
  Se  Se175  1  0.58157125  0.08415209  0.44212141  1
  Se  Se176  1  0.56175407  0.10209698  0.94995924  1
  Se  Se177  1  0.57921388  0.42368124  0.44847891  1
  Se  Se178  1  0.58216953  0.41807309  0.95040162  1
  Se  Se179  1  0.57778056  0.75186881  0.44367987  1
  Se  Se180  1  0.58056744  0.75259007  0.94738133  1
  Se  Se181  1  0.92393306  0.07905645  0.43912104  1
  Se  Se182  1  0.91523335  0.08154329  0.94677319  1
  Se  Se183  1  0.92260159  0.41305568  0.43847204  1
  Se  Se184  1  0.92797191  0.40422932  0.93863832  1
  Se  Se185  1  0.92597539  0.74758437  0.43041881  1
  Se  Se186  1  0.93026681  0.73867724  0.95037939  1
  Se  Se187  1  0.25543268  0.24987087  0.29782520  1
  Se  Se188  1  0.24065796  0.23729020  0.80614661  1
  Se  Se189  1  0.25449217  0.58466050  0.30862857  1
  Se  Se190  1  0.24944104  0.58131677  0.80645610  1
  Se  Se191  1  0.25379788  0.91408115  0.31436629  1
  Se  Se192  1  0.24193215  0.91391514  0.80956095  1
  Se  Se193  1  0.59351783  0.26752170  0.30380624  1
  Se  Se194  1  0.58114603  0.24209124  0.81470370  1
  Se  Se195  1  0.58037179  0.59111582  0.30210321  1
  Se  Se196  1  0.58444545  0.59094595  0.80337525  1
  Se  Se197  1  0.58472466  0.92020278  0.30022706  1
  Se  Se198  1  0.57597472  0.91832536  0.80762869  1
  Se  Se199  1  0.90758355  0.24184395  0.31126410  1
  Se  Se200  1  0.91147090  0.24743633  0.81225263  1
  Se  Se201  1  0.91312149  0.57652432  0.29857874  1
  Se  Se202  1  0.90973774  0.58340861  0.81360333  1
  Se  Se203  1  0.91976217  0.92073322  0.30112040  1
  Se  Se204  1  0.91532242  0.91873175  0.80073290  1
  Se  Se205  1  0.08521268  0.08038110  0.29920683  1
  Se  Se206  1  0.07729925  0.08317975  0.79838969  1
  Se  Se207  1  0.08865815  0.41293692  0.31046243  1
  Se  Se208  1  0.09014911  0.42126002  0.80567678  1
  Se  Se209  1  0.07072472  0.72804551  0.30880401  1
  Se  Se210  1  0.08925484  0.75779327  0.80699295  1
  Se  Se211  1  0.43214577  0.09455862  0.30235928  1
  Se  Se212  1  0.42162792  0.08398157  0.81592888  1
  Se  Se213  1  0.41556332  0.41909841  0.30672397  1
  Se  Se214  1  0.42998538  0.42638627  0.80763586  1
  Se  Se215  1  0.41776322  0.75303128  0.30374828  1
  Se  Se216  1  0.41764879  0.75181985  0.80901099  1
  Se  Se217  1  0.74639840  0.07976476  0.30386206  1
  Se  Se218  1  0.74418018  0.08534640  0.80906718  1
  Se  Se219  1  0.74235706  0.41371819  0.29728760  1
  Se  Se220  1  0.75048581  0.42230123  0.81046854  1
  Se  Se221  1  0.75038703  0.74988563  0.29978009  1
  Se  Se222  1  0.74398883  0.75003033  0.80198494  1
  Se  Se223  1  0.24952551  0.08606629  0.18786677  1
  Se  Se224  1  0.24756571  0.09305542  0.68816221  1
  Se  Se225  1  0.25257169  0.41644500  0.20097281  1
  Se  Se226  1  0.25612211  0.42328171  0.68942530  1
  Se  Se227  1  0.24248195  0.76601302  0.20756615  1
  Se  Se228  1  0.24364742  0.76736181  0.68422787  1
  Se  Se229  1  0.58713799  0.07495888  0.19754977  1
  Se  Se230  1  0.57897849  0.07288460  0.69968085  1
  Se  Se231  1  0.57723380  0.42117236  0.19897108  1
  Se  Se232  1  0.57535735  0.41803410  0.69027992  1
  Se  Se233  1  0.58381820  0.74860357  0.19514429  1
  Se  Se234  1  0.58023695  0.74957385  0.69039021  1
  Se  Se235  1  0.91932183  0.08133553  0.19849128  1
  Se  Se236  1  0.91765836  0.08605066  0.69842881  1
  Se  Se237  1  0.90634832  0.41832795  0.18425550  1
  Se  Se238  1  0.90659403  0.43600400  0.69384845  1
  Se  Se239  1  0.92108375  0.74605275  0.20090353  1
  Se  Se240  1  0.90260759  0.76352668  0.68572741  1
  Se  Se241  1  0.08862232  0.24375203  0.18642250  1
  Se  Se242  1  0.09558857  0.24936627  0.68704237  1
  Se  Se243  1  0.08394099  0.58017766  0.20391198  1
  Se  Se244  1  0.09371215  0.58654755  0.68792429  1
  Se  Se245  1  0.09173689  0.91348946  0.20650203  1
  Se  Se246  1  0.07895117  0.92757432  0.69280048  1
  Se  Se247  1  0.40679327  0.25775905  0.20190442  1
  Se  Se248  1  0.42594174  0.24293607  0.69303152  1
  Se  Se249  1  0.41212555  0.59154558  0.19855549  1
  Se  Se250  1  0.42769281  0.57400660  0.68794595  1
  Se  Se251  1  0.43153205  0.91797439  0.18347150  1
  Se  Se252  1  0.41835365  0.90374489  0.68907605  1
  Se  Se253  1  0.74652131  0.24872815  0.19934782  1
  Se  Se254  1  0.75847759  0.23728199  0.68736708  1
  Se  Se255  1  0.74479894  0.58760228  0.19809763  1
  Se  Se256  1  0.73887006  0.59038295  0.69898934  1
  Se  Se257  1  0.75381203  0.91369362  0.19502846  1
  Se  Se258  1  0.74095217  0.92266920  0.69911545  1
