# generated using pymatgen
data_In86Cu29Se144
_symmetry_space_group_name_H-M   'P 1'
_cell_length_a   17.58273361
_cell_length_b   17.58149657
_cell_length_c   23.43424920
_cell_angle_alpha   90.01104021
_cell_angle_beta   89.99542601
_cell_angle_gamma   89.99968055
_symmetry_Int_Tables_number   1
_chemical_formula_structural   In86Cu29Se144
_chemical_formula_sum   'In86 Cu29 Se144'
_cell_volume   7244.24735654
_cell_formula_units_Z   1
loop_
 _symmetry_equiv_pos_site_id
 _symmetry_equiv_pos_as_xyz
  1  'x, y, z'
loop_
 _atom_site_type_symbol
 _atom_site_label
 _atom_site_symmetry_multiplicity
 _atom_site_fract_x
 _atom_site_fract_y
 _atom_site_fract_z
 _atom_site_occupancy
  In  In0  1  0.00817339  0.17753810  0.10395483  1
  In  In1  1  0.00415290  0.15643791  0.63297314  1
  In  In2  1  0.00727770  0.50642370  0.11573821  1
  In  In3  1  -0.01060176  0.49816125  0.63354974  1
  In  In4  1  -0.01714376  0.83972578  0.12570609  1
  In  In5  1  0.00330462  0.84686122  0.61472300  1
  In  In6  1  0.33720663  0.17401987  0.11912841  1
  In  In7  1  0.32926660  0.16057787  0.61849277  1
  In  In8  1  0.31133909  0.48044158  0.10005487  1
  In  In9  1  0.34838494  0.49539849  0.62906058  1
  In  In10  1  0.35202343  0.83123661  0.13055226  1
  In  In11  1  0.32388430  0.82446538  0.61908471  1
  In  In12  1  0.66879497  0.16204854  0.12084326  1
  In  In13  1  0.66239333  0.16561498  0.63406568  1
  In  In14  1  0.67129787  0.50662168  0.11757592  1
  In  In15  1  0.65574024  0.50218358  0.62813836  1
  In  In16  1  0.67046244  0.82192596  0.13657020  1
  In  In17  1  0.68030879  0.84714385  0.61438178  1
  In  In18  1  0.16606466  0.00191542  0.38504212  1
  In  In19  1  0.16451342  0.01625884  0.87250293  1
  In  In20  1  0.17258923  0.31668795  0.37065357  1
  In  In21  1  0.15256920  0.34091749  0.89192759  1
  In  In22  1  0.17184179  0.67844763  0.37365047  1
  In  In23  1  0.16816602  0.65425081  0.87912641  1
  In  In24  1  0.50995508  -0.00508063  0.38249992  1
  In  In25  1  0.50776460  0.00578572  0.87214044  1
  In  In26  1  0.49189629  0.34355129  0.37982496  1
  In  In27  1  0.50395584  0.32484834  0.88448533  1
  In  In28  1  0.50315121  0.66390312  0.37646053  1
  In  In29  1  0.48923395  0.66202432  0.87474916  1
  In  In30  1  0.81970103  -0.00075129  0.37295189  1
  In  In31  1  0.83306179  -0.00028570  0.86992784  1
  In  In32  1  0.83652126  0.32484381  0.37146878  1
  In  In33  1  0.83296203  0.33234657  0.87871423  1
  In  In34  1  0.83882701  0.68027476  0.36634396  1
  In  In35  1  0.83091510  0.67285560  0.88287900  1
  In  In36  1  0.00697201  0.16627501  0.37812464  1
  In  In37  1  -0.00225347  0.16721751  0.87364679  1
  In  In38  1  -0.01477456  0.50220216  0.36964201  1
  In  In39  1  0.00353162  0.48694679  0.89061976  1
  In  In40  1  0.01020153  0.82985237  0.38206053  1
  In  In41  1  -0.01663545  0.83836565  0.86751867  1
  In  In42  1  0.32972703  0.17839770  0.37594479  1
  In  In43  1  0.31923123  0.18769248  0.89944094  1
  In  In44  1  0.34756829  0.49965272  0.37054659  1
  In  In45  1  0.32207070  0.50391736  0.89353251  1
  In  In46  1  0.33288647  0.83431648  0.38566104  1
  In  In47  1  0.34652013  0.82934379  0.86814400  1
  In  In48  1  0.66851514  0.14942633  0.37043574  1
  In  In49  1  0.66191206  0.16823066  0.87628203  1
  In  In50  1  0.64770532  0.50085365  0.37224312  1
  In  In51  1  0.68186003  0.49077300  0.88674709  1
  In  In52  1  0.66236700  0.83593945  0.37480460  1
  In  In53  1  0.67357376  0.84774740  0.86467031  1
  In  In54  1  0.15993218  0.00166149  0.12448055  1
  In  In55  1  0.15518766  -0.00213537  0.61495504  1
  In  In56  1  0.16768774  0.33411387  0.11538942  1
  In  In57  1  0.16853375  0.31780277  0.62756827  1
  In  In58  1  0.17161758  0.64884753  0.12592780  1
  In  In59  1  0.16168036  0.68043922  0.62741629  1
  In  In60  1  0.50763061  0.00987124  0.13003498  1
  In  In61  1  0.50894588  0.00655990  0.62045509  1
  In  In62  1  0.48505984  0.32684211  0.11035958  1
  In  In63  1  0.50312482  0.33510850  0.62277481  1
  In  In64  1  0.50569237  0.66126595  0.12496746  1
  In  In65  1  0.49609179  0.65613321  0.61939210  1
  In  In66  1  0.82590138  -0.00870871  0.11621487  1
  In  In67  1  0.84442948  -0.02177099  0.64641689  1
  In  In68  1  0.85002751  0.33965644  0.10287735  1
  In  In69  1  0.83579059  0.32651743  0.64162099  1
  In  In70  1  0.82996046  0.67027670  0.12455542  1
  In  In71  1  0.82463670  0.67276185  0.62536506  1
  In  In72  1  0.33944904  0.66251757  0.25000511  1
  In  In73  1  0.00198763  0.66673956  0.75129783  1
  In  In74  1  0.66886587  0.33332657  0.24418686  1
  In  In75  1  0.16962157  0.50182051  0.49985760  1
  In  In76  1  0.00687350  0.34187039  0.23275726  1
  In  In77  1  -0.00411998  0.00589212  0.25430892  1
  In  In78  1  0.33880369  0.00341065  0.75031434  1
  In  In79  1  0.66610274  0.66907805  0.75265437  1
  In  In80  1  0.82362449  0.50403236  0.50562630  1
  In  In81  1  0.33846096  0.00410803  0.24822614  1
  In  In82  1  0.16643142  0.83149176  -0.00107069  1
  In  In83  1  0.83239215  0.15706359  0.50224118  1
  In  In84  1  0.50553287  0.82709400  0.00600422  1
  In  In85  1  0.33348908  0.33365615  0.76217092  1
  Cu  Cu86  1  0.49575700  0.16857251  0.75530014  1
  Cu  Cu87  1  0.33754511  0.00083270  0.00402761  1
  Cu  Cu88  1  0.33737099  0.33023182  0.50163434  1
  Cu  Cu89  1  0.50216003  0.49546345  0.75094447  1
  Cu  Cu90  1  0.16507024  0.49487021  0.23959912  1
  Cu  Cu91  1  0.33996518  0.00471550  0.50027323  1
  Cu  Cu92  1  0.82483426  0.82958902  0.24834600  1
  Cu  Cu93  1  0.00263363  0.67694032  0.49714118  1
  Cu  Cu94  1  0.66008433  0.32773575  0.50370664  1
  Cu  Cu95  1  0.67058347  0.00191482  -0.00628396  1
  Cu  Cu96  1  0.17113269  0.49478858  0.76400379  1
  Cu  Cu97  1  0.50226493  0.82846625  0.74350459  1
  Cu  Cu98  1  0.82377357  0.16753379  0.75928117  1
  Cu  Cu99  1  0.49555407  0.49743418  0.24448149  1
  Cu  Cu100  1  0.50223992  0.17146604  0.24547371  1
  Cu  Cu101  1  0.83635853  0.49305427  0.76176934  1
  Cu  Cu102  1  -0.00146601  0.66937371  0.00091321  1
  Cu  Cu103  1  -0.00488549  0.00252556  -0.00418409  1
  Cu  Cu104  1  0.66647398  -0.00159296  0.50125804  1
  Cu  Cu105  1  0.33529319  0.66617943  0.49820585  1
  Cu  Cu106  1  0.66457325  0.66975753  0.49791256  1
  Cu  Cu107  1  0.82346549  0.51400554  0.24659818  1
  Cu  Cu108  1  0.16844849  0.83303567  0.74281399  1
  Cu  Cu109  1  0.00353512  0.32917310  0.50249961  1
  Cu  Cu110  1  0.84179032  0.16716417  0.23910970  1
  Cu  Cu111  1  0.66485905  0.32911055  -0.00016348  1
  Cu  Cu112  1  0.15325568  0.16666581  0.75147708  1
  Cu  Cu113  1  0.66848032  0.67704788  0.00259613  1
  Cu  Cu114  1  0.16477116  0.82684323  0.25678540  1
  Se  Se115  1  0.08772144  0.07673667  0.04762486  1
  Se  Se116  1  0.08361230  0.09599987  0.55311016  1
  Se  Se117  1  0.06042933  0.39675882  0.05561476  1
  Se  Se118  1  0.07720875  0.41537230  0.56218779  1
  Se  Se119  1  0.07784417  0.74765696  0.06476385  1
  Se  Se120  1  0.08762020  0.75600581  0.55180355  1
  Se  Se121  1  0.42156373  0.08078775  0.05841175  1
  Se  Se122  1  0.42319940  0.08839112  0.55305199  1
  Se  Se123  1  0.43583715  0.44018928  0.05105130  1
  Se  Se124  1  0.41938434  0.41676966  0.55296814  1
  Se  Se125  1  0.40570437  0.73623984  0.05493025  1
  Se  Se126  1  0.41765239  0.74791049  0.55418774  1
  Se  Se127  1  0.75357312  0.08530817  0.04946425  1
  Se  Se128  1  0.74556341  0.07339567  0.56688144  1
  Se  Se129  1  0.74721503  0.41775482  0.04942827  1
  Se  Se130  1  0.74440757  0.40391486  0.56473221  1
  Se  Se131  1  0.75083147  0.75997878  0.05593627  1
  Se  Se132  1  0.75280281  0.74991148  0.54922750  1
  Se  Se133  1  0.25393155  0.25175786  0.04969190  1
  Se  Se134  1  0.24901655  0.24881282  0.55153283  1
  Se  Se135  1  0.23996190  0.58463183  0.04335696  1
  Se  Se136  1  0.25702360  0.58853655  0.56386301  1
  Se  Se137  1  0.26113447  0.91690161  0.06358626  1
  Se  Se138  1  0.25455555  0.92259592  0.55463455  1
  Se  Se139  1  0.58354913  0.24503630  0.05446764  1
  Se  Se140  1  0.58236675  0.24271384  0.55899161  1
  Se  Se141  1  0.58517737  0.58850014  0.04943341  1
  Se  Se142  1  0.58649141  0.58002108  0.55042862  1
  Se  Se143  1  0.59409692  0.92316967  0.06025595  1
  Se  Se144  1  0.57880864  0.91349892  0.55102557  1
  Se  Se145  1  0.91428571  0.24329195  0.03672732  1
  Se  Se146  1  0.91731177  0.25498081  0.56127041  1
  Se  Se147  1  0.91349297  0.58842078  0.05505964  1
  Se  Se148  1  0.92596764  0.59381741  0.55829513  1
  Se  Se149  1  0.91424738  0.91473686  0.04670630  1
  Se  Se150  1  0.90451773  0.92176841  0.55618833  1
  Se  Se151  1  0.08654673  0.25092574  0.44662665  1
  Se  Se152  1  0.09580096  0.22587717  0.94397274  1
  Se  Se153  1  0.07461218  0.58710959  0.43878360  1
  Se  Se154  1  0.08335187  0.58316423  0.95147285  1
  Se  Se155  1  0.08512897  0.91693605  0.44951592  1
  Se  Se156  1  0.07819078  0.92079637  0.93681585  1
  Se  Se157  1  0.42135359  0.24872271  0.44679249  1
  Se  Se158  1  0.42527266  0.24773115  0.95800879  1
  Se  Se159  1  0.41745653  0.58171561  0.44529247  1
  Se  Se160  1  0.42175864  0.58231993  0.95032267  1
  Se  Se161  1  0.42054975  0.91695577  0.44929232  1
  Se  Se162  1  0.41584495  0.92055675  0.94297391  1
  Se  Se163  1  0.74321920  0.25364723  0.44134592  1
  Se  Se164  1  0.74789141  0.24678588  0.94535431  1
  Se  Se165  1  0.74372688  0.58834969  0.43540845  1
  Se  Se166  1  0.75144743  0.58963633  0.95119157  1
  Se  Se167  1  0.74857630  0.91546367  0.44629444  1
  Se  Se168  1  0.75232922  0.91525050  0.94262871  1
  Se  Se169  1  0.25683965  0.08667835  0.44487631  1
  Se  Se170  1  0.24880068  0.07701486  0.95071026  1
  Se  Se171  1  0.25766359  0.41110479  0.43939272  1
  Se  Se172  1  0.26277405  0.39547524  0.95181192  1
  Se  Se173  1  0.24672149  0.75022229  0.45119271  1
  Se  Se174  1  0.26080316  0.74730565  0.93918317  1
  Se  Se175  1  0.58685277  0.08754213  0.44968090  1
  Se  Se176  1  0.57990594  0.08443439  0.94785751  1
  Se  Se177  1  0.58382861  0.41653318  0.44907731  1
  Se  Se178  1  0.58417218  0.41708476  0.94872937  1
  Se  Se179  1  0.58013466  0.75167855  0.44478369  1
  Se  Se180  1  0.59251170  0.74959144  0.93282693  1
  Se  Se181  1  0.92283334  0.07241491  0.43864454  1
  Se  Se182  1  0.91163407  0.08322473  0.94116291  1
  Se  Se183  1  0.91803285  0.40886780  0.44603365  1
  Se  Se184  1  0.89609347  0.42829887  0.94929409  1
  Se  Se185  1  0.91243987  0.75325629  0.44478141  1
  Se  Se186  1  0.92035535  0.75574446  0.94641898  1
  Se  Se187  1  0.25911053  0.25337091  0.29736955  1
  Se  Se188  1  0.23641237  0.24302186  0.81300127  1
  Se  Se189  1  0.24101120  0.57291002  0.30738913  1
  Se  Se190  1  0.25729540  0.57983186  0.81011833  1
  Se  Se191  1  0.24634628  0.91248809  0.31001536  1
  Se  Se192  1  0.24464087  0.91221533  0.80883004  1
  Se  Se193  1  0.58193182  0.24863440  0.31091843  1
  Se  Se194  1  0.58026071  0.25334778  0.80592627  1
  Se  Se195  1  0.57533536  0.58292094  0.29858397  1
  Se  Se196  1  0.58420825  0.57359448  0.81283932  1
  Se  Se197  1  0.59865215  0.93531489  0.30764756  1
  Se  Se198  1  0.57577240  0.91674416  0.79967772  1
  Se  Se199  1  0.92182908  0.24566155  0.30013107  1
  Se  Se200  1  0.91287459  0.25091058  0.80662522  1
  Se  Se201  1  0.91520048  0.58886717  0.29890211  1
  Se  Se202  1  0.91558804  0.57991837  0.81621086  1
  Se  Se203  1  0.90935103  0.90766211  0.30900839  1
  Se  Se204  1  0.91578871  0.92378289  0.79599503  1
  Se  Se205  1  0.09741302  0.09123263  0.30634082  1
  Se  Se206  1  0.07227803  0.07752194  0.80034223  1
  Se  Se207  1  0.08812077  0.42150465  0.30969128  1
  Se  Se208  1  0.08152196  0.41509045  0.81237596  1
  Se  Se209  1  0.07678178  0.74462243  0.30490055  1
  Se  Se210  1  0.09372078  0.75652548  0.81193624  1
  Se  Se211  1  0.42701797  0.09137990  0.31114278  1
  Se  Se212  1  0.40945321  0.09924256  0.81845020  1
  Se  Se213  1  0.41624135  0.41129480  0.29857996  1
  Se  Se214  1  0.42298729  0.42502109  0.81853800  1
  Se  Se215  1  0.41915935  0.75872569  0.31101813  1
  Se  Se216  1  0.42083632  0.74469110  0.79714115  1
  Se  Se217  1  0.75943501  0.08795512  0.29620735  1
  Se  Se218  1  0.73915887  0.08058270  0.80674721  1
  Se  Se219  1  0.75666838  0.42509625  0.30950355  1
  Se  Se220  1  0.74533339  0.41111419  0.80681746  1
  Se  Se221  1  0.73962656  0.74872576  0.30275625  1
  Se  Se222  1  0.76582309  0.75828958  0.80207612  1
  Se  Se223  1  0.24577715  0.08915220  0.18917226  1
  Se  Se224  1  0.23995851  0.08843789  0.69313423  1
  Se  Se225  1  0.24963326  0.41403635  0.18747855  1
  Se  Se226  1  0.24516853  0.41976397  0.69379797  1
  Se  Se227  1  0.24561763  0.75548171  0.19093063  1
  Se  Se228  1  0.25463876  0.74543698  0.69854498  1
  Se  Se229  1  0.59227909  0.08891822  0.19956536  1
  Se  Se230  1  0.57581104  0.08240778  0.70151997  1
  Se  Se231  1  0.57851909  0.41947202  0.18387321  1
  Se  Se232  1  0.58355327  0.41208975  0.69731908  1
  Se  Se233  1  0.56613930  0.75505288  0.19493934  1
  Se  Se234  1  0.58335628  0.75117481  0.68275112  1
  Se  Se235  1  0.92066236  0.08800285  0.17842557  1
  Se  Se236  1  0.90737134  0.08997507  0.70041063  1
  Se  Se237  1  0.90289898  0.43015497  0.18697819  1
  Se  Se238  1  0.92113393  0.41272718  0.70633073  1
  Se  Se239  1  0.91385791  0.75066662  0.19646172  1
  Se  Se240  1  0.91776214  0.75504226  0.68750952  1
  Se  Se241  1  0.09166686  0.23750283  0.18707839  1
  Se  Se242  1  0.07536575  0.25547364  0.69853955  1
  Se  Se243  1  0.07823860  0.58235544  0.19584725  1
  Se  Se244  1  0.09592867  0.57247283  0.69506779  1
  Se  Se245  1  0.08695354  0.90862717  0.19613177  1
  Se  Se246  1  0.08496210  0.91687011  0.69195377  1
  Se  Se247  1  0.41802884  0.25254339  0.19269061  1
  Se  Se248  1  0.41407493  0.24502960  0.69295818  1
  Se  Se249  1  0.40979073  0.56851863  0.18157238  1
  Se  Se250  1  0.42112979  0.58260662  0.69942655  1
  Se  Se251  1  0.43691137  0.91021069  0.20029853  1
  Se  Se252  1  0.41971064  0.91076884  0.68570244  1
  Se  Se253  1  0.76625761  0.25452959  0.18179812  1
  Se  Se254  1  0.74132996  0.25094835  0.70378166  1
  Se  Se255  1  0.73837811  0.59281987  0.19299153  1
  Se  Se256  1  0.76020733  0.57229898  0.69629736  1
  Se  Se257  1  0.74980781  0.92124263  0.19547325  1
  Se  Se258  1  0.73406665  0.91633423  0.70166395  1
