# generated using pymatgen
data_In86Cu29Se144
_symmetry_space_group_name_H-M   'P 1'
_cell_length_a   17.58945932
_cell_length_b   17.59117945
_cell_length_c   23.45292414
_cell_angle_alpha   89.99155338
_cell_angle_beta   89.99652939
_cell_angle_gamma   90.00145112
_symmetry_Int_Tables_number   1
_chemical_formula_structural   In86Cu29Se144
_chemical_formula_sum   'In86 Cu29 Se144'
_cell_volume   7256.78810219
_cell_formula_units_Z   1
loop_
 _symmetry_equiv_pos_site_id
 _symmetry_equiv_pos_as_xyz
  1  'x, y, z'
loop_
 _atom_site_type_symbol
 _atom_site_label
 _atom_site_symmetry_multiplicity
 _atom_site_fract_x
 _atom_site_fract_y
 _atom_site_fract_z
 _atom_site_occupancy
  In  In0  1  -0.00748175  0.17599052  0.13617868  1
  In  In1  1  0.00257761  0.17745193  0.60973071  1
  In  In2  1  0.00247606  0.50098679  0.13190970  1
  In  In3  1  -0.00234650  0.50314240  0.63368954  1
  In  In4  1  0.01603358  0.82471813  0.13424083  1
  In  In5  1  -0.02001820  0.82670623  0.62648212  1
  In  In6  1  0.33931887  0.15722324  0.11840844  1
  In  In7  1  0.32325808  0.17560051  0.63587279  1
  In  In8  1  0.32974128  0.50055859  0.11544087  1
  In  In9  1  0.33585737  0.48787328  0.64116626  1
  In  In10  1  0.32250385  0.84634634  0.11970556  1
  In  In11  1  0.33871508  0.82533746  0.63785837  1
  In  In12  1  0.66208074  0.17437992  0.13093459  1
  In  In13  1  0.67572385  0.15702347  0.62731370  1
  In  In14  1  0.65675673  0.49067106  0.11734887  1
  In  In15  1  0.66403032  0.50129910  0.62150771  1
  In  In16  1  0.68004807  0.83440863  0.12355226  1
  In  In17  1  0.70894243  0.80887630  0.65801253  1
  In  In18  1  0.16514992  0.02104595  0.38248628  1
  In  In19  1  0.16548795  -0.01397783  0.87743671  1
  In  In20  1  0.11739886  0.34597712  0.38594328  1
  In  In21  1  0.19182301  0.37195820  0.84286774  1
  In  In22  1  0.16361387  0.67174068  0.37495482  1
  In  In23  1  0.16611831  0.66071492  0.87626284  1
  In  In24  1  0.50492215  -0.01115270  0.37392355  1
  In  In25  1  0.50547669  0.01562750  0.86961128  1
  In  In26  1  0.51291439  0.32917087  0.37538564  1
  In  In27  1  0.50185184  0.33849943  0.87719083  1
  In  In28  1  0.50559812  0.65266183  0.38401897  1
  In  In29  1  0.49102484  0.65479925  0.86519443  1
  In  In30  1  0.83449926  0.00116218  0.37577211  1
  In  In31  1  0.83221539  0.00563133  0.86845661  1
  In  In32  1  0.83806055  0.33538395  0.38061273  1
  In  In33  1  0.83472068  0.33563516  0.86192572  1
  In  In34  1  0.84660765  0.64797530  0.39382838  1
  In  In35  1  0.83730350  0.67275742  0.85820323  1
  In  In36  1  -0.00169789  0.16860526  0.37937223  1
  In  In37  1  -0.00537947  0.17775422  0.87578623  1
  In  In38  1  -0.01353751  0.48887855  0.35844732  1
  In  In39  1  0.02096609  0.51371347  0.85228809  1
  In  In40  1  -0.01236876  0.82157154  0.36888958  1
  In  In41  1  0.01038517  0.82739395  0.87758566  1
  In  In42  1  0.32572355  0.16415657  0.37952821  1
  In  In43  1  0.34503013  0.18403235  0.86634449  1
  In  In44  1  0.33101327  0.50337996  0.38125481  1
  In  In45  1  0.33661824  0.50538351  0.87672565  1
  In  In46  1  0.33729216  0.83080262  0.37801507  1
  In  In47  1  0.32138654  0.82003339  0.86473424  1
  In  In48  1  0.67847088  0.17953782  0.36926346  1
  In  In49  1  0.66152497  0.16801367  0.86899865  1
  In  In50  1  0.68575773  0.48370702  0.39274939  1
  In  In51  1  0.65411684  0.48829984  0.86411432  1
  In  In52  1  0.67126971  0.84305577  0.37286703  1
  In  In53  1  0.66905668  0.83297088  0.85890843  1
  In  In54  1  0.17141304  -0.00664614  0.12580550  1
  In  In55  1  0.16194679  0.01029229  0.62795518  1
  In  In56  1  0.15625561  0.34178570  0.12627203  1
  In  In57  1  0.16583320  0.33541722  0.63561156  1
  In  In58  1  0.14317628  0.65138641  0.10300980  1
  In  In59  1  0.16212884  0.65378660  0.64414975  1
  In  In60  1  0.49783688  0.01322339  0.12163235  1
  In  In61  1  0.50888497  -0.00924704  0.63536763  1
  In  In62  1  0.50786976  0.33999768  0.11375961  1
  In  In63  1  0.49293661  0.34138525  0.63041728  1
  In  In64  1  0.50766279  0.65178498  0.11591630  1
  In  In65  1  0.52186927  0.64654532  0.63735235  1
  In  In66  1  0.83169217  0.00560583  0.13738731  1
  In  In67  1  0.82194131  -0.00826938  0.61596315  1
  In  In68  1  0.83506023  0.33718975  0.13086192  1
  In  In69  1  0.83239339  0.33045334  0.62181273  1
  In  In70  1  0.83934112  0.67424287  0.12561539  1
  In  In71  1  0.83523132  0.66276054  0.62389078  1
  In  In72  1  0.50035835  0.16848295  0.50307933  1
  In  In73  1  0.16784494  0.17298022  0.00052514  1
  In  In74  1  0.82788978  0.16981927  -0.00530092  1
  In  In75  1  -0.00568291  -0.00243217  0.74733172  1
  In  In76  1  0.16284056  0.83387981  0.50296710  1
  In  In77  1  0.32856704  0.67020880  0.24950181  1
  In  In78  1  0.16152106  0.49676663  0.50914641  1
  In  In79  1  0.83355035  0.49855094  -0.00308766  1
  In  In80  1  0.32860656  0.32957708  0.24594119  1
  In  In81  1  0.83957916  0.83275590  -0.00645690  1
  In  In82  1  0.33259968  0.00195883  0.25058290  1
  In  In83  1  0.49165135  0.82812513  -0.00799058  1
  In  In84  1  0.67441752  0.66310838  0.25247562  1
  In  In85  1  0.51055880  0.83178688  0.50574645  1
  Cu  Cu86  1  0.83487761  0.83649675  0.25158395  1
  Cu  Cu87  1  0.66794909  0.33911678  0.50123139  1
  Cu  Cu88  1  0.49670659  0.84361333  0.75373327  1
  Cu  Cu89  1  0.33256485  0.00152426  -0.00744974  1
  Cu  Cu90  1  0.00114741  -0.00417213  0.00937640  1
  Cu  Cu91  1  0.34300744  0.65692704  0.50802898  1
  Cu  Cu92  1  0.50905350  0.83116534  0.25018073  1
  Cu  Cu93  1  0.49774756  0.17351908  0.74807614  1
  Cu  Cu94  1  0.00601194  0.34206951  -0.00322460  1
  Cu  Cu95  1  0.82690105  0.49811375  0.74283334  1
  Cu  Cu96  1  0.50239999  0.49982357  0.75188474  1
  Cu  Cu97  1  0.32857616  0.66746913  -0.00907163  1
  Cu  Cu98  1  0.33459280  0.33957894  -0.00871939  1
  Cu  Cu99  1  0.66406914  0.65609014  -0.01212147  1
  Cu  Cu100  1  -0.00462163  -0.00024594  0.49934501  1
  Cu  Cu101  1  0.32673847  0.33711115  0.51086244  1
  Cu  Cu102  1  0.67058332  0.00180606  0.49850237  1
  Cu  Cu103  1  0.83188220  0.49903095  0.25430560  1
  Cu  Cu104  1  0.82991611  0.16515183  0.74199744  1
  Cu  Cu105  1  -0.00102868  0.66260272  0.50433265  1
  Cu  Cu106  1  0.66053187  0.00207507  -0.00219280  1
  Cu  Cu107  1  0.15999474  0.83728082  0.25103868  1
  Cu  Cu108  1  0.33120896  0.00802714  0.51002873  1
  Cu  Cu109  1  0.16299082  0.16356795  0.74809541  1
  Cu  Cu110  1  0.83645728  0.16685756  0.25755986  1
  Cu  Cu111  1  0.50497089  0.49082449  0.24686215  1
  Cu  Cu112  1  0.51173103  0.16620137  0.24751682  1
  Cu  Cu113  1  0.15709732  0.17562771  0.25685756  1
  Cu  Cu114  1  0.16655489  0.82815444  0.75349658  1
  Se  Se115  1  0.07625408  0.08561971  0.06430697  1
  Se  Se116  1  0.08330575  0.07900626  0.55122844  1
  Se  Se117  1  0.08194436  0.42540385  0.05471134  1
  Se  Se118  1  0.07030559  0.40490028  0.56297150  1
  Se  Se119  1  0.08614158  0.76528905  0.04949328  1
  Se  Se120  1  0.08364461  0.73767766  0.56511368  1
  Se  Se121  1  0.41862136  0.08242785  0.04426474  1
  Se  Se122  1  0.41610143  0.08177535  0.56923774  1
  Se  Se123  1  0.41687326  0.41992519  0.05022035  1
  Se  Se124  1  0.41146581  0.42168953  0.55903832  1
  Se  Se125  1  0.40565661  0.74130473  0.06045862  1
  Se  Se126  1  0.41863984  0.74313069  0.56445242  1
  Se  Se127  1  0.74596404  0.07584950  0.05843381  1
  Se  Se128  1  0.75337486  0.08874084  0.54828845  1
  Se  Se129  1  0.74572685  0.40185491  0.05356724  1
  Se  Se130  1  0.75251669  0.42063480  0.55440054  1
  Se  Se131  1  0.74196512  0.73749932  0.04921446  1
  Se  Se132  1  0.75701645  0.75941659  0.56251186  1
  Se  Se133  1  0.26010522  0.26381662  0.06105147  1
  Se  Se134  1  0.24445865  0.25284627  0.56213413  1
  Se  Se135  1  0.24838923  0.58177503  0.04610715  1
  Se  Se136  1  0.25518295  0.58555473  0.56733890  1
  Se  Se137  1  0.24544419  0.92307724  0.04554485  1
  Se  Se138  1  0.25700988  0.91717370  0.56490761  1
  Se  Se139  1  0.57818460  0.23752195  0.05508988  1
  Se  Se140  1  0.58895169  0.25786794  0.56282751  1
  Se  Se141  1  0.58354352  0.57311596  0.04268883  1
  Se  Se142  1  0.58193573  0.58332032  0.55109734  1
  Se  Se143  1  0.58520610  0.91452209  0.05582592  1
  Se  Se144  1  0.59894563  0.92180089  0.56305028  1
  Se  Se145  1  0.92412196  0.25862870  0.05417241  1
  Se  Se146  1  0.90021872  0.24168097  0.54848092  1
  Se  Se147  1  0.92150200  0.58956375  0.05740610  1
  Se  Se148  1  0.91906445  0.57636318  0.55685333  1
  Se  Se149  1  0.91625195  0.91895029  0.06649092  1
  Se  Se150  1  0.91522610  0.91346074  0.55183810  1
  Se  Se151  1  0.09163717  0.23504719  0.45094751  1
  Se  Se152  1  0.08585547  0.26240410  0.93712052  1
  Se  Se153  1  0.07982564  0.58644304  0.44224748  1
  Se  Se154  1  0.08171465  0.57365035  0.94053629  1
  Se  Se155  1  0.07717040  0.91999340  0.43801589  1
  Se  Se156  1  0.07937976  0.91606975  0.95027345  1
  Se  Se157  1  0.40745881  0.26072870  0.44506843  1
  Se  Se158  1  0.41921835  0.25149267  0.94647813  1
  Se  Se159  1  0.42013807  0.57299880  0.45173460  1
  Se  Se160  1  0.42153019  0.58558535  0.94750744  1
  Se  Se161  1  0.40909982  0.92574914  0.44949622  1
  Se  Se162  1  0.40886726  0.92043788  0.93023603  1
  Se  Se163  1  0.74927556  0.25325659  0.44789192  1
  Se  Se164  1  0.74317460  0.26223865  0.93640500  1
  Se  Se165  1  0.74006934  0.59079853  0.45401314  1
  Se  Se166  1  0.75071679  0.58535126  0.92831971  1
  Se  Se167  1  0.75298270  0.91632362  0.44600335  1
  Se  Se168  1  0.74150313  0.92300193  0.93893172  1
  Se  Se169  1  0.24975493  0.09083296  0.45659733  1
  Se  Se170  1  0.25343928  0.08614594  0.93443788  1
  Se  Se171  1  0.24625629  0.40663675  0.44127197  1
  Se  Se172  1  0.24613872  0.41828618  0.93981199  1
  Se  Se173  1  0.26231796  0.73880369  0.44895264  1
  Se  Se174  1  0.24426882  0.75430259  0.94430365  1
  Se  Se175  1  0.58792267  0.08048597  0.43869264  1
  Se  Se176  1  0.58350935  0.09004512  0.94530984  1
  Se  Se177  1  0.57673042  0.41627576  0.44969332  1
  Se  Se178  1  0.58385646  0.42190202  0.94582627  1
  Se  Se179  1  0.59574208  0.74491435  0.44053214  1
  Se  Se180  1  0.58886027  0.74581997  0.93283237  1
  Se  Se181  1  0.91328384  0.08464488  0.44638763  1
  Se  Se182  1  0.92562409  0.07365240  0.94459276  1
  Se  Se183  1  0.92426969  0.42338800  0.44283536  1
  Se  Se184  1  0.92221512  0.41337544  0.93396102  1
  Se  Se185  1  0.92002022  0.75182999  0.45198690  1
  Se  Se186  1  0.92397337  0.73336723  0.94095919  1
  Se  Se187  1  0.24027920  0.25288684  0.31595487  1
  Se  Se188  1  0.24782869  0.24854358  0.79822851  1
  Se  Se189  1  0.24262503  0.57585913  0.30829861  1
  Se  Se190  1  0.25582123  0.58749326  0.80763437  1
  Se  Se191  1  0.24315423  0.91256152  0.31404475  1
  Se  Se192  1  0.24751399  0.91878052  0.80116406  1
  Se  Se193  1  0.58926007  0.25498172  0.29977628  1
  Se  Se194  1  0.58016540  0.25552070  0.80360756  1
  Se  Se195  1  0.58268550  0.57133304  0.30879630  1
  Se  Se196  1  0.58910760  0.58913985  0.79830361  1
  Se  Se197  1  0.58862421  0.91927283  0.29993950  1
  Se  Se198  1  0.58382004  0.92658272  0.80237737  1
  Se  Se199  1  0.91854084  0.25286934  0.30911389  1
  Se  Se200  1  0.91423155  0.24312780  0.79792149  1
  Se  Se201  1  0.91010886  0.59222407  0.30283631  1
  Se  Se202  1  0.91453921  0.58046257  0.79401986  1
  Se  Se203  1  0.91866445  0.92007094  0.30467078  1
  Se  Se204  1  0.91155389  0.90446057  0.81011946  1
  Se  Se205  1  0.08020718  0.08413040  0.30691816  1
  Se  Se206  1  0.08405214  0.08557107  0.81196060  1
  Se  Se207  1  0.09222994  0.42655735  0.29810874  1
  Se  Se208  1  0.05358592  0.38324171  0.80847880  1
  Se  Se209  1  0.08233036  0.74786333  0.30322202  1
  Se  Se210  1  0.08250334  0.74462386  0.80471768  1
  Se  Se211  1  0.42685614  0.09288312  0.31031635  1
  Se  Se212  1  0.41441435  0.08705974  0.80028863  1
  Se  Se213  1  0.41948568  0.41910991  0.30949463  1
  Se  Se214  1  0.41821590  0.41946990  0.80758973  1
  Se  Se215  1  0.43058861  0.75228712  0.31041744  1
  Se  Se216  1  0.41776170  0.74984202  0.80032639  1
  Se  Se217  1  0.74930833  0.08172960  0.30544415  1
  Se  Se218  1  0.74884226  0.08633609  0.80183280  1
  Se  Se219  1  0.75094784  0.41517356  0.30907484  1
  Se  Se220  1  0.74488081  0.41371502  0.79634324  1
  Se  Se221  1  0.76280312  0.75025655  0.31367644  1
  Se  Se222  1  0.74986328  0.75158584  0.79170230  1
  Se  Se223  1  0.24083874  0.09832421  0.19496837  1
  Se  Se224  1  0.24942896  0.07832633  0.70029848  1
  Se  Se225  1  0.24448981  0.43053809  0.19227750  1
  Se  Se226  1  0.24074885  0.41881016  0.70751073  1
  Se  Se227  1  0.24221357  0.76101269  0.18939841  1
  Se  Se228  1  0.25103573  0.74335669  0.70251958  1
  Se  Se229  1  0.58748049  0.07596215  0.19483895  1
  Se  Se230  1  0.58248366  0.08860300  0.69710123  1
  Se  Se231  1  0.58731954  0.40859650  0.19342605  1
  Se  Se232  1  0.58447660  0.41892527  0.69495592  1
  Se  Se233  1  0.58074557  0.74887247  0.18646994  1
  Se  Se234  1  0.57320743  0.76690749  0.68954891  1
  Se  Se235  1  0.92026460  0.08412310  0.20321246  1
  Se  Se236  1  0.91327612  0.08686463  0.68192264  1
  Se  Se237  1  0.91767893  0.41801739  0.19910160  1
  Se  Se238  1  0.91195628  0.41217547  0.69418214  1
  Se  Se239  1  0.91754004  0.75236793  0.19756620  1
  Se  Se240  1  0.92463802  0.73304751  0.69764510  1
  Se  Se241  1  0.08077828  0.25973170  0.19891199  1
  Se  Se242  1  0.07767812  0.24149263  0.69270333  1
  Se  Se243  1  0.08342573  0.59521735  0.19239823  1
  Se  Se244  1  0.09421556  0.55722259  0.70777959  1
  Se  Se245  1  0.08266656  0.92694376  0.19852816  1
  Se  Se246  1  0.08666916  0.90465198  0.68886507  1
  Se  Se247  1  0.42369459  0.24080317  0.18869975  1
  Se  Se248  1  0.41140951  0.25832685  0.69935546  1
  Se  Se249  1  0.42388371  0.57641969  0.19260140  1
  Se  Se250  1  0.41704385  0.58455473  0.70020174  1
  Se  Se251  1  0.42452849  0.90902066  0.19092589  1
  Se  Se252  1  0.40944188  0.92418213  0.70073204  1
  Se  Se253  1  0.75696317  0.24680182  0.19615742  1
  Se  Se254  1  0.74552134  0.25290436  0.69354715  1
  Se  Se255  1  0.75552290  0.57188403  0.18450735  1
  Se  Se256  1  0.74475472  0.58447503  0.69204976  1
  Se  Se257  1  0.74671467  0.91598562  0.19960676  1
  Se  Se258  1  0.75044712  0.93597677  0.70223872  1
