# generated using pymatgen
data_In86Cu29Se144
_symmetry_space_group_name_H-M   'P 1'
_cell_length_a   17.58144492
_cell_length_b   17.58490480
_cell_length_c   23.44622148
_cell_angle_alpha   89.99033877
_cell_angle_beta   90.00606200
_cell_angle_gamma   90.00095357
_symmetry_Int_Tables_number   1
_chemical_formula_structural   In86Cu29Se144
_chemical_formula_sum   'In86 Cu29 Se144'
_cell_volume   7248.82208417
_cell_formula_units_Z   1
loop_
 _symmetry_equiv_pos_site_id
 _symmetry_equiv_pos_as_xyz
  1  'x, y, z'
loop_
 _atom_site_type_symbol
 _atom_site_label
 _atom_site_symmetry_multiplicity
 _atom_site_fract_x
 _atom_site_fract_y
 _atom_site_fract_z
 _atom_site_occupancy
  In  In0  1  0.00173275  0.14911415  0.12759123  1
  In  In1  1  0.00122339  0.16313993  0.62210302  1
  In  In2  1  0.00056574  0.53996939  0.12169060  1
  In  In3  1  0.00272249  0.48379883  0.62640717  1
  In  In4  1  0.01393598  0.82486520  0.13527958  1
  In  In5  1  0.00129963  0.85032445  0.62492409  1
  In  In6  1  0.32510135  0.16152563  0.11773397  1
  In  In7  1  0.32755308  0.16671873  0.62425436  1
  In  In8  1  0.33421813  0.50094055  0.12942335  1
  In  In9  1  0.31326150  0.47173549  0.59973126  1
  In  In10  1  0.34706837  0.84630919  0.11765343  1
  In  In11  1  0.34343804  0.83800053  0.62915049  1
  In  In12  1  0.65218929  0.17083924  0.12290148  1
  In  In13  1  0.65511059  0.15459336  0.62083665  1
  In  In14  1  0.67672709  0.49700030  0.12347291  1
  In  In15  1  0.66303814  0.51174394  0.62818241  1
  In  In16  1  0.66001106  0.84018738  0.12932613  1
  In  In17  1  0.66975875  0.82391348  0.63030304  1
  In  In18  1  0.17460821  0.00231336  0.36190002  1
  In  In19  1  0.16934666  0.00493472  0.87510634  1
  In  In20  1  0.17413031  0.33165668  0.39012345  1
  In  In21  1  0.16157124  0.32224229  0.86736605  1
  In  In22  1  0.15453578  0.66707206  0.37021518  1
  In  In23  1  0.17681483  0.66669363  0.88258763  1
  In  In24  1  0.49968593  0.00593158  0.37172341  1
  In  In25  1  0.50127792  0.00027746  0.87656135  1
  In  In26  1  0.49454794  0.33139821  0.38846104  1
  In  In27  1  0.48235427  0.33569249  0.86806816  1
  In  In28  1  0.50769336  0.65424093  0.36722635  1
  In  In29  1  0.51694295  0.66960547  0.87769747  1
  In  In30  1  0.83161451  -0.00106554  0.37818545  1
  In  In31  1  0.83714993  0.00232855  0.86561322  1
  In  In32  1  0.82048686  0.32849190  0.38066279  1
  In  In33  1  0.84715020  0.32773359  0.87308057  1
  In  In34  1  0.84029514  0.67894589  0.36685710  1
  In  In35  1  0.81546095  0.67202885  0.88317729  1
  In  In36  1  0.00859863  0.15765405  0.38324812  1
  In  In37  1  0.00670017  0.17518770  0.86909378  1
  In  In38  1  0.00216744  0.51072235  0.37206251  1
  In  In39  1  0.00529354  0.48649804  0.87683620  1
  In  In40  1  -0.00421927  0.82476345  0.36570285  1
  In  In41  1  -0.00510606  0.84712511  0.87842145  1
  In  In42  1  0.33972061  0.16125072  0.38631232  1
  In  In43  1  0.33319963  0.16464538  0.87273341  1
  In  In44  1  0.34054660  0.49359493  0.38422183  1
  In  In45  1  0.34175734  0.49568526  0.87021387  1
  In  In46  1  0.31832547  0.84837524  0.36728403  1
  In  In47  1  0.32232069  0.84598653  0.88635076  1
  In  In48  1  0.66800616  0.16018373  0.38589773  1
  In  In49  1  0.67259048  0.15055130  0.87409051  1
  In  In50  1  0.65853785  0.50070945  0.37017006  1
  In  In51  1  0.66144290  0.51589248  0.87396198  1
  In  In52  1  0.67578849  0.84688185  0.36604848  1
  In  In53  1  0.66086709  0.82926403  0.87254011  1
  In  In54  1  0.16878944  0.00020122  0.12301670  1
  In  In55  1  0.15560798  0.01054078  0.63247952  1
  In  In56  1  0.17669179  0.33422771  0.12361253  1
  In  In57  1  0.16835494  0.32240329  0.62147818  1
  In  In58  1  0.14727218  0.67366986  0.13601059  1
  In  In59  1  0.18035120  0.66085818  0.62205417  1
  In  In60  1  0.50028741  0.00639210  0.12540006  1
  In  In61  1  0.48834136  0.00910944  0.63442686  1
  In  In62  1  0.51555862  0.32038249  0.11957182  1
  In  In63  1  0.47749990  0.31500832  0.60701412  1
  In  In64  1  0.49571939  0.67703014  0.12777866  1
  In  In65  1  0.51177789  0.66181668  0.62570562  1
  In  In66  1  0.84084271  -0.00933231  0.13500329  1
  In  In67  1  0.83235815  -0.00211571  0.62215292  1
  In  In68  1  0.82679785  0.34677435  0.12121677  1
  In  In69  1  0.85026563  0.32994403  0.62859246  1
  In  In70  1  0.83922758  0.66374428  0.12414961  1
  In  In71  1  0.81855990  0.66477546  0.62521955  1
  In  In72  1  0.83541911  0.49604748  0.50190385  1
  In  In73  1  0.49981393  0.49825291  0.00122357  1
  In  In74  1  -0.00352430  0.66825713  0.75785720  1
  In  In75  1  0.50374664  0.83103550  0.49961847  1
  In  In76  1  0.16453038  0.50204693  0.00486635  1
  In  In77  1  0.33354179  0.67074748  0.25297990  1
  In  In78  1  0.83094064  0.16917393  -0.00035000  1
  In  In79  1  0.34506903  0.66650189  0.75138294  1
  In  In80  1  0.16024943  0.83291942  0.49538800  1
  In  In81  1  0.33718647  0.33379342  0.25976907  1
  In  In82  1  0.66209202  0.33418342  0.74764173  1
  In  In83  1  -0.00165102  0.33405728  0.25819922  1
  In  In84  1  0.83620123  0.83205131  0.00402285  1
  In  In85  1  0.66390220  0.33155523  0.24951676  1
  Cu  Cu86  1  0.16457380  0.16078480  0.25000093  1
  Cu  Cu87  1  0.83312002  0.83718527  0.75008421  1
  Cu  Cu88  1  0.33430826  0.67629905  0.00495321  1
  Cu  Cu89  1  -0.00468555  0.00152200  0.49955175  1
  Cu  Cu90  1  0.82784284  0.83286559  0.24787432  1
  Cu  Cu91  1  0.83082631  0.50151151  0.74795081  1
  Cu  Cu92  1  0.49681253  0.16285746  0.74649985  1
  Cu  Cu93  1  0.49515717  0.16185773  0.25194221  1
  Cu  Cu94  1  0.33798132  0.00703160  -0.00064112  1
  Cu  Cu95  1  0.32560626  0.00198151  0.50303946  1
  Cu  Cu96  1  0.33022564  0.32561579  -0.00439369  1
  Cu  Cu97  1  0.00363367  0.32667863  0.50327924  1
  Cu  Cu98  1  0.16543392  0.48976481  0.74504203  1
  Cu  Cu99  1  0.66589655  -0.00057906  0.00233220  1
  Cu  Cu100  1  0.17004172  0.84416336  0.75547057  1
  Cu  Cu101  1  0.50243768  0.83927470  0.75367832  1
  Cu  Cu102  1  0.66677359  0.32915777  0.50394504  1
  Cu  Cu103  1  0.49751101  0.84329655  0.24626873  1
  Cu  Cu104  1  0.82631130  0.15778845  0.25444777  1
  Cu  Cu105  1  0.16906956  0.16560310  0.74810394  1
  Cu  Cu106  1  0.66452652  -0.00272679  0.50034214  1
  Cu  Cu107  1  0.00244127  0.33325861  -0.00143251  1
  Cu  Cu108  1  0.49325531  0.49751174  0.74371768  1
  Cu  Cu109  1  0.33583006  0.65787649  0.49445194  1
  Cu  Cu110  1  0.67404433  0.67016778  0.49886628  1
  Cu  Cu111  1  -0.00294091  0.66808912  0.49442656  1
  Cu  Cu112  1  0.83632752  0.16119879  0.74539896  1
  Cu  Cu113  1  0.01363374  0.00290909  -0.00101783  1
  Cu  Cu114  1  0.84108058  0.51011148  0.24617091  1
  Se  Se115  1  0.09124053  0.09044801  0.05223321  1
  Se  Se116  1  0.08463815  0.08084058  0.55157193  1
  Se  Se117  1  0.07226650  0.41501312  0.06610034  1
  Se  Se118  1  0.08594439  0.41358635  0.55374165  1
  Se  Se119  1  0.07714811  0.74389080  0.05635169  1
  Se  Se120  1  0.07624628  0.74211294  0.56221616  1
  Se  Se121  1  0.42186911  0.09041750  0.05324086  1
  Se  Se122  1  0.41330322  0.08052202  0.55633906  1
  Se  Se123  1  0.40687166  0.40505539  0.06003668  1
  Se  Se124  1  0.44284902  0.44003172  0.55602655  1
  Se  Se125  1  0.42570894  0.75683509  0.05081600  1
  Se  Se126  1  0.40928605  0.73933732  0.55807988  1
  Se  Se127  1  0.75040420  0.07455027  0.06349502  1
  Se  Se128  1  0.74820188  0.08135975  0.55383018  1
  Se  Se129  1  0.72907849  0.39941371  0.05133268  1
  Se  Se130  1  0.74555373  0.40966237  0.56564382  1
  Se  Se131  1  0.74173551  0.74781238  0.06188328  1
  Se  Se132  1  0.75283163  0.75486059  0.55291286  1
  Se  Se133  1  0.24321260  0.24817373  0.04997122  1
  Se  Se134  1  0.26086960  0.25558872  0.55103468  1
  Se  Se135  1  0.25531802  0.59396963  0.06420930  1
  Se  Se136  1  0.24375287  0.58050259  0.54408587  1
  Se  Se137  1  0.25415746  0.92215072  0.05211496  1
  Se  Se138  1  0.24965145  0.91699144  0.56228742  1
  Se  Se139  1  0.58810493  0.24702788  0.04309697  1
  Se  Se140  1  0.58105056  0.24217268  0.55053336  1
  Se  Se141  1  0.58485139  0.58871855  0.06203048  1
  Se  Se142  1  0.58926239  0.58624446  0.54951505  1
  Se  Se143  1  0.58090390  0.91954676  0.05646077  1
  Se  Se144  1  0.58393608  0.92163042  0.56495745  1
  Se  Se145  1  0.92408220  0.25444744  0.06321510  1
  Se  Se146  1  0.91508443  0.24580254  0.55279720  1
  Se  Se147  1  0.89941826  0.57253410  0.04873211  1
  Se  Se148  1  0.92425268  0.58819663  0.56254225  1
  Se  Se149  1  0.92905021  0.92514808  0.05808185  1
  Se  Se150  1  0.91428305  0.91405899  0.55065551  1
  Se  Se151  1  0.08784916  0.24358979  0.45104952  1
  Se  Se152  1  0.08472750  0.24998350  0.94555977  1
  Se  Se153  1  0.08356275  0.58463942  0.44642487  1
  Se  Se154  1  0.07489281  0.58961788  0.94267345  1
  Se  Se155  1  0.07513163  0.92437859  0.43526807  1
  Se  Se156  1  0.09044976  0.91575615  0.94462265  1
  Se  Se157  1  0.40845168  0.25370767  0.45439780  1
  Se  Se158  1  0.41769816  0.24838682  0.94242906  1
  Se  Se159  1  0.42835735  0.58377554  0.44373513  1
  Se  Se160  1  0.40777307  0.59223241  0.94169653  1
  Se  Se161  1  0.40602874  0.91962416  0.44405347  1
  Se  Se162  1  0.42025248  0.91911186  0.94852627  1
  Se  Se163  1  0.75156717  0.24447747  0.45397456  1
  Se  Se164  1  0.74360776  0.25631025  0.93619272  1
  Se  Se165  1  0.75209798  0.58666491  0.43796493  1
  Se  Se166  1  0.74507543  0.58019889  0.94959937  1
  Se  Se167  1  0.74834137  0.91431374  0.44777999  1
  Se  Se168  1  0.75115304  0.92541851  0.94093245  1
  Se  Se169  1  0.24242292  0.07723466  0.44315588  1
  Se  Se170  1  0.25083772  0.08716549  0.94555521  1
  Se  Se171  1  0.26233496  0.41205468  0.45366818  1
  Se  Se172  1  0.25256818  0.41407687  0.93942642  1
  Se  Se173  1  0.25797545  0.74474213  0.43810315  1
  Se  Se174  1  0.24570200  0.75505500  0.95327710  1
  Se  Se175  1  0.57616305  0.07919461  0.44934623  1
  Se  Se176  1  0.58525716  0.08303114  0.94706134  1
  Se  Se177  1  0.59304125  0.41396935  0.44459667  1
  Se  Se178  1  0.58117277  0.41247502  0.93264136  1
  Se  Se179  1  0.59284646  0.74654899  0.43584229  1
  Se  Se180  1  0.59280966  0.74899715  0.94914274  1
  Se  Se181  1  0.91109376  0.08584584  0.44745652  1
  Se  Se182  1  0.92438178  0.07902817  0.94101006  1
  Se  Se183  1  0.92644391  0.40774405  0.43952420  1
  Se  Se184  1  0.91604987  0.41401288  0.94725917  1
  Se  Se185  1  0.91614721  0.75382077  0.44406728  1
  Se  Se186  1  0.92513743  0.74330618  0.94141705  1
  Se  Se187  1  0.24279596  0.24054494  0.31226224  1
  Se  Se188  1  0.25382818  0.24928747  0.80088018  1
  Se  Se189  1  0.25125943  0.57542636  0.31393884  1
  Se  Se190  1  0.24226266  0.57535436  0.80477798  1
  Se  Se191  1  0.23845437  0.91036555  0.29005834  1
  Se  Se192  1  0.25734413  0.92417022  0.80621112  1
  Se  Se193  1  0.57470223  0.24370402  0.31279948  1
  Se  Se194  1  0.57789010  0.24089818  0.80956373  1
  Se  Se195  1  0.59577196  0.58729260  0.29576148  1
  Se  Se196  1  0.57379177  0.58153705  0.79891265  1
  Se  Se197  1  0.58140362  0.92378077  0.30309103  1
  Se  Se198  1  0.58791683  0.92166704  0.80576313  1
  Se  Se199  1  0.90543878  0.24110877  0.31352593  1
  Se  Se200  1  0.91792606  0.24776570  0.79752678  1
  Se  Se201  1  0.92373362  0.59155406  0.30131434  1
  Se  Se202  1  0.90770788  0.57628478  0.81543457  1
  Se  Se203  1  0.90902073  0.91492019  0.30574571  1
  Se  Se204  1  0.92194879  0.91848840  0.79919418  1
  Se  Se205  1  0.07606687  0.08282981  0.30277229  1
  Se  Se206  1  0.08487022  0.08430228  0.80409828  1
  Se  Se207  1  0.09578366  0.41764291  0.31505481  1
  Se  Se208  1  0.08087638  0.41128098  0.80091854  1
  Se  Se209  1  0.09549767  0.76090016  0.29986395  1
  Se  Se210  1  0.09371572  0.75682719  0.81306189  1
  Se  Se211  1  0.40755164  0.08384179  0.30617044  1
  Se  Se212  1  0.41779101  0.08078202  0.80565930  1
  Se  Se213  1  0.43451515  0.42469469  0.30989810  1
  Se  Se214  1  0.40712021  0.41391494  0.79275786  1
  Se  Se215  1  0.42466528  0.76326613  0.31328246  1
  Se  Se216  1  0.42200539  0.75984740  0.81661974  1
  Se  Se217  1  0.74194214  0.08046772  0.31059630  1
  Se  Se218  1  0.75005645  0.07972050  0.79688450  1
  Se  Se219  1  0.76272919  0.42421781  0.30425669  1
  Se  Se220  1  0.75274970  0.42009898  0.81047309  1
  Se  Se221  1  0.74435781  0.74842778  0.30047863  1
  Se  Se222  1  0.75174628  0.75254012  0.80422743  1
  Se  Se223  1  0.25133591  0.08484006  0.19395043  1
  Se  Se224  1  0.25325113  0.08039384  0.69680404  1
  Se  Se225  1  0.24407529  0.42345520  0.19903732  1
  Se  Se226  1  0.25009053  0.41261995  0.68892131  1
  Se  Se227  1  0.25481931  0.75752281  0.18453958  1
  Se  Se228  1  0.24485376  0.75766355  0.69589814  1
  Se  Se229  1  0.58472102  0.08634048  0.19773192  1
  Se  Se230  1  0.58601586  0.07885029  0.70036504  1
  Se  Se231  1  0.57411297  0.42120585  0.19006703  1
  Se  Se232  1  0.57201516  0.41544197  0.68298496  1
  Se  Se233  1  0.57933381  0.75438192  0.19860689  1
  Se  Se234  1  0.57866045  0.74985288  0.69916498  1
  Se  Se235  1  0.91679968  0.08154660  0.20233329  1
  Se  Se236  1  0.91919219  0.07851511  0.69077721  1
  Se  Se237  1  0.91912095  0.42353971  0.18913596  1
  Se  Se238  1  0.91862398  0.41688470  0.70211825  1
  Se  Se239  1  0.91390588  0.75034860  0.19523277  1
  Se  Se240  1  0.91223791  0.75387197  0.68965917  1
  Se  Se241  1  0.08799229  0.24733556  0.19242503  1
  Se  Se242  1  0.08310829  0.24624010  0.69267842  1
  Se  Se243  1  0.09181766  0.57126394  0.20298732  1
  Se  Se244  1  0.08811842  0.58147419  0.69213251  1
  Se  Se245  1  0.06746038  0.93891814  0.18954910  1
  Se  Se246  1  0.08144754  0.91942351  0.70117218  1
  Se  Se247  1  0.42029603  0.24645366  0.19079892  1
  Se  Se248  1  0.41535623  0.24820276  0.69364883  1
  Se  Se249  1  0.42598717  0.57642568  0.19650278  1
  Se  Se250  1  0.41177663  0.57422934  0.68046386  1
  Se  Se251  1  0.41391997  0.92717670  0.19574140  1
  Se  Se252  1  0.41305724  0.91913203  0.70372054  1
  Se  Se253  1  0.75814353  0.24271787  0.18999434  1
  Se  Se254  1  0.75265085  0.24332617  0.68796395  1
  Se  Se255  1  0.75093433  0.58483904  0.19310005  1
  Se  Se256  1  0.74500145  0.58745373  0.70166069  1
  Se  Se257  1  0.74385493  0.92029423  0.19933089  1
  Se  Se258  1  0.74945958  0.91626098  0.69333473  1
