# generated using pymatgen
data_In86Cu29Se144
_symmetry_space_group_name_H-M   'P 1'
_cell_length_a   17.57425384
_cell_length_b   17.57693271
_cell_length_c   23.43411686
_cell_angle_alpha   89.99505435
_cell_angle_beta   90.01124643
_cell_angle_gamma   90.02674493
_symmetry_Int_Tables_number   1
_chemical_formula_structural   In86Cu29Se144
_chemical_formula_sum   'In86 Cu29 Se144'
_cell_volume   7238.83235980
_cell_formula_units_Z   1
loop_
 _symmetry_equiv_pos_site_id
 _symmetry_equiv_pos_as_xyz
  1  'x, y, z'
loop_
 _atom_site_type_symbol
 _atom_site_label
 _atom_site_symmetry_multiplicity
 _atom_site_fract_x
 _atom_site_fract_y
 _atom_site_fract_z
 _atom_site_occupancy
  In  In0  1  -0.00826310  0.17969401  0.13176710  1
  In  In1  1  -0.00604420  0.18104154  0.62387071  1
  In  In2  1  -0.00077357  0.49631529  0.12312598  1
  In  In3  1  -0.00901718  0.48350576  0.61295282  1
  In  In4  1  0.01517995  0.83024419  0.12412286  1
  In  In5  1  -0.00152020  0.83490583  0.62522964  1
  In  In6  1  0.33780444  0.15157448  0.12625142  1
  In  In7  1  0.33773724  0.15100814  0.62484927  1
  In  In8  1  0.33231109  0.51374694  0.12511060  1
  In  In9  1  0.34044782  0.51166313  0.61790000  1
  In  In10  1  0.33370865  0.83313949  0.12676448  1
  In  In11  1  0.34953113  0.80652181  0.64473727  1
  In  In12  1  0.66123799  0.15735774  0.11753130  1
  In  In13  1  0.65629238  0.15351541  0.60768705  1
  In  In14  1  0.67637938  0.50035873  0.12710521  1
  In  In15  1  0.66495200  0.50906173  0.62488584  1
  In  In16  1  0.66732651  0.83330131  0.13187674  1
  In  In17  1  0.65315367  0.84960641  0.63920429  1
  In  In18  1  0.16494032  0.00095044  0.36688556  1
  In  In19  1  0.17240673  -0.01457071  0.87781706  1
  In  In20  1  0.16270393  0.34578354  0.37456986  1
  In  In21  1  0.16380178  0.34905621  0.87397019  1
  In  In22  1  0.17068434  0.65395680  0.37432135  1
  In  In23  1  0.17306684  0.66347487  0.88388782  1
  In  In24  1  0.50436685  -0.00069832  0.37364997  1
  In  In25  1  0.50423620  0.00171996  0.86778112  1
  In  In26  1  0.50742836  0.32474998  0.38837766  1
  In  In27  1  0.49069054  0.33029771  0.87414235  1
  In  In28  1  0.50084003  0.67187989  0.37692004  1
  In  In29  1  0.50416989  0.66241648  0.86802692  1
  In  In30  1  0.83563707  0.00789376  0.36749390  1
  In  In31  1  0.83273145  0.00935217  0.87472799  1
  In  In32  1  0.84388655  0.32756052  0.38459807  1
  In  In33  1  0.84122008  0.32616486  0.87589657  1
  In  In34  1  0.82083165  0.66920817  0.37702115  1
  In  In35  1  0.80894626  0.65827429  0.87572267  1
  In  In36  1  -0.00389288  0.16677267  0.36820740  1
  In  In37  1  -0.01749009  0.16539972  0.87465124  1
  In  In38  1  0.00573551  0.48986822  0.38477857  1
  In  In39  1  0.00639351  0.49369970  0.87689016  1
  In  In40  1  -0.01131145  0.84241718  0.37222543  1
  In  In41  1  0.00523446  0.84077896  0.88245533  1
  In  In42  1  0.34598844  0.15671175  0.37758853  1
  In  In43  1  0.35113724  0.16487082  0.87531340  1
  In  In44  1  0.32868329  0.51073945  0.37933653  1
  In  In45  1  0.32476476  0.50149720  0.87648243  1
  In  In46  1  0.34302935  0.84378858  0.36893073  1
  In  In47  1  0.31415134  0.81835922  0.85962363  1
  In  In48  1  0.67494307  0.15593886  0.38381791  1
  In  In49  1  0.67112072  0.16082862  0.87614730  1
  In  In50  1  0.65987830  0.50728024  0.38410295  1
  In  In51  1  0.67187900  0.51586736  0.87623614  1
  In  In52  1  0.65994618  0.82596400  0.37092087  1
  In  In53  1  0.65956074  0.82262840  0.86045013  1
  In  In54  1  0.17903989  -0.01092958  0.13240786  1
  In  In55  1  0.17311665  -0.00088766  0.63196302  1
  In  In56  1  0.15281681  0.33372496  0.12716092  1
  In  In57  1  0.14842622  0.33587233  0.62688865  1
  In  In58  1  0.18260749  0.67557569  0.10794420  1
  In  In59  1  0.19386173  0.66031532  0.63357849  1
  In  In60  1  0.49837127  -0.00117177  0.12868590  1
  In  In61  1  0.50715569  -0.00709590  0.62003575  1
  In  In62  1  0.51578842  0.32694352  0.12337532  1
  In  In63  1  0.50277638  0.33972456  0.61829299  1
  In  In64  1  0.49890222  0.66902816  0.13158324  1
  In  In65  1  0.49700126  0.66750592  0.62484547  1
  In  In66  1  0.82372081  0.01029593  0.12978841  1
  In  In67  1  0.79733747  -0.00195395  0.61828886  1
  In  In68  1  0.84457968  0.34273227  0.11942116  1
  In  In69  1  0.83939114  0.33372205  0.61562941  1
  In  In70  1  0.83019660  0.65536662  0.12367349  1
  In  In71  1  0.83166330  0.65776210  0.62730385  1
  In  In72  1  0.17102862  0.83011855  0.50877072  1
  In  In73  1  -0.00065107  0.66810932  0.24678311  1
  In  In74  1  0.49413854  0.82839313  -0.01049132  1
  In  In75  1  -0.00491527  0.00303501  0.75187529  1
  In  In76  1  0.50234310  0.49832377  -0.00400402  1
  In  In77  1  0.00109728  0.66465102  0.75084997  1
  In  In78  1  0.83378004  0.83233619  -0.00143452  1
  In  In79  1  0.33333406  0.33200664  0.26302621  1
  In  In80  1  0.16478634  0.16736598  0.00804280  1
  In  In81  1  0.82659825  0.83486876  0.49935985  1
  In  In82  1  0.16958216  0.17096360  0.49958675  1
  In  In83  1  0.66740628  0.33749119  0.73656815  1
  In  In84  1  0.67293174  0.33174512  0.25451604  1
  In  In85  1  0.33289775  0.33794094  0.75528874  1
  Cu  Cu86  1  0.34578369  -0.00992211  0.50238769  1
  Cu  Cu87  1  0.33624884  0.33250934  -0.00306129  1
  Cu  Cu88  1  0.16683049  0.50364240  0.25159474  1
  Cu  Cu89  1  0.49869400  0.15730146  0.25008730  1
  Cu  Cu90  1  0.32990776  0.33749946  0.49981985  1
  Cu  Cu91  1  0.00186757  0.65753875  0.50334305  1
  Cu  Cu92  1  0.33802432  -0.00202154  0.00388631  1
  Cu  Cu93  1  -0.00026472  0.65976049  0.00075472  1
  Cu  Cu94  1  0.83413579  0.50178571  0.24923993  1
  Cu  Cu95  1  0.66112567  0.66985604  0.50203271  1
  Cu  Cu96  1  0.17006534  0.83076656  0.24722190  1
  Cu  Cu97  1  0.83002228  0.84253745  0.25069252  1
  Cu  Cu98  1  0.00102954  0.00230930  0.00244240  1
  Cu  Cu99  1  0.49841035  0.83245102  0.25102675  1
  Cu  Cu100  1  0.50627198  0.16289105  0.74377598  1
  Cu  Cu101  1  -0.00243930  0.33403687  0.00060523  1
  Cu  Cu102  1  0.50080142  0.51060491  0.25688192  1
  Cu  Cu103  1  0.34005796  0.67020693  0.50113948  1
  Cu  Cu104  1  0.67476100  0.32638211  -0.00087665  1
  Cu  Cu105  1  0.83053967  0.17063453  0.25200421  1
  Cu  Cu106  1  0.82780013  0.16501424  0.74774757  1
  Cu  Cu107  1  0.16580251  0.16750200  0.74863817  1
  Cu  Cu108  1  0.66170899  -0.00131572  -0.00413032  1
  Cu  Cu109  1  0.66620221  0.33913605  0.50314769  1
  Cu  Cu110  1  0.83390193  0.49486828  0.74399237  1
  Cu  Cu111  1  0.16234117  0.16351974  0.24670723  1
  Cu  Cu112  1  -0.00207052  0.00783828  0.49574210  1
  Cu  Cu113  1  0.16255252  0.50156431  0.75043147  1
  Cu  Cu114  1  0.49844822  0.83692223  0.74783338  1
  Se  Se115  1  0.07798328  0.07734765  0.06910163  1
  Se  Se116  1  0.08181498  0.07745237  0.56084314  1
  Se  Se117  1  0.08397573  0.41625092  0.05217180  1
  Se  Se118  1  0.08943711  0.41681343  0.54783680  1
  Se  Se119  1  0.08279443  0.75011408  0.04733077  1
  Se  Se120  1  0.07984217  0.73641053  0.56522664  1
  Se  Se121  1  0.42372534  0.08155094  0.05357430  1
  Se  Se122  1  0.42365627  0.08186969  0.55263007  1
  Se  Se123  1  0.41532351  0.40948958  0.06267417  1
  Se  Se124  1  0.41598676  0.42036536  0.55156922  1
  Se  Se125  1  0.41092242  0.74056778  0.05600101  1
  Se  Se126  1  0.41868850  0.75706194  0.55491396  1
  Se  Se127  1  0.74933178  0.07920242  0.04881511  1
  Se  Se128  1  0.76041929  0.09427885  0.54283554  1
  Se  Se129  1  0.74828502  0.41551987  0.05461036  1
  Se  Se130  1  0.74673417  0.42146142  0.55872832  1
  Se  Se131  1  0.74210736  0.74463063  0.05816695  1
  Se  Se132  1  0.74190572  0.74784354  0.56408214  1
  Se  Se133  1  0.25986351  0.25753955  0.06505755  1
  Se  Se134  1  0.25718152  0.25685002  0.56587413  1
  Se  Se135  1  0.24671470  0.57042038  0.04794141  1
  Se  Se136  1  0.24980660  0.58630108  0.54810137  1
  Se  Se137  1  0.25277596  0.91453989  0.05454958  1
  Se  Se138  1  0.26460536  0.91704630  0.56647229  1
  Se  Se139  1  0.58443499  0.24571097  0.04801137  1
  Se  Se140  1  0.57812440  0.25266361  0.54965201  1
  Se  Se141  1  0.58662525  0.58685337  0.06109910  1
  Se  Se142  1  0.57782865  0.58422757  0.55425352  1
  Se  Se143  1  0.58545974  0.91512330  0.05528682  1
  Se  Se144  1  0.59948074  0.91941447  0.55270774  1
  Se  Se145  1  0.91499180  0.24725814  0.05167680  1
  Se  Se146  1  0.92129218  0.25192432  0.54627905  1
  Se  Se147  1  0.91564687  0.57915830  0.05471310  1
  Se  Se148  1  0.91078814  0.58103566  0.55398926  1
  Se  Se149  1  0.92049542  0.92074591  0.06300063  1
  Se  Se150  1  0.92017096  0.92718368  0.55822341  1
  Se  Se151  1  0.07709691  0.25620676  0.44036159  1
  Se  Se152  1  0.07845283  0.25262629  0.94028562  1
  Se  Se153  1  0.08810615  0.58171667  0.44726462  1
  Se  Se154  1  0.08469905  0.57827866  0.94648875  1
  Se  Se155  1  0.08030786  0.92052301  0.44434910  1
  Se  Se156  1  0.08723176  0.91838541  0.95393792  1
  Se  Se157  1  0.40987815  0.24821404  0.44956604  1
  Se  Se158  1  0.42239591  0.24751504  0.95034368  1
  Se  Se159  1  0.42032557  0.58514846  0.44607832  1
  Se  Se160  1  0.41095763  0.59207550  0.94202603  1
  Se  Se161  1  0.42634271  0.91075157  0.44470167  1
  Se  Se162  1  0.40656533  0.92182186  0.93318055  1
  Se  Se163  1  0.74501214  0.25543049  0.44646188  1
  Se  Se164  1  0.75574992  0.24356958  0.94307253  1
  Se  Se165  1  0.74888827  0.58765259  0.45151908  1
  Se  Se166  1  0.75472638  0.57359033  0.95548845  1
  Se  Se167  1  0.74453315  0.92352709  0.43445191  1
  Se  Se168  1  0.73990420  0.91624785  0.93599355  1
  Se  Se169  1  0.25610827  0.06767909  0.44606067  1
  Se  Se170  1  0.25667647  0.08276874  0.94473751  1
  Se  Se171  1  0.24913286  0.41969122  0.44441323  1
  Se  Se172  1  0.25005260  0.41581709  0.94832700  1
  Se  Se173  1  0.25643173  0.74810052  0.43947263  1
  Se  Se174  1  0.24910818  0.75892196  0.94650042  1
  Se  Se175  1  0.56495128  0.09895801  0.44198936  1
  Se  Se176  1  0.57951673  0.08309117  0.94226581  1
  Se  Se177  1  0.57924871  0.42168034  0.45193554  1
  Se  Se178  1  0.59413551  0.40571006  0.93689207  1
  Se  Se179  1  0.58100054  0.75533969  0.44838598  1
  Se  Se180  1  0.59465530  0.73824762  0.94160059  1
  Se  Se181  1  0.91545827  0.08735737  0.44063688  1
  Se  Se182  1  0.91437886  0.08169817  0.95018943  1
  Se  Se183  1  0.90363996  0.43066258  0.44896630  1
  Se  Se184  1  0.91588217  0.41638480  0.94439436  1
  Se  Se185  1  0.92599330  0.74319406  0.44406502  1
  Se  Se186  1  0.92003899  0.73812239  0.93787699  1
  Se  Se187  1  0.24010334  0.23643052  0.31589877  1
  Se  Se188  1  0.24407405  0.24326713  0.81486603  1
  Se  Se189  1  0.25564267  0.58569380  0.29962880  1
  Se  Se190  1  0.24461727  0.58292535  0.80572623  1
  Se  Se191  1  0.24979491  0.91697091  0.30208080  1
  Se  Se192  1  0.25974899  0.93081553  0.80105780  1
  Se  Se193  1  0.57702359  0.24205802  0.30863709  1
  Se  Se194  1  0.58060904  0.24887335  0.80409880  1
  Se  Se195  1  0.58900153  0.58991630  0.30867038  1
  Se  Se196  1  0.59070611  0.58349903  0.80162913  1
  Se  Se197  1  0.58397388  0.91592006  0.30259048  1
  Se  Se198  1  0.58580528  0.91971505  0.79831609  1
  Se  Se199  1  0.91393168  0.25636624  0.30266556  1
  Se  Se200  1  0.91457195  0.24755945  0.79816201  1
  Se  Se201  1  0.91359096  0.58194298  0.31194187  1
  Se  Se202  1  0.90907001  0.57484959  0.80993968  1
  Se  Se203  1  0.91921095  0.92464038  0.29811207  1
  Se  Se204  1  0.90971859  0.90799208  0.81178220  1
  Se  Se205  1  0.07802718  0.08087349  0.30105542  1
  Se  Se206  1  0.08869712  0.08890235  0.81485808  1
  Se  Se207  1  0.07998881  0.42198013  0.30216381  1
  Se  Se208  1  0.07797313  0.41457633  0.79860676  1
  Se  Se209  1  0.08873616  0.75678254  0.31224325  1
  Se  Se210  1  0.08712695  0.75363245  0.81379987  1
  Se  Se211  1  0.41336990  0.07460307  0.30172188  1
  Se  Se212  1  0.41916567  0.08458518  0.79861291  1
  Se  Se213  1  0.42980765  0.42132417  0.31683163  1
  Se  Se214  1  0.42648737  0.43264662  0.80739287  1
  Se  Se215  1  0.41543115  0.74770958  0.30412283  1
  Se  Se216  1  0.42086109  0.74981899  0.80302987  1
  Se  Se217  1  0.74435534  0.08662971  0.30097234  1
  Se  Se218  1  0.74700189  0.08083177  0.80139748  1
  Se  Se219  1  0.75610372  0.42555174  0.31469953  1
  Se  Se220  1  0.75428333  0.41612801  0.80749346  1
  Se  Se221  1  0.75214407  0.75235053  0.30190342  1
  Se  Se222  1  0.75613337  0.74804914  0.79989834  1
  Se  Se223  1  0.25283685  0.08251170  0.19953233  1
  Se  Se224  1  0.25215434  0.08472860  0.70046554  1
  Se  Se225  1  0.24814206  0.41791593  0.19406268  1
  Se  Se226  1  0.24523453  0.42191845  0.68932963  1
  Se  Se227  1  0.24865991  0.74574169  0.19212149  1
  Se  Se228  1  0.23374280  0.76345239  0.70389738  1
  Se  Se229  1  0.58636821  0.08121550  0.19448697  1
  Se  Se230  1  0.58875433  0.08065659  0.68967266  1
  Se  Se231  1  0.57729862  0.42480847  0.19751400  1
  Se  Se232  1  0.56710550  0.43169083  0.69335398  1
  Se  Se233  1  0.58438202  0.74940779  0.19886608  1
  Se  Se234  1  0.58067534  0.74734190  0.69698687  1
  Se  Se235  1  0.91393118  0.08740156  0.19667346  1
  Se  Se236  1  0.90740346  0.08436360  0.68472737  1
  Se  Se237  1  0.91855941  0.41877251  0.19706792  1
  Se  Se238  1  0.91671563  0.41104410  0.69245123  1
  Se  Se239  1  0.90710493  0.75994256  0.18785613  1
  Se  Se240  1  0.90937768  0.75650691  0.69304168  1
  Se  Se241  1  0.08015685  0.25454819  0.20214624  1
  Se  Se242  1  0.07857061  0.24890026  0.69978014  1
  Se  Se243  1  0.09330991  0.58472698  0.18617946  1
  Se  Se244  1  0.08385261  0.57580940  0.68411195  1
  Se  Se245  1  0.08346773  0.91540207  0.19840511  1
  Se  Se246  1  0.08845440  0.90846714  0.69724327  1
  Se  Se247  1  0.42264252  0.24780212  0.19415675  1
  Se  Se248  1  0.42179641  0.24854290  0.69092052  1
  Se  Se249  1  0.41520810  0.58507375  0.19924822  1
  Se  Se250  1  0.39622975  0.60337629  0.69208642  1
  Se  Se251  1  0.41530611  0.91554189  0.19585254  1
  Se  Se252  1  0.41826430  0.92145901  0.69266957  1
  Se  Se253  1  0.75399502  0.24710832  0.18456861  1
  Se  Se254  1  0.75169732  0.23979689  0.68083562  1
  Se  Se255  1  0.74803442  0.58602582  0.20058996  1
  Se  Se256  1  0.74791596  0.58246804  0.69969321  1
  Se  Se257  1  0.74407809  0.92375016  0.19761401  1
  Se  Se258  1  0.76242401  0.90929117  0.69924657  1
