# generated using pymatgen
data_In86Cu29Se144
_symmetry_space_group_name_H-M   'P 1'
_cell_length_a   17.58248541
_cell_length_b   17.58107642
_cell_length_c   23.42897345
_cell_angle_alpha   89.99126355
_cell_angle_beta   89.98829351
_cell_angle_gamma   90.01672810
_symmetry_Int_Tables_number   1
_chemical_formula_structural   In86Cu29Se144
_chemical_formula_sum   'In86 Cu29 Se144'
_cell_volume   7242.34075638
_cell_formula_units_Z   1
loop_
 _symmetry_equiv_pos_site_id
 _symmetry_equiv_pos_as_xyz
  1  'x, y, z'
loop_
 _atom_site_type_symbol
 _atom_site_label
 _atom_site_symmetry_multiplicity
 _atom_site_fract_x
 _atom_site_fract_y
 _atom_site_fract_z
 _atom_site_occupancy
  In  In0  1  0.01369218  0.17234404  0.11029725  1
  In  In1  1  -0.01302823  0.16458427  0.63289566  1
  In  In2  1  -0.01115518  0.48383200  0.11810681  1
  In  In3  1  0.00213373  0.53068433  0.62054040  1
  In  In4  1  -0.00264015  0.84837363  0.11676806  1
  In  In5  1  -0.00091233  0.83351785  0.63220271  1
  In  In6  1  0.33280863  0.16869319  0.12726792  1
  In  In7  1  0.34896653  0.15770134  0.62821940  1
  In  In8  1  0.32239241  0.50741845  0.12822484  1
  In  In9  1  0.32504021  0.50060469  0.63176077  1
  In  In10  1  0.34379606  0.82949567  0.12684766  1
  In  In11  1  0.32929060  0.82787295  0.62133335  1
  In  In12  1  0.66365643  0.15199917  0.10426211  1
  In  In13  1  0.66309709  0.17282893  0.63741870  1
  In  In14  1  0.67607693  0.49384097  0.11933968  1
  In  In15  1  0.66963544  0.49469628  0.63289335  1
  In  In16  1  0.67310630  0.84234725  0.10698704  1
  In  In17  1  0.64933881  0.84412055  0.64281703  1
  In  In18  1  0.16696566  -0.01658752  0.37831951  1
  In  In19  1  0.17053020  0.00554488  0.87547601  1
  In  In20  1  0.16519108  0.33684260  0.36620077  1
  In  In21  1  0.17924227  0.32454456  0.88368083  1
  In  In22  1  0.17600514  0.66694927  0.37553584  1
  In  In23  1  0.15888838  0.66162516  0.86514637  1
  In  In24  1  0.49509749  0.00937432  0.38642379  1
  In  In25  1  0.52565551  -0.01522283  0.89833403  1
  In  In26  1  0.48576223  0.33715561  0.37411236  1
  In  In27  1  0.49551558  0.31948574  0.87303382  1
  In  In28  1  0.49876873  0.67979059  0.38018919  1
  In  In29  1  0.51336013  0.68741675  0.85022018  1
  In  In30  1  0.83997184  0.01147592  0.37208471  1
  In  In31  1  0.82997781  -0.00531332  0.88242618  1
  In  In32  1  0.84110325  0.33570270  0.36617360  1
  In  In33  1  0.83033945  0.34040623  0.87976581  1
  In  In34  1  0.82420040  0.66678062  0.37762286  1
  In  In35  1  0.83446740  0.66584043  0.87216589  1
  In  In36  1  -0.01101327  0.17410794  0.36940868  1
  In  In37  1  0.00516872  0.15186828  0.88775189  1
  In  In38  1  0.00226168  0.49653473  0.37479807  1
  In  In39  1  -0.00618007  0.51273249  0.88091698  1
  In  In40  1  0.00839582  0.84764595  0.38268282  1
  In  In41  1  -0.00153078  0.81931990  0.86248902  1
  In  In42  1  0.33866480  0.17268115  0.37012545  1
  In  In43  1  0.33273659  0.16710293  0.88322120  1
  In  In44  1  0.32178732  0.49902662  0.36624932  1
  In  In45  1  0.33535135  0.49455616  0.87666395  1
  In  In46  1  0.33513749  0.83421741  0.37636817  1
  In  In47  1  0.34569062  0.84099077  0.86805705  1
  In  In48  1  0.66618481  0.15405482  0.37580747  1
  In  In49  1  0.66474285  0.16292495  0.87970173  1
  In  In50  1  0.66913748  0.50838727  0.38023744  1
  In  In51  1  0.67798503  0.50835484  0.86627848  1
  In  In52  1  0.66460031  0.82450550  0.38184394  1
  In  In53  1  0.66361899  0.83781632  0.87182183  1
  In  In54  1  0.16983279  0.02240465  0.12011896  1
  In  In55  1  0.16308428  -0.01765820  0.62984834  1
  In  In56  1  0.16430755  0.33345776  0.12432042  1
  In  In57  1  0.16722624  0.34758236  0.62791700  1
  In  In58  1  0.18420388  0.66667104  0.12297828  1
  In  In59  1  0.13992539  0.71117177  0.67236769  1
  In  In60  1  0.49469631  -0.00953755  0.11512142  1
  In  In61  1  0.50631573  0.00974234  0.62023885  1
  In  In62  1  0.49736544  0.31941812  0.12364025  1
  In  In63  1  0.50420275  0.32330245  0.63349427  1
  In  In64  1  0.48911628  0.67089519  0.12308637  1
  In  In65  1  0.48491470  0.67983673  0.64139612  1
  In  In66  1  0.85679835  0.02017434  0.08245830  1
  In  In67  1  0.83459631  -0.00780589  0.64051143  1
  In  In68  1  0.84802522  0.34181374  0.11568777  1
  In  In69  1  0.82180419  0.33484385  0.62912701  1
  In  In70  1  0.83312964  0.66363211  0.11507068  1
  In  In71  1  0.83854589  0.66021105  0.63083857  1
  In  In72  1  0.16763032  0.51022489  0.49854967  1
  In  In73  1  0.65974675  0.66502272  0.23968539  1
  In  In74  1  0.16776406  0.16262838  0.50518817  1
  In  In75  1  0.49973408  0.50405909  0.50080742  1
  In  In76  1  0.66281008  -0.01057341  0.23600151  1
  In  In77  1  0.83386790  0.82770104  0.51040470  1
  In  In78  1  0.66593259  0.32874223  0.24009460  1
  In  In79  1  0.33508590  0.00200388  0.75319983  1
  In  In80  1  -0.00171207  0.33455233  0.75631526  1
  In  In81  1  0.83157766  0.16250400  0.49588559  1
  In  In82  1  0.00299309  0.66212407  0.25456066  1
  In  In83  1  0.16517469  0.83128267  -0.00631706  1
  In  In84  1  0.50225806  0.50234237  -0.00584653  1
  In  In85  1  0.00610184  0.00583190  0.24585925  1
  Cu  Cu86  1  0.50305899  0.16253151  0.75689968  1
  Cu  Cu87  1  0.83533921  0.16984640  0.23713100  1
  Cu  Cu88  1  0.50257989  0.48744072  0.75409857  1
  Cu  Cu89  1  0.34004002  0.66884990  -0.00372401  1
  Cu  Cu90  1  0.00546522  0.33338297  -0.00475705  1
  Cu  Cu91  1  0.82426108  0.83291385  0.75565571  1
  Cu  Cu92  1  0.67112782  -0.00542363  0.50737352  1
  Cu  Cu93  1  0.32811697  0.67258281  0.50448000  1
  Cu  Cu94  1  -0.00619651  0.33891992  0.49392902  1
  Cu  Cu95  1  0.16037093  0.49746088  0.24668248  1
  Cu  Cu96  1  0.66414573  0.66690027  0.50767166  1
  Cu  Cu97  1  0.32809272  0.33413866  0.00337017  1
  Cu  Cu98  1  0.49451924  0.83866390  0.25289622  1
  Cu  Cu99  1  0.17353687  0.49323457  0.75501568  1
  Cu  Cu100  1  0.34153226  0.32552566  0.49989333  1
  Cu  Cu101  1  0.83989254  0.50026868  0.75197610  1
  Cu  Cu102  1  0.17072678  0.17170520  0.24588192  1
  Cu  Cu103  1  0.49237154  0.16544062  0.25041556  1
  Cu  Cu104  1  0.83036147  0.15771941  0.75969405  1
  Cu  Cu105  1  0.66505932  0.32856668  0.51034496  1
  Cu  Cu106  1  0.18016628  0.83574381  0.24909025  1
  Cu  Cu107  1  0.67145700  0.33353419  -0.00252534  1
  Cu  Cu108  1  0.00215894  0.66371875  -0.00575990  1
  Cu  Cu109  1  0.48907894  0.50226171  0.24835363  1
  Cu  Cu110  1  0.33080245  0.00371510  -0.00055154  1
  Cu  Cu111  1  0.16724070  0.16820388  0.75998662  1
  Cu  Cu112  1  0.66735458  0.66678919  -0.01287439  1
  Cu  Cu113  1  0.83293697  0.83507130  0.23960147  1
  Cu  Cu114  1  0.33544476  -0.00589469  0.50337447  1
  Se  Se115  1  0.06192083  0.05655220  0.05214983  1
  Se  Se116  1  0.07560401  0.07966176  0.56622943  1
  Se  Se117  1  0.08671629  0.41706146  0.05176172  1
  Se  Se118  1  0.07320965  0.41626271  0.55631986  1
  Se  Se119  1  0.07903735  0.74151982  0.05995424  1
  Se  Se120  1  0.08466565  0.74199467  0.57305156  1
  Se  Se121  1  0.41265394  0.08580827  0.05613255  1
  Se  Se122  1  0.41897410  0.08482145  0.54871330  1
  Se  Se123  1  0.41357320  0.41670383  0.06009376  1
  Se  Se124  1  0.41342902  0.41123713  0.56155566  1
  Se  Se125  1  0.42049443  0.75568525  0.04866733  1
  Se  Se126  1  0.42077560  0.74797794  0.55519434  1
  Se  Se127  1  0.73941107  0.07343975  0.03201746  1
  Se  Se128  1  0.74964621  0.07816129  0.56572050  1
  Se  Se129  1  0.75635018  0.41833237  0.04753629  1
  Se  Se130  1  0.74818180  0.41769951  0.55598420  1
  Se  Se131  1  0.75000624  0.74468020  0.04715273  1
  Se  Se132  1  0.73709337  0.74947114  0.57122444  1
  Se  Se133  1  0.24742328  0.24777952  0.05718547  1
  Se  Se134  1  0.25673731  0.25604343  0.56390312  1
  Se  Se135  1  0.25554549  0.58508558  0.04751849  1
  Se  Se136  1  0.24966913  0.59422226  0.56559265  1
  Se  Se137  1  0.25234215  0.91874546  0.05977849  1
  Se  Se138  1  0.24786832  0.91462182  0.55450648  1
  Se  Se139  1  0.58372057  0.25408928  0.04973565  1
  Se  Se140  1  0.58250082  0.24318714  0.55962554  1
  Se  Se141  1  0.59209278  0.59290405  0.05796214  1
  Se  Se142  1  0.58212675  0.58860296  0.56824452  1
  Se  Se143  1  0.58569677  0.92422425  0.04482286  1
  Se  Se144  1  0.58403245  0.91279525  0.55719476  1
  Se  Se145  1  0.91887964  0.24969589  0.04741761  1
  Se  Se146  1  0.91912203  0.25752566  0.55693449  1
  Se  Se147  1  0.91987649  0.58059092  0.05074375  1
  Se  Se148  1  0.90750761  0.58722679  0.55000864  1
  Se  Se149  1  0.90341649  0.89293492  0.04121949  1
  Se  Se150  1  0.92046520  0.92730883  0.56141424  1
  Se  Se151  1  0.07896846  0.25583274  0.44126619  1
  Se  Se152  1  0.08902013  0.24431951  0.94854294  1
  Se  Se153  1  0.07252160  0.59739260  0.44054613  1
  Se  Se154  1  0.09231814  0.58344131  0.94589834  1
  Se  Se155  1  0.08737066  0.91978978  0.45612257  1
  Se  Se156  1  0.07449480  0.91645590  0.93370321  1
  Se  Se157  1  0.42322662  0.24384833  0.44588422  1
  Se  Se158  1  0.41468971  0.25283788  0.95171567  1
  Se  Se159  1  0.40152418  0.58752120  0.44049532  1
  Se  Se160  1  0.42317201  0.59704921  0.93188871  1
  Se  Se161  1  0.41978200  0.91213172  0.44802845  1
  Se  Se162  1  0.41216470  0.91574965  0.94906038  1
  Se  Se163  1  0.74218755  0.25790985  0.43862966  1
  Se  Se164  1  0.75332614  0.24854705  0.94481865  1
  Se  Se165  1  0.74755772  0.58738013  0.45224756  1
  Se  Se166  1  0.75542643  0.57976311  0.94374367  1
  Se  Se167  1  0.75188982  0.92463322  0.44042399  1
  Se  Se168  1  0.74418081  0.90988436  0.94693499  1
  Se  Se169  1  0.25804013  0.07807793  0.44148527  1
  Se  Se170  1  0.24407158  0.08627387  0.95034765  1
  Se  Se171  1  0.25581103  0.40696141  0.44436375  1
  Se  Se172  1  0.25013861  0.42107980  0.94990639  1
  Se  Se173  1  0.24807339  0.75371579  0.44602833  1
  Se  Se174  1  0.25805289  0.74555960  0.93362203  1
  Se  Se175  1  0.59052190  0.08203977  0.45259523  1
  Se  Se176  1  0.55986396  0.10995124  0.94791125  1
  Se  Se177  1  0.58950065  0.40704925  0.44292336  1
  Se  Se178  1  0.59225792  0.41314007  0.93470531  1
  Se  Se179  1  0.58154792  0.75107804  0.45456997  1
  Se  Se180  1  0.57859312  0.74739741  0.93850400  1
  Se  Se181  1  0.93497018  0.07424748  0.44524541  1
  Se  Se182  1  0.90648282  0.08423352  0.95187966  1
  Se  Se183  1  0.90964285  0.41990522  0.44128331  1
  Se  Se184  1  0.91975449  0.41906117  0.94626744  1
  Se  Se185  1  0.92051064  0.74871533  0.43931546  1
  Se  Se186  1  0.92063887  0.74725936  0.94085273  1
  Se  Se187  1  0.25238813  0.25345416  0.30298742  1
  Se  Se188  1  0.25632882  0.24822790  0.80783439  1
  Se  Se189  1  0.24279636  0.58520820  0.29834411  1
  Se  Se190  1  0.25526474  0.57910397  0.80679720  1
  Se  Se191  1  0.25703292  0.92107577  0.30508870  1
  Se  Se192  1  0.23877651  0.90902859  0.80505117  1
  Se  Se193  1  0.57920634  0.24290426  0.30851509  1
  Se  Se194  1  0.58937875  0.24888394  0.80524887  1
  Se  Se195  1  0.57208026  0.57881307  0.30895815  1
  Se  Se196  1  0.58622392  0.57907591  0.79770339  1
  Se  Se197  1  0.58111653  0.91248839  0.31273814  1
  Se  Se198  1  0.56557288  0.91174211  0.80872716  1
  Se  Se199  1  0.91536457  0.25163382  0.29355437  1
  Se  Se200  1  0.91415868  0.24042704  0.81634450  1
  Se  Se201  1  0.90349398  0.57728775  0.30865557  1
  Se  Se202  1  0.92290622  0.58716884  0.80168521  1
  Se  Se203  1  0.91252168  0.91095149  0.30439785  1
  Se  Se204  1  0.91056401  0.91466938  0.80796237  1
  Se  Se205  1  0.09390951  0.09325668  0.31216971  1
  Se  Se206  1  0.08171827  0.08344792  0.80725768  1
  Se  Se207  1  0.07615156  0.41561049  0.30037716  1
  Se  Se208  1  0.09015214  0.41886386  0.81782776  1
  Se  Se209  1  0.09048888  0.76364076  0.30790660  1
  Se  Se210  1  0.08977312  0.74885261  0.79175539  1
  Se  Se211  1  0.41795337  0.07808576  0.30709101  1
  Se  Se212  1  0.42504303  0.08211426  0.81868211  1
  Se  Se213  1  0.40934667  0.41592989  0.30135826  1
  Se  Se214  1  0.41572694  0.40932407  0.80780949  1
  Se  Se215  1  0.41650281  0.74913584  0.30524896  1
  Se  Se216  1  0.39989102  0.74535930  0.79348772  1
  Se  Se217  1  0.75510486  0.08781891  0.29627219  1
  Se  Se218  1  0.74530836  0.07616679  0.81155898  1
  Se  Se219  1  0.74515959  0.42262951  0.30522362  1
  Se  Se220  1  0.75562331  0.41427327  0.80126609  1
  Se  Se221  1  0.75220553  0.75877909  0.30126148  1
  Se  Se222  1  0.74421610  0.74510148  0.80669964  1
  Se  Se223  1  0.25322035  0.08261219  0.19850777  1
  Se  Se224  1  0.24106872  0.09018870  0.69120838  1
  Se  Se225  1  0.24776070  0.41550876  0.19486215  1
  Se  Se226  1  0.25547541  0.40785588  0.70282795  1
  Se  Se227  1  0.25821567  0.74860212  0.19601672  1
  Se  Se228  1  0.27857291  0.73900001  0.70234080  1
  Se  Se229  1  0.57459723  0.09139849  0.18707394  1
  Se  Se230  1  0.58335462  0.07961008  0.69976258  1
  Se  Se231  1  0.57215375  0.42719156  0.18729238  1
  Se  Se232  1  0.58849958  0.40727689  0.69916518  1
  Se  Se233  1  0.57715272  0.76697834  0.18648571  1
  Se  Se234  1  0.58757464  0.74022845  0.70519287  1
  Se  Se235  1  0.91236764  0.08352588  0.17989999  1
  Se  Se236  1  0.91802121  0.07968956  0.70578599  1
  Se  Se237  1  0.91288610  0.41554077  0.19683451  1
  Se  Se238  1  0.91969816  0.42384627  0.68722153  1
  Se  Se239  1  0.91813339  0.75226500  0.18750273  1
  Se  Se240  1  0.90844621  0.75396296  0.69855665  1
  Se  Se241  1  0.08056782  0.24630482  0.19189632  1
  Se  Se242  1  0.09022545  0.24571149  0.69351795  1
  Se  Se243  1  0.08640089  0.58011556  0.18409643  1
  Se  Se244  1  0.08940808  0.57585974  0.70154120  1
  Se  Se245  1  0.09717040  0.91202456  0.18787007  1
  Se  Se246  1  0.07795911  0.91708666  0.70320118  1
  Se  Se247  1  0.41255800  0.25383100  0.19909798  1
  Se  Se248  1  0.41685924  0.24352706  0.70202207  1
  Se  Se249  1  0.41166003  0.58928162  0.19417177  1
  Se  Se250  1  0.42103348  0.56982227  0.69783604  1
  Se  Se251  1  0.41678135  0.92244471  0.19506605  1
  Se  Se252  1  0.41912452  0.91892063  0.68509337  1
  Se  Se253  1  0.75009902  0.24012511  0.17523538  1
  Se  Se254  1  0.75660752  0.24732228  0.70311623  1
  Se  Se255  1  0.76013946  0.57522202  0.19214157  1
  Se  Se256  1  0.75221096  0.58081133  0.69927854  1
  Se  Se257  1  0.76645827  0.91941924  0.17633365  1
  Se  Se258  1  0.74118342  0.92212145  0.70732204  1
