# generated using pymatgen
data_In86Cu29Se144
_symmetry_space_group_name_H-M   'P 1'
_cell_length_a   17.59256578
_cell_length_b   17.60072778
_cell_length_c   23.45785291
_cell_angle_alpha   90.00571064
_cell_angle_beta   90.01330521
_cell_angle_gamma   90.00186209
_symmetry_Int_Tables_number   1
_chemical_formula_structural   In86Cu29Se144
_chemical_formula_sum   'In86 Cu29 Se144'
_cell_volume   7263.53534678
_cell_formula_units_Z   1
loop_
 _symmetry_equiv_pos_site_id
 _symmetry_equiv_pos_as_xyz
  1  'x, y, z'
loop_
 _atom_site_type_symbol
 _atom_site_label
 _atom_site_symmetry_multiplicity
 _atom_site_fract_x
 _atom_site_fract_y
 _atom_site_fract_z
 _atom_site_occupancy
  In  In0  1  -0.01110173  0.18213319  0.13119265  1
  In  In1  1  -0.01417842  0.17138521  0.62448511  1
  In  In2  1  -0.01436788  0.49526375  0.11944712  1
  In  In3  1  0.00409989  0.50150700  0.61818719  1
  In  In4  1  -0.00437993  0.82595644  0.11148523  1
  In  In5  1  -0.01192120  0.84264090  0.63528035  1
  In  In6  1  0.34491216  0.16212501  0.12840767  1
  In  In7  1  0.33150412  0.15444723  0.62779447  1
  In  In8  1  0.33078252  0.50176123  0.13403719  1
  In  In9  1  0.32872865  0.51669834  0.62336910  1
  In  In10  1  0.33153142  0.82597341  0.11733098  1
  In  In11  1  0.34517213  0.82660751  0.63105199  1
  In  In12  1  0.65766529  0.16487512  0.11961819  1
  In  In13  1  0.67463986  0.16610976  0.61068654  1
  In  In14  1  0.68549862  0.50487469  0.12245643  1
  In  In15  1  0.68218496  0.50422634  0.62845065  1
  In  In16  1  0.66737692  0.83178904  0.12405741  1
  In  In17  1  0.65740157  0.83430409  0.61757655  1
  In  In18  1  0.16875543  -0.00043424  0.37731169  1
  In  In19  1  0.15513517  -0.01227977  0.86663090  1
  In  In20  1  0.17074926  0.34137374  0.37035279  1
  In  In21  1  0.15710252  0.33608260  0.87571709  1
  In  In22  1  0.15994579  0.65355636  0.37377256  1
  In  In23  1  0.17551734  0.67718933  0.86519700  1
  In  In24  1  0.53241671  -0.02355602  0.39910289  1
  In  In25  1  0.50157583  -0.00318847  0.87552473  1
  In  In26  1  0.48761090  0.33271458  0.37384077  1
  In  In27  1  0.49902432  0.32512181  0.88360718  1
  In  In28  1  0.50930454  0.67700169  0.36538336  1
  In  In29  1  0.51234548  0.68220600  0.86850592  1
  In  In30  1  0.80582673  0.01365337  0.39787515  1
  In  In31  1  0.83294364  -0.00604468  0.87783289  1
  In  In32  1  0.84529997  0.32366420  0.38290611  1
  In  In33  1  0.82410561  0.34291678  0.89705669  1
  In  In34  1  0.82671829  0.67237152  0.38224201  1
  In  In35  1  0.83682185  0.66854347  0.86802854  1
  In  In36  1  -0.02418963  0.17351237  0.37246226  1
  In  In37  1  -0.00620819  0.16094631  0.87385925  1
  In  In38  1  0.00402188  0.49000128  0.38867960  1
  In  In39  1  -0.04096193  0.51642655  0.88026939  1
  In  In40  1  -0.01141659  0.81706901  0.37548215  1
  In  In41  1  0.00021191  0.83592335  0.87119593  1
  In  In42  1  0.33982290  0.17486418  0.37318569  1
  In  In43  1  0.35236379  0.15754318  0.87809404  1
  In  In44  1  0.32816769  0.49519173  0.36896762  1
  In  In45  1  0.32118933  0.50542834  0.87446270  1
  In  In46  1  0.35130189  0.84224863  0.37299688  1
  In  In47  1  0.33487967  0.83290307  0.87272248  1
  In  In48  1  0.67428405  0.15648421  0.37691328  1
  In  In49  1  0.67202509  0.16679776  0.88963056  1
  In  In50  1  0.66814614  0.51718104  0.37238677  1
  In  In51  1  0.67566984  0.51602978  0.87361209  1
  In  In52  1  0.67000097  0.82759998  0.37330735  1
  In  In53  1  0.68516515  0.80819593  0.89647921  1
  In  In54  1  0.17473727  -0.00487144  0.11884770  1
  In  In55  1  0.17165756  -0.00684239  0.63665868  1
  In  In56  1  0.16377842  0.33659712  0.13586802  1
  In  In57  1  0.14691351  0.34361026  0.61776700  1
  In  In58  1  0.16640678  0.67539156  0.11979372  1
  In  In59  1  0.17205217  0.66257363  0.62621384  1
  In  In60  1  0.51047152  0.00882712  0.12027934  1
  In  In61  1  0.50287718  -0.00984434  0.61697164  1
  In  In62  1  0.50323267  0.31598895  0.12881458  1
  In  In63  1  0.51154140  0.33078886  0.62215494  1
  In  In64  1  0.49870239  0.66819040  0.12653269  1
  In  In65  1  0.49716384  0.67484116  0.63163655  1
  In  In66  1  0.82338144  -0.01119286  0.12190793  1
  In  In67  1  0.83637527  0.01085755  0.61928727  1
  In  In68  1  0.83294592  0.33577473  0.11540569  1
  In  In69  1  0.84679067  0.33439797  0.60879964  1
  In  In70  1  0.82548720  0.66562680  0.11561251  1
  In  In71  1  0.82836720  0.66547090  0.63455975  1
  In  In72  1  0.49787085  0.49910314  0.49643706  1
  In  In73  1  0.51095496  0.49848840  0.00332667  1
  In  In74  1  -0.00729380  -0.00265436  0.25026574  1
  In  In75  1  -0.00186843  0.33585905  0.74974274  1
  In  In76  1  0.16246155  0.15847408  -0.00203072  1
  In  In77  1  0.66376946  -0.00608024  0.75022228  1
  In  In78  1  0.16412098  0.16926805  0.49855063  1
  In  In79  1  0.32863659  0.33413540  0.75672591  1
  In  In80  1  0.16896066  0.82548350  0.50319609  1
  In  In81  1  0.33995383  0.00438386  0.24881990  1
  In  In82  1  0.66964094  0.34054221  0.24391043  1
  In  In83  1  0.67173411  0.33538896  0.75579668  1
  In  In84  1  -0.00328662  0.66013952  0.24236587  1
  In  In85  1  0.15950980  0.50132729  0.00190913  1
  Cu  Cu86  1  0.16664985  0.15782702  0.75330893  1
  Cu  Cu87  1  0.50322148  0.83566672  0.75171559  1
  Cu  Cu88  1  0.49968325  0.15878500  0.74925728  1
  Cu  Cu89  1  0.33521864  -0.00946197  -0.00167750  1
  Cu  Cu90  1  0.32552625  0.33836761  0.49533657  1
  Cu  Cu91  1  0.83773450  0.50228694  0.24864007  1
  Cu  Cu92  1  0.49835288  0.50557567  0.25006252  1
  Cu  Cu93  1  0.34767510  0.00006704  0.50468111  1
  Cu  Cu94  1  0.82233464  0.83551637  0.25209262  1
  Cu  Cu95  1  0.33661132  0.32531303  0.00638954  1
  Cu  Cu96  1  -0.00323905  -0.00042772  -0.00554741  1
  Cu  Cu97  1  0.00225335  0.67325582  -0.00865697  1
  Cu  Cu98  1  0.66589780  0.66897430  0.50154007  1
  Cu  Cu99  1  0.83270134  0.17004800  0.74747057  1
  Cu  Cu100  1  0.49762959  0.50975274  0.75229055  1
  Cu  Cu101  1  0.00199714  -0.00152116  0.50339569  1
  Cu  Cu102  1  0.66850740  0.32983412  0.49787760  1
  Cu  Cu103  1  -0.00890761  0.66315818  0.50521583  1
  Cu  Cu104  1  0.50141637  0.16397413  0.25195158  1
  Cu  Cu105  1  0.17103225  0.82839008  0.23990536  1
  Cu  Cu106  1  0.65846261  -0.00271353  0.00174501  1
  Cu  Cu107  1  0.34327329  0.67015829  -0.00634241  1
  Cu  Cu108  1  0.83207606  0.83287456  0.75475386  1
  Cu  Cu109  1  0.16108569  0.17503253  0.25565463  1
  Cu  Cu110  1  0.16599653  0.83207101  0.74938304  1
  Cu  Cu111  1  0.50507785  0.83374461  0.24949933  1
  Cu  Cu112  1  0.16331983  0.50667691  0.74761889  1
  Cu  Cu113  1  0.33431197  0.66912075  0.50112742  1
  Cu  Cu114  1  0.16871896  0.49741962  0.25289729  1
  Se  Se115  1  0.07134857  0.07600766  0.06307177  1
  Se  Se116  1  0.08432745  0.07484053  0.56345888  1
  Se  Se117  1  0.07672427  0.40316281  0.05792365  1
  Se  Se118  1  0.06907230  0.41299719  0.54358743  1
  Se  Se119  1  0.08931501  0.75172426  0.04558084  1
  Se  Se120  1  0.07208240  0.74679576  0.56422926  1
  Se  Se121  1  0.41190079  0.07825147  0.05368692  1
  Se  Se122  1  0.42295847  0.08968912  0.55738475  1
  Se  Se123  1  0.41200198  0.41323322  0.06285542  1
  Se  Se124  1  0.40750421  0.41204749  0.56155566  1
  Se  Se125  1  0.42316417  0.74939646  0.05198460  1
  Se  Se126  1  0.41976089  0.74919538  0.55437413  1
  Se  Se127  1  0.74360776  0.07811287  0.05578468  1
  Se  Se128  1  0.75072379  0.07810890  0.54526953  1
  Se  Se129  1  0.75014717  0.42004941  0.04908609  1
  Se  Se130  1  0.74494102  0.41441836  0.55479455  1
  Se  Se131  1  0.76328078  0.76823881  0.05396644  1
  Se  Se132  1  0.74859551  0.74571636  0.56054045  1
  Se  Se133  1  0.24957941  0.24917098  0.06331772  1
  Se  Se134  1  0.25339068  0.25788771  0.56298597  1
  Se  Se135  1  0.26173330  0.58867150  0.05341377  1
  Se  Se136  1  0.24610012  0.58501286  0.54788556  1
  Se  Se137  1  0.24785078  0.90957573  0.04891000  1
  Se  Se138  1  0.25866957  0.92110524  0.55971950  1
  Se  Se139  1  0.58176677  0.25341242  0.05112619  1
  Se  Se140  1  0.58167421  0.24848840  0.54912313  1
  Se  Se141  1  0.59731968  0.59505358  0.05762337  1
  Se  Se142  1  0.58455547  0.58584756  0.56101774  1
  Se  Se143  1  0.57845478  0.91138225  0.05509692  1
  Se  Se144  1  0.59696099  0.92950292  0.54673058  1
  Se  Se145  1  0.91294308  0.24410564  0.05127151  1
  Se  Se146  1  0.92259344  0.24433289  0.54367986  1
  Se  Se147  1  0.92367029  0.59276161  0.05172574  1
  Se  Se148  1  0.90724438  0.58377521  0.56062410  1
  Se  Se149  1  0.91450964  0.91780669  0.05106388  1
  Se  Se150  1  0.91735989  0.91700963  0.55625482  1
  Se  Se151  1  0.07819321  0.25341204  0.43438596  1
  Se  Se152  1  0.07272890  0.25432826  0.94404776  1
  Se  Se153  1  0.08026519  0.58743846  0.45121704  1
  Se  Se154  1  0.08113344  0.58871174  0.93268402  1
  Se  Se155  1  0.07727328  0.91626303  0.44125154  1
  Se  Se156  1  0.08260923  0.91518334  0.94534432  1
  Se  Se157  1  0.41322780  0.25390433  0.44954869  1
  Se  Se158  1  0.41955351  0.24270574  0.95346847  1
  Se  Se159  1  0.41270498  0.59145159  0.43578661  1
  Se  Se160  1  0.41862424  0.58256602  0.93730480  1
  Se  Se161  1  0.42365150  0.90779292  0.45470520  1
  Se  Se162  1  0.41981413  0.91139030  0.94327555  1
  Se  Se163  1  0.75091674  0.24591114  0.44485350  1
  Se  Se164  1  0.75932908  0.24052851  0.95687930  1
  Se  Se165  1  0.74828119  0.58311011  0.45056804  1
  Se  Se166  1  0.76847207  0.57986323  0.94229140  1
  Se  Se167  1  0.76494924  0.88971058  0.44487764  1
  Se  Se168  1  0.74877634  0.91966769  0.94988585  1
  Se  Se169  1  0.26258413  0.07521060  0.44476373  1
  Se  Se170  1  0.25462002  0.07163257  0.93741033  1
  Se  Se171  1  0.24554197  0.42407189  0.44457702  1
  Se  Se172  1  0.25701026  0.40506114  0.94618100  1
  Se  Se173  1  0.25773331  0.74618182  0.43456855  1
  Se  Se174  1  0.25256568  0.74856759  0.94280591  1
  Se  Se175  1  0.56333778  0.10709138  0.43968829  1
  Se  Se176  1  0.57812663  0.08205300  0.94650868  1
  Se  Se177  1  0.59074369  0.41118861  0.43629031  1
  Se  Se178  1  0.59645441  0.41197229  0.93739851  1
  Se  Se179  1  0.58268246  0.74802493  0.44461301  1
  Se  Se180  1  0.57585336  0.74733205  0.95367091  1
  Se  Se181  1  0.92090090  0.08037953  0.44726179  1
  Se  Se182  1  0.91191086  0.08350506  0.94501996  1
  Se  Se183  1  0.89503750  0.43222229  0.44682676  1
  Se  Se184  1  0.93460678  0.40981273  0.95001861  1
  Se  Se185  1  0.91127760  0.75037262  0.45378224  1
  Se  Se186  1  0.91582297  0.75465147  0.93952254  1
  Se  Se187  1  0.25273789  0.25211802  0.30563294  1
  Se  Se188  1  0.24231978  0.23803429  0.81599132  1
  Se  Se189  1  0.24951882  0.58641951  0.30234257  1
  Se  Se190  1  0.25368637  0.58564236  0.79807292  1
  Se  Se191  1  0.24349197  0.91026710  0.30481396  1
  Se  Se192  1  0.25109133  0.91503315  0.80253022  1
  Se  Se193  1  0.58114545  0.25176582  0.30740105  1
  Se  Se194  1  0.57899675  0.23859565  0.80974763  1
  Se  Se195  1  0.58659417  0.58817893  0.29746900  1
  Se  Se196  1  0.58650334  0.58751690  0.80357807  1
  Se  Se197  1  0.58525512  0.91550231  0.30730349  1
  Se  Se198  1  0.58986619  0.90073084  0.81706073  1
  Se  Se199  1  0.91144447  0.25787106  0.29797420  1
  Se  Se200  1  0.90367339  0.25334651  0.81220251  1
  Se  Se201  1  0.91475798  0.58035237  0.31352638  1
  Se  Se202  1  0.92093051  0.59352221  0.79422573  1
  Se  Se203  1  0.90659070  0.90955231  0.31324489  1
  Se  Se204  1  0.91478859  0.92109383  0.80365014  1
  Se  Se205  1  0.08554382  0.08830790  0.31215560  1
  Se  Se206  1  0.07566666  0.08139936  0.80397038  1
  Se  Se207  1  0.07872396  0.42250505  0.30684857  1
  Se  Se208  1  0.08354847  0.43070674  0.81017388  1
  Se  Se209  1  0.08803885  0.75382804  0.30258397  1
  Se  Se210  1  0.08019744  0.75023449  0.80126309  1
  Se  Se211  1  0.42935327  0.08086218  0.31598441  1
  Se  Se212  1  0.41857956  0.07451481  0.80177397  1
  Se  Se213  1  0.41733143  0.41822987  0.30096868  1
  Se  Se214  1  0.42557669  0.42366474  0.81345321  1
  Se  Se215  1  0.41533728  0.75329587  0.29977019  1
  Se  Se216  1  0.41627844  0.75026329  0.80154319  1
  Se  Se217  1  0.75415121  0.07697562  0.30728558  1
  Se  Se218  1  0.75059359  0.09210216  0.80797728  1
  Se  Se219  1  0.75536882  0.42515688  0.31036681  1
  Se  Se220  1  0.76602011  0.42324053  0.81032093  1
  Se  Se221  1  0.74858529  0.74070131  0.30290422  1
  Se  Se222  1  0.74369810  0.75201495  0.80489743  1
  Se  Se223  1  0.23777232  0.09198431  0.19419040  1
  Se  Se224  1  0.25562734  0.07865088  0.70267406  1
  Se  Se225  1  0.25406253  0.41316264  0.20150813  1
  Se  Se226  1  0.24066501  0.41939842  0.69009212  1
  Se  Se227  1  0.25556606  0.74417414  0.19166526  1
  Se  Se228  1  0.24993169  0.75088975  0.69366106  1
  Se  Se229  1  0.58502869  0.08385732  0.19703099  1
  Se  Se230  1  0.58532419  0.09030335  0.68667895  1
  Se  Se231  1  0.57597624  0.42921438  0.18426501  1
  Se  Se232  1  0.57623388  0.42445063  0.69527298  1
  Se  Se233  1  0.58502789  0.74892223  0.19456247  1
  Se  Se234  1  0.58719117  0.75535812  0.69582976  1
  Se  Se235  1  0.90440727  0.08508597  0.19058024  1
  Se  Se236  1  0.91584531  0.08452695  0.69665165  1
  Se  Se237  1  0.91150737  0.41458414  0.19255760  1
  Se  Se238  1  0.90857761  0.42148919  0.68798166  1
  Se  Se239  1  0.90911383  0.76046740  0.19131761  1
  Se  Se240  1  0.91570840  0.74927243  0.70135072  1
  Se  Se241  1  0.07704891  0.25480360  0.20143769  1
  Se  Se242  1  0.09201809  0.24178785  0.69192620  1
  Se  Se243  1  0.09198849  0.57121797  0.18439999  1
  Se  Se244  1  0.07996966  0.58450717  0.69098559  1
  Se  Se245  1  0.08581835  0.90945834  0.18685895  1
  Se  Se246  1  0.07971625  0.91893703  0.70173500  1
  Se  Se247  1  0.41487543  0.24770803  0.20206860  1
  Se  Se248  1  0.42287799  0.24896079  0.69444294  1
  Se  Se249  1  0.41430256  0.58890285  0.19705027  1
  Se  Se250  1  0.41287829  0.58683497  0.69631336  1
  Se  Se251  1  0.42296787  0.91144880  0.18721012  1
  Se  Se252  1  0.42404152  0.91970062  0.69479493  1
  Se  Se253  1  0.75257365  0.24526852  0.18614431  1
  Se  Se254  1  0.75622088  0.25065899  0.68579088  1
  Se  Se255  1  0.75706472  0.58887949  0.19630013  1
  Se  Se256  1  0.74457516  0.58553905  0.70483371  1
  Se  Se257  1  0.74132676  0.91888708  0.19787832  1
  Se  Se258  1  0.75781331  0.91260473  0.68851314  1
