# generated using pymatgen
data_In86Cu29Se144
_symmetry_space_group_name_H-M   'P 1'
_cell_length_a   17.58934679
_cell_length_b   17.59063497
_cell_length_c   23.44930906
_cell_angle_alpha   89.98988124
_cell_angle_beta   89.98170973
_cell_angle_gamma   90.01155547
_symmetry_Int_Tables_number   1
_chemical_formula_structural   In86Cu29Se144
_chemical_formula_sum   'In86 Cu29 Se144'
_cell_volume   7255.39799926
_cell_formula_units_Z   1
loop_
 _symmetry_equiv_pos_site_id
 _symmetry_equiv_pos_as_xyz
  1  'x, y, z'
loop_
 _atom_site_type_symbol
 _atom_site_label
 _atom_site_symmetry_multiplicity
 _atom_site_fract_x
 _atom_site_fract_y
 _atom_site_fract_z
 _atom_site_occupancy
  In  In0  1  0.00190774  0.17610995  0.12784933  1
  In  In1  1  0.00245101  0.16743299  0.61963296  1
  In  In2  1  -0.00604029  0.48815612  0.12450337  1
  In  In3  1  0.00646774  0.50264395  0.62403960  1
  In  In4  1  -0.00686565  0.84622618  0.12090566  1
  In  In5  1  -0.00005131  0.83680168  0.62626909  1
  In  In6  1  0.36382096  0.13512053  0.16986567  1
  In  In7  1  0.32827278  0.16596879  0.62102988  1
  In  In8  1  0.33656917  0.49987350  0.13636288  1
  In  In9  1  0.33398676  0.49984570  0.61328350  1
  In  In10  1  0.34090721  0.82143848  0.12930099  1
  In  In11  1  0.32535112  0.84456176  0.62729180  1
  In  In12  1  0.65594793  0.17086467  0.13953155  1
  In  In13  1  0.67055215  0.15184709  0.62830833  1
  In  In14  1  0.66069609  0.49098287  0.13153441  1
  In  In15  1  0.65704218  0.48890587  0.61112050  1
  In  In16  1  0.67204115  0.84471711  0.12003141  1
  In  In17  1  0.67618459  0.84318152  0.62439952  1
  In  In18  1  0.17213788  -0.00582371  0.38372818  1
  In  In19  1  0.16901719  0.00367215  0.86120782  1
  In  In20  1  0.16817982  0.33321900  0.37457297  1
  In  In21  1  0.16163221  0.33773021  0.87474083  1
  In  In22  1  0.17738053  0.66046977  0.38734374  1
  In  In23  1  0.16448253  0.66240097  0.85454512  1
  In  In24  1  0.51291140  0.02289531  0.35489441  1
  In  In25  1  0.49214039  -0.00121532  0.87469056  1
  In  In26  1  0.50692256  0.33151867  0.36655662  1
  In  In27  1  0.49206095  0.32552919  0.88422838  1
  In  In28  1  0.48405429  0.66397983  0.37333970  1
  In  In29  1  0.50702197  0.67902761  0.87204487  1
  In  In30  1  0.83094325  0.00429709  0.38484460  1
  In  In31  1  0.82225667  -0.00373301  0.86774729  1
  In  In32  1  0.84019147  0.32700171  0.37511752  1
  In  In33  1  0.84157918  0.32827804  0.87451956  1
  In  In34  1  0.83851747  0.66183488  0.38636370  1
  In  In35  1  0.84657242  0.67394611  0.86608842  1
  In  In36  1  -0.00879547  0.17647775  0.37919533  1
  In  In37  1  0.00585897  0.17153140  0.86446730  1
  In  In38  1  0.01912910  0.48152240  0.39291026  1
  In  In39  1  0.00098747  0.49911546  0.85617582  1
  In  In40  1  0.00252258  0.83345543  0.38958232  1
  In  In41  1  -0.00465974  0.83069284  0.86861649  1
  In  In42  1  0.32642485  0.16127556  0.36591451  1
  In  In43  1  0.34432957  0.16045888  0.87992723  1
  In  In44  1  0.32932738  0.49832744  0.38053590  1
  In  In45  1  0.31713951  0.49592254  0.86979928  1
  In  In46  1  0.33341375  0.83267941  0.37236515  1
  In  In47  1  0.34046691  0.83871472  0.86907050  1
  In  In48  1  0.68772228  0.18270268  0.34590215  1
  In  In49  1  0.66350219  0.15562916  0.87444335  1
  In  In50  1  0.68031037  0.48769691  0.38733479  1
  In  In51  1  0.66019329  0.49939933  0.87310227  1
  In  In52  1  0.67251887  0.84491256  0.37379143  1
  In  In53  1  0.65466227  0.84861424  0.88445128  1
  In  In54  1  0.17031291  0.01544509  0.12989926  1
  In  In55  1  0.16824857  0.00104096  0.61978910  1
  In  In56  1  0.17133362  0.32342754  0.14275920  1
  In  In57  1  0.16840891  0.32231455  0.61020540  1
  In  In58  1  0.17481951  0.67493342  0.12796681  1
  In  In59  1  0.16243417  0.66859501  0.62684801  1
  In  In60  1  0.50298603  -0.00313033  0.12572238  1
  In  In61  1  0.50659770  0.00615970  0.64063972  1
  In  In62  1  0.51011302  0.31339412  0.14945160  1
  In  In63  1  0.48057228  0.33374825  0.61591730  1
  In  In64  1  0.48880184  0.66976363  0.12308870  1
  In  In65  1  0.49605146  0.65234012  0.62224119  1
  In  In66  1  0.83324561  -0.01167212  0.12411343  1
  In  In67  1  0.83710753  0.00453631  0.62463556  1
  In  In68  1  0.83793307  0.32182283  0.14214986  1
  In  In69  1  0.84764203  0.34377023  0.61285285  1
  In  In70  1  0.82694348  0.67227623  0.12486623  1
  In  In71  1  0.84124090  0.67594345  0.61836529  1
  In  In72  1  0.83042069  0.16370088  0.00783720  1
  In  In73  1  0.16413886  0.49710935  -0.00154736  1
  In  In74  1  0.16786607  0.17081371  0.00229323  1
  In  In75  1  0.66853570  0.67262447  0.74319845  1
  In  In76  1  0.32589106  0.32429022  0.74071716  1
  In  In77  1  0.49907399  0.83582936  0.49135418  1
  In  In78  1  0.83119789  0.49995550  -0.00993965  1
  In  In79  1  0.66909310  0.32842737  0.75516367  1
  In  In80  1  0.00860723  0.65913388  0.26035842  1
  In  In81  1  0.50141931  0.17071506  0.48975430  1
  In  In82  1  0.66471304  0.66205726  0.24593617  1
  In  In83  1  0.16731225  0.83313212  -0.00394412  1
  In  In84  1  -0.00172773  0.00578152  0.24870271  1
  In  In85  1  0.49854157  0.50401151  0.00452137  1
  Cu  Cu86  1  0.67068419  0.68076861  -0.00005639  1
  Cu  Cu87  1  -0.00653037  0.67129210  0.50919369  1
  Cu  Cu88  1  0.84335296  0.17378526  0.74496918  1
  Cu  Cu89  1  0.16560150  0.50315498  0.26135314  1
  Cu  Cu90  1  0.66642329  0.32098039  0.49272878  1
  Cu  Cu91  1  -0.00272651  0.33153625  0.50000338  1
  Cu  Cu92  1  0.83975853  0.48618597  0.25967783  1
  Cu  Cu93  1  -0.00907740  -0.00062194  -0.00563362  1
  Cu  Cu94  1  0.34007589  0.00308263  0.49486791  1
  Cu  Cu95  1  0.66602250  0.32660316  0.01491256  1
  Cu  Cu96  1  0.33588577  0.66961319  -0.00472601  1
  Cu  Cu97  1  0.16636513  0.16495579  0.74107457  1
  Cu  Cu98  1  0.83528581  0.50411707  0.73749824  1
  Cu  Cu99  1  -0.00362106  0.66828007  -0.00838209  1
  Cu  Cu100  1  0.33816399  -0.00115299  0.00852321  1
  Cu  Cu101  1  0.65505718  0.00239452  -0.00148806  1
  Cu  Cu102  1  0.50064707  0.50204830  0.25557105  1
  Cu  Cu103  1  0.16546909  0.83525989  0.74262146  1
  Cu  Cu104  1  0.83751297  0.83057347  0.25137785  1
  Cu  Cu105  1  0.17598997  0.83441674  0.25452188  1
  Cu  Cu106  1  0.83195429  0.84283715  0.74724147  1
  Cu  Cu107  1  0.34086890  0.32037208  0.01235129  1
  Cu  Cu108  1  0.00286237  0.00230404  0.50413449  1
  Cu  Cu109  1  0.49559809  0.83903235  0.25157469  1
  Cu  Cu110  1  0.32849347  0.67101226  0.50044074  1
  Cu  Cu111  1  0.49297499  0.83222330  0.75202829  1
  Cu  Cu112  1  0.48917820  0.49399711  0.74293020  1
  Cu  Cu113  1  0.67153116  0.00103416  0.49935596  1
  Cu  Cu114  1  0.66575897  0.66550886  0.50228019  1
  Se  Se115  1  0.06974649  0.07559938  0.05627578  1
  Se  Se116  1  0.09002311  0.08830136  0.55065269  1
  Se  Se117  1  0.08546044  0.40397473  0.06257685  1
  Se  Se118  1  0.08189820  0.41561981  0.55184038  1
  Se  Se119  1  0.07421214  0.74316196  0.05806509  1
  Se  Se120  1  0.08271043  0.75460127  0.55659422  1
  Se  Se121  1  0.40716415  0.08522781  0.06953158  1
  Se  Se122  1  0.42405722  0.07495402  0.55747399  1
  Se  Se123  1  0.41628936  0.41173865  0.06653201  1
  Se  Se124  1  0.41901833  0.42178135  0.54388494  1
  Se  Se125  1  0.41736149  0.75283060  0.04864758  1
  Se  Se126  1  0.41384563  0.75011162  0.55812618  1
  Se  Se127  1  0.73527507  0.07652182  0.06355594  1
  Se  Se128  1  0.75346281  0.08513200  0.55260320  1
  Se  Se129  1  0.75240810  0.41191048  0.06338686  1
  Se  Se130  1  0.74564588  0.40818283  0.54758862  1
  Se  Se131  1  0.75674303  0.75861984  0.05381437  1
  Se  Se132  1  0.74485535  0.75197163  0.55505432  1
  Se  Se133  1  0.25654985  0.24503215  0.07029630  1
  Se  Se134  1  0.27408678  0.25995527  0.54895606  1
  Se  Se135  1  0.25803460  0.58930062  0.05666089  1
  Se  Se136  1  0.24503284  0.58900480  0.55411441  1
  Se  Se137  1  0.25085988  0.91999107  0.06401359  1
  Se  Se138  1  0.25568324  0.92156454  0.54900791  1
  Se  Se139  1  0.57682984  0.24707146  0.06398036  1
  Se  Se140  1  0.58939353  0.25050433  0.56209699  1
  Se  Se141  1  0.59686331  0.59454944  0.06095320  1
  Se  Se142  1  0.57753354  0.58083075  0.54773001  1
  Se  Se143  1  0.57797088  0.91345273  0.05176076  1
  Se  Se144  1  0.58241852  0.92689929  0.55705454  1
  Se  Se145  1  0.92077872  0.26335728  0.05667825  1
  Se  Se146  1  0.91374590  0.24304506  0.54882579  1
  Se  Se147  1  0.92084696  0.58949304  0.05644701  1
  Se  Se148  1  0.91325344  0.57810620  0.55527425  1
  Se  Se149  1  0.90949361  0.91389126  0.04610639  1
  Se  Se150  1  0.91709728  0.91911715  0.55563467  1
  Se  Se151  1  0.08300112  0.25176928  0.44529155  1
  Se  Se152  1  0.07312937  0.25758455  0.94484787  1
  Se  Se153  1  0.07578214  0.59405422  0.45012270  1
  Se  Se154  1  0.07843879  0.58877286  0.93500980  1
  Se  Se155  1  0.08804970  0.91586194  0.45441387  1
  Se  Se156  1  0.08003871  0.92662904  0.93732919  1
  Se  Se157  1  0.40750719  0.25719099  0.43404152  1
  Se  Se158  1  0.42097447  0.23895845  0.95547700  1
  Se  Se159  1  0.41313149  0.58581441  0.44920082  1
  Se  Se160  1  0.41102911  0.58394691  0.93480864  1
  Se  Se161  1  0.42277387  0.93379136  0.42944598  1
  Se  Se162  1  0.41202205  0.91552487  0.94737253  1
  Se  Se163  1  0.74853201  0.23993436  0.43716672  1
  Se  Se164  1  0.74287045  0.25712224  0.94396563  1
  Se  Se165  1  0.75303030  0.58077291  0.45341474  1
  Se  Se166  1  0.74009331  0.59747184  0.93495305  1
  Se  Se167  1  0.75353265  0.91062817  0.45140834  1
  Se  Se168  1  0.74854782  0.92543354  0.94806213  1
  Se  Se169  1  0.25375415  0.08752144  0.44632767  1
  Se  Se170  1  0.25177720  0.06920035  0.94523214  1
  Se  Se171  1  0.22276476  0.43795227  0.44180607  1
  Se  Se172  1  0.26271438  0.39972722  0.94901187  1
  Se  Se173  1  0.25106585  0.76114947  0.44822408  1
  Se  Se174  1  0.24978169  0.73973221  0.93418065  1
  Se  Se175  1  0.59750180  0.08171851  0.43652594  1
  Se  Se176  1  0.57458916  0.08515923  0.94446186  1
  Se  Se177  1  0.58150586  0.40795196  0.44468694  1
  Se  Se178  1  0.59331823  0.40800909  0.94897336  1
  Se  Se179  1  0.59110865  0.74174260  0.43486197  1
  Se  Se180  1  0.57749068  0.75518912  0.94937075  1
  Se  Se181  1  0.91953683  0.08407882  0.44930124  1
  Se  Se182  1  0.91782468  0.08656456  0.93557575  1
  Se  Se183  1  0.90999702  0.41526766  0.44895300  1
  Se  Se184  1  0.93233315  0.41507576  0.93877387  1
  Se  Se185  1  0.91112339  0.75412392  0.45312287  1
  Se  Se186  1  0.91323465  0.75542179  0.94361409  1
  Se  Se187  1  0.25317912  0.25844618  0.30330287  1
  Se  Se188  1  0.24245399  0.23787548  0.81173187  1
  Se  Se189  1  0.25204516  0.58832032  0.30894114  1
  Se  Se190  1  0.24773951  0.57353169  0.79485672  1
  Se  Se191  1  0.25362330  0.92294902  0.30645309  1
  Se  Se192  1  0.25042105  0.91302874  0.80042052  1
  Se  Se193  1  0.56289616  0.22728432  0.30076133  1
  Se  Se194  1  0.57124414  0.24378576  0.81083370  1
  Se  Se195  1  0.58557005  0.57761014  0.31613264  1
  Se  Se196  1  0.57413106  0.57557080  0.79988603  1
  Se  Se197  1  0.58665946  0.91517658  0.30143553  1
  Se  Se198  1  0.57749843  0.91483871  0.80552948  1
  Se  Se199  1  0.91106589  0.24160785  0.30123846  1
  Se  Se200  1  0.92301391  0.25960426  0.79928391  1
  Se  Se201  1  0.91725227  0.56993322  0.31727216  1
  Se  Se202  1  0.91548359  0.58764808  0.79405797  1
  Se  Se203  1  0.91872880  0.90806182  0.31179438  1
  Se  Se204  1  0.91733325  0.92216755  0.80301317  1
  Se  Se205  1  0.08309795  0.08298867  0.31839394  1
  Se  Se206  1  0.08058869  0.08309017  0.79624880  1
  Se  Se207  1  0.07885338  0.41596953  0.30582272  1
  Se  Se208  1  0.09668224  0.41926259  0.79984407  1
  Se  Se209  1  0.09286556  0.75788194  0.31458361  1
  Se  Se210  1  0.07947201  0.75488702  0.79748830  1
  Se  Se211  1  0.40916634  0.08527815  0.29192307  1
  Se  Se212  1  0.40639322  0.07611423  0.80497716  1
  Se  Se213  1  0.41592601  0.42234292  0.30913961  1
  Se  Se214  1  0.41861728  0.41285700  0.80870507  1
  Se  Se215  1  0.41509026  0.75076188  0.30158976  1
  Se  Se216  1  0.41355656  0.74295627  0.80225171  1
  Se  Se217  1  0.74681857  0.06005691  0.30574062  1
  Se  Se218  1  0.75765312  0.09686208  0.80204141  1
  Se  Se219  1  0.74764116  0.40911102  0.30880010  1
  Se  Se220  1  0.76155880  0.42938218  0.80761288  1
  Se  Se221  1  0.75823734  0.74595890  0.30916160  1
  Se  Se222  1  0.74905415  0.76329843  0.80896960  1
  Se  Se223  1  0.23214781  0.09235928  0.20810025  1
  Se  Se224  1  0.25286225  0.08139218  0.69164300  1
  Se  Se225  1  0.24619926  0.42410244  0.20185543  1
  Se  Se226  1  0.24325916  0.41789900  0.68252457  1
  Se  Se227  1  0.25527635  0.74588554  0.20195992  1
  Se  Se228  1  0.25199311  0.75106216  0.69361511  1
  Se  Se229  1  0.58039496  0.07498251  0.19971895  1
  Se  Se230  1  0.59245340  0.08568117  0.70603174  1
  Se  Se231  1  0.58640365  0.41565762  0.20671354  1
  Se  Se232  1  0.57511007  0.41269505  0.68983813  1
  Se  Se233  1  0.57692464  0.75849527  0.18978081  1
  Se  Se234  1  0.57242804  0.75918918  0.68431352  1
  Se  Se235  1  0.90410811  0.09070634  0.18813576  1
  Se  Se236  1  0.92232809  0.08657333  0.69266229  1
  Se  Se237  1  0.92595305  0.41050627  0.20213935  1
  Se  Se238  1  0.92055513  0.41605561  0.69187034  1
  Se  Se239  1  0.92077873  0.75082946  0.19454994  1
  Se  Se240  1  0.91130243  0.75564575  0.69485541  1
  Se  Se241  1  0.08253178  0.23994968  0.20398818  1
  Se  Se242  1  0.08797188  0.25167900  0.68754998  1
  Se  Se243  1  0.09109196  0.57519236  0.18830412  1
  Se  Se244  1  0.07066093  0.59614442  0.69474171  1
  Se  Se245  1  0.09209235  0.90744210  0.19193036  1
  Se  Se246  1  0.08453014  0.92249685  0.69168044  1
  Se  Se247  1  0.38493080  0.27649005  0.19803062  1
  Se  Se248  1  0.42773021  0.23619281  0.69186254  1
  Se  Se249  1  0.42209341  0.58701250  0.19952037  1
  Se  Se250  1  0.40830622  0.57963857  0.69194610  1
  Se  Se251  1  0.41227416  0.91670919  0.19405588  1
  Se  Se252  1  0.41509700  0.91807384  0.69688767  1
  Se  Se253  1  0.74346541  0.25082306  0.20488886  1
  Se  Se254  1  0.75918652  0.25328606  0.68635896  1
  Se  Se255  1  0.76601667  0.56888495  0.19512622  1
  Se  Se256  1  0.74644057  0.57556849  0.68050299  1
  Se  Se257  1  0.75324104  0.91197714  0.19814414  1
  Se  Se258  1  0.74795800  0.92724277  0.69651798  1
