# generated using pymatgen
data_In86Cu29Se144
_symmetry_space_group_name_H-M   'P 1'
_cell_length_a   17.64820207
_cell_length_b   17.65570368
_cell_length_c   23.49041811
_cell_angle_alpha   89.99704613
_cell_angle_beta   90.00897636
_cell_angle_gamma   89.98944328
_symmetry_Int_Tables_number   1
_chemical_formula_structural   In86Cu29Se144
_chemical_formula_sum   'In86 Cu29 Se144'
_cell_volume   7319.41265531
_cell_formula_units_Z   1
loop_
 _symmetry_equiv_pos_site_id
 _symmetry_equiv_pos_as_xyz
  1  'x, y, z'
loop_
 _atom_site_type_symbol
 _atom_site_label
 _atom_site_symmetry_multiplicity
 _atom_site_fract_x
 _atom_site_fract_y
 _atom_site_fract_z
 _atom_site_occupancy
  In  In0  1  -0.01597831  0.15402597  0.12674566  1
  In  In1  1  0.00853914  0.14904012  0.61937960  1
  In  In2  1  0.01550604  0.49966302  0.11761431  1
  In  In3  1  0.01425376  0.51453849  0.62991773  1
  In  In4  1  0.00934928  0.82931651  0.12368689  1
  In  In5  1  0.01050542  0.82491987  0.62527587  1
  In  In6  1  0.31771599  0.15493973  0.11805589  1
  In  In7  1  0.33690407  0.16121218  0.61355780  1
  In  In8  1  0.34523322  0.51700813  0.10469229  1
  In  In9  1  0.33986554  0.50227562  0.62883679  1
  In  In10  1  0.32704709  0.83228955  0.12633069  1
  In  In11  1  0.32359576  0.83144809  0.62627958  1
  In  In12  1  0.66818642  0.16631251  0.13404194  1
  In  In13  1  0.65581792  0.16935509  0.62704516  1
  In  In14  1  0.65159142  0.51304489  0.11766093  1
  In  In15  1  0.66784417  0.50839995  0.63138170  1
  In  In16  1  0.68193808  0.84315357  0.10274902  1
  In  In17  1  0.66130190  0.83369264  0.64372128  1
  In  In18  1  0.17814452  0.00585190  0.36768406  1
  In  In19  1  0.17435471  -0.00966765  0.88156919  1
  In  In20  1  0.15479671  0.33111561  0.37631295  1
  In  In21  1  0.17309608  0.34531894  0.88944487  1
  In  In22  1  0.18579619  0.69604703  0.34074044  1
  In  In23  1  0.17070820  0.67345835  0.88180860  1
  In  In24  1  0.50424922  0.00622101  0.36382989  1
  In  In25  1  0.50605682  -0.01401756  0.88647875  1
  In  In26  1  0.49777253  0.33488560  0.37549851  1
  In  In27  1  0.47995715  0.33720376  0.89436200  1
  In  In28  1  0.48580981  0.67157411  0.37944461  1
  In  In29  1  0.50863808  0.66807103  0.87339929  1
  In  In30  1  0.83206312  0.00673244  0.35762675  1
  In  In31  1  0.83000231  -0.00184764  0.88421461  1
  In  In32  1  0.82390733  0.34869276  0.36502707  1
  In  In33  1  0.82771362  0.32852257  0.87982541  1
  In  In34  1  0.85043608  0.66710113  0.37452303  1
  In  In35  1  0.83826733  0.68309554  0.87844969  1
  In  In36  1  0.01384898  0.16809960  0.37251603  1
  In  In37  1  0.00749129  0.15331135  0.88453031  1
  In  In38  1  -0.00157376  0.50381210  0.36947579  1
  In  In39  1  0.00590812  0.52635340  0.88797644  1
  In  In40  1  0.04995805  0.87119172  0.31738008  1
  In  In41  1  0.01785383  0.80630448  0.90597526  1
  In  In42  1  0.34415340  0.16276952  0.37386457  1
  In  In43  1  0.33251901  0.16576228  0.88763584  1
  In  In44  1  0.33171159  0.52322140  0.37572758  1
  In  In45  1  0.31470657  0.53134018  0.90938694  1
  In  In46  1  0.32744679  0.82769293  0.36009157  1
  In  In47  1  0.35906042  0.78375927  0.93246041  1
  In  In48  1  0.65293305  0.15825319  0.36240495  1
  In  In49  1  0.66763714  0.16071037  0.88215486  1
  In  In50  1  0.65944662  0.49325501  0.37168641  1
  In  In51  1  0.65563178  0.49994705  0.87600802  1
  In  In52  1  0.66113201  0.83869919  0.36956127  1
  In  In53  1  0.66549883  0.83513435  0.87814368  1
  In  In54  1  0.15762573  -0.00415305  0.13636143  1
  In  In55  1  0.17517528  -0.00531545  0.61512485  1
  In  In56  1  0.17724039  0.33140153  0.11224232  1
  In  In57  1  0.18158103  0.33541490  0.62333416  1
  In  In58  1  0.17384182  0.67046676  0.11725198  1
  In  In59  1  0.16552354  0.67174772  0.63294099  1
  In  In60  1  0.49986100  -0.00211466  0.12408596  1
  In  In61  1  0.50160984  0.00496614  0.62737927  1
  In  In62  1  0.50135614  0.34475293  0.11649673  1
  In  In63  1  0.49579707  0.32813361  0.61843674  1
  In  In64  1  0.50091570  0.67145471  0.10807913  1
  In  In65  1  0.50308824  0.66400395  0.63297944  1
  In  In66  1  0.83309676  0.00266891  0.13773051  1
  In  In67  1  0.83351026  -0.01169563  0.62684167  1
  In  In68  1  0.82812970  0.31253868  0.13042637  1
  In  In69  1  0.83027749  0.33314763  0.62764257  1
  In  In70  1  0.84997894  0.70472011  0.08680549  1
  In  In71  1  0.83574538  0.67449735  0.63420303  1
  In  In72  1  -0.00314563  -0.00640484  0.75633159  1
  In  In73  1  0.83197719  0.50205136  0.50398077  1
  In  In74  1  0.66661903  0.66523272  0.23634542  1
  In  In75  1  -0.00339883  0.33602860  0.24819352  1
  In  In76  1  0.33680065  0.33824347  0.75450375  1
  In  In77  1  0.49674518  0.83537342  0.50356556  1
  In  In78  1  0.33421274  -0.01120787  0.75640896  1
  In  In79  1  0.66035232  0.33570458  0.75937683  1
  In  In80  1  0.82851084  0.16384004  0.48587804  1
  In  In81  1  0.33629565  0.33788422  0.24494117  1
  In  In82  1  0.00065099  0.34045053  0.75084168  1
  In  In83  1  0.83665931  0.83237624  0.50222536  1
  In  In84  1  0.83510851  0.49419183  0.00280714  1
  In  In85  1  0.16583218  0.49723939  0.50083507  1
  Cu  Cu86  1  0.83967043  0.51685795  0.75487406  1
  Cu  Cu87  1  0.66531237  0.00574954  0.49487484  1
  Cu  Cu88  1  0.49615706  0.51057909  0.23785268  1
  Cu  Cu89  1  0.83150379  0.82066193  0.23760898  1
  Cu  Cu90  1  0.67185516  0.31921257  0.00427296  1
  Cu  Cu91  1  0.16670346  0.82673974  0.75738156  1
  Cu  Cu92  1  0.32473523  0.00570773  0.00775567  1
  Cu  Cu93  1  0.50270024  0.15942046  0.75243718  1
  Cu  Cu94  1  0.49181925  0.82495475  0.76854120  1
  Cu  Cu95  1  -0.00523001  0.32452628  0.50061648  1
  Cu  Cu96  1  0.49599196  0.50670401  0.75310878  1
  Cu  Cu97  1  0.65550226  0.33099757  0.49542766  1
  Cu  Cu98  1  0.17332751  0.17018748  0.74660549  1
  Cu  Cu99  1  0.83309375  0.83571455  0.75678178  1
  Cu  Cu100  1  0.16507495  0.16835300  0.24442925  1
  Cu  Cu101  1  0.33359682  0.32677716  0.49790546  1
  Cu  Cu102  1  0.16729440  0.51493840  0.76409554  1
  Cu  Cu103  1  0.00073938  0.32425992  0.00320691  1
  Cu  Cu104  1  0.17264541  0.51344303  0.23809638  1
  Cu  Cu105  1  0.81991040  0.50272517  0.23919749  1
  Cu  Cu106  1  0.66740678  0.00227083  0.00693273  1
  Cu  Cu107  1  0.83072332  0.16328178  0.76060420  1
  Cu  Cu108  1  0.01237902  0.67358763  0.49978513  1
  Cu  Cu109  1  0.01873180  -0.00887181  0.48796408  1
  Cu  Cu110  1  0.50309024  0.83767226  0.24543597  1
  Cu  Cu111  1  0.33384788  -0.00278404  0.49324336  1
  Cu  Cu112  1  -0.01265939  0.00540736  0.01272789  1
  Cu  Cu113  1  0.49296071  0.16503725  0.24563188  1
  Cu  Cu114  1  0.66534025  0.66107041  0.50680254  1
  Se  Se115  1  0.07986986  0.08023617  0.06456251  1
  Se  Se116  1  0.09199276  0.07795872  0.54732633  1
  Se  Se117  1  0.08682276  0.41142566  0.04771184  1
  Se  Se118  1  0.07127556  0.40657490  0.56236076  1
  Se  Se119  1  0.10122629  0.76637822  0.04940423  1
  Se  Se120  1  0.09643569  0.75297678  0.55414865  1
  Se  Se121  1  0.41710179  0.08243998  0.05599559  1
  Se  Se122  1  0.42087764  0.07392694  0.55061586  1
  Se  Se123  1  0.39501114  0.39842349  0.05157841  1
  Se  Se124  1  0.40741543  0.41188601  0.55723675  1
  Se  Se125  1  0.39900070  0.74678711  0.04975121  1
  Se  Se126  1  0.41196715  0.74233817  0.56184109  1
  Se  Se127  1  0.74929090  0.08082634  0.06494169  1
  Se  Se128  1  0.74799468  0.07897725  0.55845487  1
  Se  Se129  1  0.74369579  0.40778676  0.06381877  1
  Se  Se130  1  0.73718813  0.40589036  0.55787523  1
  Se  Se131  1  0.71315712  0.71682907  0.05181578  1
  Se  Se132  1  0.73956897  0.74858402  0.56437531  1
  Se  Se133  1  0.24313684  0.23700433  0.04568715  1
  Se  Se134  1  0.24839536  0.24676118  0.55182539  1
  Se  Se135  1  0.23826755  0.57804742  0.04326177  1
  Se  Se136  1  0.25173087  0.58652061  0.56245773  1
  Se  Se137  1  0.24415879  0.92381106  0.06339424  1
  Se  Se138  1  0.25548200  0.91065451  0.54779694  1
  Se  Se139  1  0.58570718  0.24708332  0.06215765  1
  Se  Se140  1  0.58027130  0.24514135  0.55202856  1
  Se  Se141  1  0.56020402  0.56702397  0.04090392  1
  Se  Se142  1  0.58203489  0.58074676  0.56054097  1
  Se  Se143  1  0.57535728  0.91555849  0.04928432  1
  Se  Se144  1  0.59653883  0.92124546  0.55995370  1
  Se  Se145  1  0.91492024  0.24651913  0.05610219  1
  Se  Se146  1  0.91522444  0.24613457  0.56085063  1
  Se  Se147  1  0.93403693  0.58884265  0.04735379  1
  Se  Se148  1  0.92582046  0.59701848  0.55887060  1
  Se  Se149  1  0.91423120  0.91793962  0.06787725  1
  Se  Se150  1  0.93524292  0.92613570  0.55668696  1
  Se  Se151  1  0.08435083  0.24682421  0.45011714  1
  Se  Se152  1  0.08566670  0.25038208  0.94365276  1
  Se  Se153  1  0.08049918  0.58520456  0.43923335  1
  Se  Se154  1  0.11579288  0.56840258  0.95200152  1
  Se  Se155  1  0.08586277  0.91216442  0.42292829  1
  Se  Se156  1  0.06114258  0.93812262  0.94137953  1
  Se  Se157  1  0.41987581  0.24805688  0.44432521  1
  Se  Se158  1  0.43878332  0.21941239  0.95044623  1
  Se  Se159  1  0.42267344  0.57941318  0.44925257  1
  Se  Se160  1  0.44816349  0.56866858  0.94605183  1
  Se  Se161  1  0.41519299  0.91814791  0.43297277  1
  Se  Se162  1  0.38498581  0.93128355  0.93438673  1
  Se  Se163  1  0.73959353  0.26024693  0.43336825  1
  Se  Se164  1  0.75639923  0.24120345  0.94921090  1
  Se  Se165  1  0.74507231  0.58977638  0.44063112  1
  Se  Se166  1  0.75155619  0.58138431  0.93709674  1
  Se  Se167  1  0.74797097  0.92380992  0.43937643  1
  Se  Se168  1  0.74636592  0.91580773  0.95159952  1
  Se  Se169  1  0.25465241  0.08592059  0.44180011  1
  Se  Se170  1  0.24014005  0.08544707  0.94954881  1
  Se  Se171  1  0.25642495  0.40993955  0.43647603  1
  Se  Se172  1  0.28722597  0.39551574  0.94632715  1
  Se  Se173  1  0.25568778  0.74085738  0.43107107  1
  Se  Se174  1  0.21268714  0.77758180  0.95548838  1
  Se  Se175  1  0.57943529  0.08391124  0.44090355  1
  Se  Se176  1  0.58323410  0.07970304  0.95008516  1
  Se  Se177  1  0.57741059  0.42147587  0.44544557  1
  Se  Se178  1  0.59652305  0.40025146  0.94314664  1
  Se  Se179  1  0.59346409  0.74626054  0.44421908  1
  Se  Se180  1  0.57144629  0.76329180  0.94393579  1
  Se  Se181  1  0.92648017  0.07095458  0.43696727  1
  Se  Se182  1  0.91093842  0.08692620  0.95042149  1
  Se  Se183  1  0.92094305  0.40963025  0.44224585  1
  Se  Se184  1  0.92907623  0.40909861  0.93875051  1
  Se  Se185  1  0.92970785  0.75302677  0.44177136  1
  Se  Se186  1  0.90249444  0.75441561  0.96260719  1
  Se  Se187  1  0.24271453  0.25026554  0.30674713  1
  Se  Se188  1  0.24484189  0.24801793  0.81226118  1
  Se  Se189  1  0.26207762  0.58803937  0.29151409  1
  Se  Se190  1  0.25832168  0.58829325  0.81699898  1
  Se  Se191  1  0.24245314  0.91177479  0.29678288  1
  Se  Se192  1  0.25115670  0.89827542  0.81691958  1
  Se  Se193  1  0.57064424  0.25192613  0.30182809  1
  Se  Se194  1  0.57117686  0.24534506  0.81592237  1
  Se  Se195  1  0.57685542  0.58495070  0.30450133  1
  Se  Se196  1  0.58792321  0.58433855  0.80141734  1
  Se  Se197  1  0.58789754  0.92050897  0.29772787  1
  Se  Se198  1  0.58011457  0.91571449  0.80682763  1
  Se  Se199  1  0.91131813  0.24784539  0.31245580  1
  Se  Se200  1  0.91868142  0.24316084  0.81160217  1
  Se  Se201  1  0.90588842  0.57220548  0.30059768  1
  Se  Se202  1  0.92071119  0.59317205  0.81290172  1
  Se  Se203  1  0.90180577  0.89793524  0.30556003  1
  Se  Se204  1  0.91661939  0.90522627  0.82099104  1
  Se  Se205  1  0.08487321  0.08518132  0.30010804  1
  Se  Se206  1  0.09633039  0.08650383  0.80575799  1
  Se  Se207  1  0.09674849  0.42979036  0.30018085  1
  Se  Se208  1  0.08728360  0.42660994  0.81592528  1
  Se  Se209  1  0.04840963  0.72397731  0.31529399  1
  Se  Se210  1  0.07932445  0.75097983  0.81422905  1
  Se  Se211  1  0.41043177  0.08005470  0.29732192  1
  Se  Se212  1  0.41998588  0.08467532  0.81344191  1
  Se  Se213  1  0.42148238  0.43216482  0.30526745  1
  Se  Se214  1  0.42149381  0.42684267  0.81548572  1
  Se  Se215  1  0.42488009  0.75027524  0.29895370  1
  Se  Se216  1  0.40328651  0.75369826  0.82669082  1
  Se  Se217  1  0.74861406  0.09197349  0.29642816  1
  Se  Se218  1  0.74934385  0.07971944  0.81182066  1
  Se  Se219  1  0.73845435  0.42218064  0.29458248  1
  Se  Se220  1  0.76304573  0.42618172  0.80812538  1
  Se  Se221  1  0.75369862  0.74793901  0.30818433  1
  Se  Se222  1  0.74792234  0.75176435  0.80711073  1
  Se  Se223  1  0.24942194  0.08089013  0.19855653  1
  Se  Se224  1  0.25084984  0.08483698  0.69015464  1
  Se  Se225  1  0.25123511  0.42725509  0.18148738  1
  Se  Se226  1  0.23782082  0.43037684  0.69970338  1
  Se  Se227  1  0.24533358  0.74839482  0.19426587  1
  Se  Se228  1  0.25333165  0.74964999  0.70144280  1
  Se  Se229  1  0.57838046  0.08057932  0.19626228  1
  Se  Se230  1  0.58755210  0.08005955  0.69849797  1
  Se  Se231  1  0.58030870  0.42463161  0.18930651  1
  Se  Se232  1  0.57121577  0.41892020  0.69309535  1
  Se  Se233  1  0.57942874  0.76054156  0.18124150  1
  Se  Se234  1  0.57551682  0.74911919  0.70594314  1
  Se  Se235  1  0.91362954  0.08598582  0.20686164  1
  Se  Se236  1  0.90976747  0.08972227  0.69391310  1
  Se  Se237  1  0.91011297  0.42484210  0.18248401  1
  Se  Se238  1  0.90919784  0.43321850  0.68965251  1
  Se  Se239  1  0.91422640  0.74203771  0.18181136  1
  Se  Se240  1  0.91957505  0.76039740  0.69746913  1
  Se  Se241  1  0.08705594  0.25185615  0.18580956  1
  Se  Se242  1  0.08801781  0.24623211  0.68846377  1
  Se  Se243  1  0.08324397  0.59029342  0.18691921  1
  Se  Se244  1  0.08354080  0.59235588  0.70578941  1
  Se  Se245  1  0.07510870  0.91101606  0.20352190  1
  Se  Se246  1  0.09660334  0.91366258  0.69429704  1
  Se  Se247  1  0.41638123  0.24439310  0.18255145  1
  Se  Se248  1  0.41966398  0.23881246  0.69296470  1
  Se  Se249  1  0.41800465  0.59347459  0.18167191  1
  Se  Se250  1  0.41084468  0.58796812  0.70053750  1
  Se  Se251  1  0.41555437  0.91541054  0.19205707  1
  Se  Se252  1  0.42747334  0.90341835  0.69353085  1
  Se  Se253  1  0.74306414  0.25241111  0.20567436  1
  Se  Se254  1  0.75461259  0.24430684  0.69869875  1
  Se  Se255  1  0.75993461  0.58708517  0.17212763  1
  Se  Se256  1  0.75100141  0.58958446  0.69830323  1
  Se  Se257  1  0.74396375  0.90488374  0.19113980  1
  Se  Se258  1  0.75215912  0.92014676  0.70224833  1
