# generated using pymatgen
data_In86Cu29Se144
_symmetry_space_group_name_H-M   'P 1'
_cell_length_a   17.52397476
_cell_length_b   17.52414460
_cell_length_c   23.36973121
_cell_angle_alpha   89.98883096
_cell_angle_beta   90.00979306
_cell_angle_gamma   89.99868408
_symmetry_Int_Tables_number   1
_chemical_formula_structural   In86Cu29Se144
_chemical_formula_sum   'In86 Cu29 Se144'
_cell_volume   7176.67285920
_cell_formula_units_Z   1
loop_
 _symmetry_equiv_pos_site_id
 _symmetry_equiv_pos_as_xyz
  1  'x, y, z'
loop_
 _atom_site_type_symbol
 _atom_site_label
 _atom_site_symmetry_multiplicity
 _atom_site_fract_x
 _atom_site_fract_y
 _atom_site_fract_z
 _atom_site_occupancy
  In  In0  1  0.00889291  0.17593809  0.11549041  1
  In  In1  1  0.01681748  0.17807274  0.62855739  1
  In  In2  1  -0.01051153  0.50335778  0.13487022  1
  In  In3  1  -0.00346477  0.50074176  0.62941305  1
  In  In4  1  -0.01386788  0.82879725  0.12660659  1
  In  In5  1  0.00580167  0.81093248  0.62350607  1
  In  In6  1  0.32058302  0.16239067  0.12146313  1
  In  In7  1  0.32173003  0.17733150  0.63468163  1
  In  In8  1  0.33287276  0.50829944  0.12339481  1
  In  In9  1  0.33111458  0.51267468  0.63969280  1
  In  In10  1  0.35223143  0.83611870  0.11896035  1
  In  In11  1  0.32702027  0.82327235  0.61612569  1
  In  In12  1  0.64455812  0.14421017  0.09459606  1
  In  In13  1  0.66108152  0.16936458  0.63873967  1
  In  In14  1  0.67177690  0.48935100  0.12033636  1
  In  In15  1  0.67763149  0.49591528  0.64456499  1
  In  In16  1  0.68300221  0.84932986  0.09864953  1
  In  In17  1  0.66018190  0.83543480  0.63207597  1
  In  In18  1  0.18112385  -0.00918046  0.38171690  1
  In  In19  1  0.17706158  0.00722764  0.87694129  1
  In  In20  1  0.15274697  0.34929839  0.39182084  1
  In  In21  1  0.16624651  0.31649504  0.85901207  1
  In  In22  1  0.15656204  0.67343384  0.38868962  1
  In  In23  1  0.15281194  0.65005634  0.85836214  1
  In  In24  1  0.48942401  -0.00222741  0.36565359  1
  In  In25  1  0.52090891  -0.01073613  0.89464752  1
  In  In26  1  0.49018333  0.33943477  0.37445417  1
  In  In27  1  0.49852662  0.33209396  0.86611388  1
  In  In28  1  0.51865716  0.67650926  0.37999509  1
  In  In29  1  0.51672379  0.67786556  0.85341619  1
  In  In30  1  0.82593455  0.01043765  0.36471395  1
  In  In31  1  0.80916504  0.01166538  0.89637063  1
  In  In32  1  0.84429318  0.32979268  0.37450620  1
  In  In33  1  0.83152202  0.33856920  0.86862633  1
  In  In34  1  0.83576671  0.65014352  0.38352485  1
  In  In35  1  0.82847890  0.66421554  0.87873803  1
  In  In36  1  -0.00326594  0.18224240  0.37398480  1
  In  In37  1  -0.00094597  0.17383161  0.88017750  1
  In  In38  1  -0.00078084  0.49821470  0.37796057  1
  In  In39  1  -0.02932890  0.48494362  0.84811759  1
  In  In40  1  0.01128208  0.83018149  0.37531264  1
  In  In41  1  -0.01311102  0.81161261  0.86763125  1
  In  In42  1  0.33701541  0.15654789  0.37555679  1
  In  In43  1  0.33251003  0.17757099  0.88098736  1
  In  In44  1  0.32527877  0.48859556  0.37573947  1
  In  In45  1  0.34221659  0.49794326  0.85453367  1
  In  In46  1  0.33238538  0.83586118  0.37810519  1
  In  In47  1  0.34586892  0.83610036  0.87122706  1
  In  In48  1  0.67907512  0.16289235  0.36796994  1
  In  In49  1  0.66810795  0.16359704  0.87904028  1
  In  In50  1  0.67053135  0.51572864  0.38052044  1
  In  In51  1  0.68683198  0.52541225  0.84241267  1
  In  In52  1  0.65722881  0.83488919  0.37915005  1
  In  In53  1  0.66138961  0.82883879  0.88539276  1
  In  In54  1  0.16336851  0.01629858  0.12672545  1
  In  In55  1  0.17184395  0.00392559  0.61960887  1
  In  In56  1  0.16455562  0.31866843  0.12527982  1
  In  In57  1  0.15515721  0.33206528  0.63252620  1
  In  In58  1  0.15941989  0.65013995  0.12486217  1
  In  In59  1  0.16104192  0.66677957  0.61869772  1
  In  In60  1  0.50127345  -0.00142938  0.12110104  1
  In  In61  1  0.51317403  -0.00033108  0.63040230  1
  In  In62  1  0.51399374  0.33816748  0.11924845  1
  In  In63  1  0.49383419  0.35058096  0.65258990  1
  In  In64  1  0.49860391  0.67867002  0.11707457  1
  In  In65  1  0.49214349  0.67113889  0.63650375  1
  In  In66  1  0.82147401  -0.00907334  0.10961968  1
  In  In67  1  0.82178829  -0.00789855  0.63254151  1
  In  In68  1  0.83789969  0.33764047  0.11355087  1
  In  In69  1  0.82687519  0.35422509  0.64606272  1
  In  In70  1  0.83285955  0.67294976  0.11516600  1
  In  In71  1  0.85546364  0.64118862  0.65673401  1
  In  In72  1  0.83744656  0.17019260  0.49869458  1
  In  In73  1  0.51158323  0.50092309  -0.01255998  1
  In  In74  1  -0.01010860  0.00166675  0.75558667  1
  In  In75  1  0.33164698  0.67002977  0.24672498  1
  In  In76  1  0.66888023  0.67033534  0.24935002  1
  In  In77  1  0.16146660  0.49168717  -0.01587239  1
  In  In78  1  0.49480521  0.50899473  0.50633532  1
  In  In79  1  0.49611811  0.16625732  0.51099475  1
  In  In80  1  0.32862054  0.33046233  0.25252421  1
  In  In81  1  0.83653902  0.82598323  0.50657373  1
  In  In82  1  0.33972452  0.00291110  0.74994816  1
  In  In83  1  0.16298227  0.83790822  -0.00535641  1
  In  In84  1  -0.00237348  -0.00047263  0.24834435  1
  In  In85  1  0.67050066  0.32825000  0.23876163  1
  Cu  Cu86  1  0.00898837  -0.00133441  0.50384888  1
  Cu  Cu87  1  0.50608870  0.84310241  0.24740569  1
  Cu  Cu88  1  0.00117100  0.33990990  -0.01079952  1
  Cu  Cu89  1  0.17268233  0.83138731  0.25551784  1
  Cu  Cu90  1  0.16567730  0.16750948  0.25283530  1
  Cu  Cu91  1  0.16541160  0.82859068  0.73953466  1
  Cu  Cu92  1  0.00075333  -0.00062461  0.00136242  1
  Cu  Cu93  1  0.33761627  0.66547490  0.50585976  1
  Cu  Cu94  1  -0.00524466  0.34071442  0.50500677  1
  Cu  Cu95  1  0.33596432  -0.00472413  0.49743994  1
  Cu  Cu96  1  0.50502838  0.16367746  0.23940344  1
  Cu  Cu97  1  0.82710528  0.16166151  0.23642394  1
  Cu  Cu98  1  0.33983602  0.32956278  -0.00516318  1
  Cu  Cu99  1  0.66819036  0.34420722  0.51465752  1
  Cu  Cu100  1  0.17209194  0.50297002  0.74125264  1
  Cu  Cu101  1  0.81714883  0.83672741  0.75560408  1
  Cu  Cu102  1  0.32039290  0.33380967  0.51306309  1
  Cu  Cu103  1  0.83371670  0.16924553  0.76036658  1
  Cu  Cu104  1  0.50614048  0.15478558  0.76151694  1
  Cu  Cu105  1  0.33537048  0.67241088  -0.01437370  1
  Cu  Cu106  1  -0.01359706  0.66073255  -0.00215520  1
  Cu  Cu107  1  0.67446770  0.33666724  -0.01035248  1
  Cu  Cu108  1  0.15343115  0.49791337  0.25635547  1
  Cu  Cu109  1  0.33806072  0.00812383  -0.00262773  1
  Cu  Cu110  1  0.83732108  0.49234537  0.25195876  1
  Cu  Cu111  1  0.67397114  0.66857937  0.51222940  1
  Cu  Cu112  1  0.82700809  0.82580630  0.23995611  1
  Cu  Cu113  1  0.50144259  0.83080421  0.75723220  1
  Cu  Cu114  1  0.66011700  -0.00125210  0.50141168  1
  Se  Se115  1  0.08840706  0.08587158  0.04747199  1
  Se  Se116  1  0.08499282  0.08945117  0.55528486  1
  Se  Se117  1  0.07892099  0.41337957  0.05940766  1
  Se  Se118  1  0.08209861  0.41862788  0.56001092  1
  Se  Se119  1  0.07746571  0.73911255  0.05432323  1
  Se  Se120  1  0.09505244  0.75882583  0.54662263  1
  Se  Se121  1  0.41667723  0.09006030  0.05629227  1
  Se  Se122  1  0.40440239  0.07375698  0.56856068  1
  Se  Se123  1  0.41246837  0.41792253  0.05425419  1
  Se  Se124  1  0.41163367  0.41159212  0.56646613  1
  Se  Se125  1  0.41782553  0.75237943  0.04189285  1
  Se  Se126  1  0.42640745  0.74789089  0.55448235  1
  Se  Se127  1  0.76205727  0.09179485  0.04238391  1
  Se  Se128  1  0.74115258  0.08217555  0.55904629  1
  Se  Se129  1  0.75446056  0.42136988  0.04470116  1
  Se  Se130  1  0.75477390  0.42559206  0.56437024  1
  Se  Se131  1  0.74130610  0.73625621  0.04426833  1
  Se  Se132  1  0.75561963  0.74181780  0.57620285  1
  Se  Se133  1  0.24990256  0.25319051  0.04965700  1
  Se  Se134  1  0.23760854  0.24681072  0.56044183  1
  Se  Se135  1  0.25434542  0.58942326  0.04534994  1
  Se  Se136  1  0.25652927  0.58077929  0.55880253  1
  Se  Se137  1  0.25405425  0.92569235  0.05857637  1
  Se  Se138  1  0.24890640  0.91542222  0.55176417  1
  Se  Se139  1  0.58243037  0.26064426  0.04205826  1
  Se  Se140  1  0.58206277  0.26378791  0.56893293  1
  Se  Se141  1  0.59101323  0.58747178  0.05905587  1
  Se  Se142  1  0.59111521  0.58590820  0.57035292  1
  Se  Se143  1  0.57129511  0.91357568  0.04673743  1
  Se  Se144  1  0.58078850  0.91347881  0.55549038  1
  Se  Se145  1  0.92167084  0.25321762  0.04584472  1
  Se  Se146  1  0.91417820  0.26051436  0.56723578  1
  Se  Se147  1  0.91239506  0.57300946  0.05587111  1
  Se  Se148  1  0.91346655  0.58922977  0.56437490  1
  Se  Se149  1  0.91874563  0.90929388  0.04945725  1
  Se  Se150  1  0.92425993  0.92413936  0.56464024  1
  Se  Se151  1  0.07582581  0.25035149  0.45292959  1
  Se  Se152  1  0.09195234  0.25547663  0.94425622  1
  Se  Se153  1  0.09833966  0.56277018  0.44487045  1
  Se  Se154  1  0.06328644  0.58237528  0.93421421  1
  Se  Se155  1  0.08689867  0.91451827  0.44637416  1
  Se  Se156  1  0.07112724  0.92160289  0.93068030  1
  Se  Se157  1  0.40599497  0.26035177  0.44891192  1
  Se  Se158  1  0.43014425  0.24988442  0.94567706  1
  Se  Se159  1  0.41068154  0.59348039  0.43431979  1
  Se  Se160  1  0.41443204  0.58636003  0.92977693  1
  Se  Se161  1  0.42375981  0.91614381  0.44453883  1
  Se  Se162  1  0.41430356  0.91396970  0.94940769  1
  Se  Se163  1  0.73705679  0.26158142  0.44520541  1
  Se  Se164  1  0.75962876  0.25037160  0.94067383  1
  Se  Se165  1  0.75173643  0.58016204  0.45873590  1
  Se  Se166  1  0.73976361  0.57471778  0.93765840  1
  Se  Se167  1  0.75149315  0.92524449  0.44421261  1
  Se  Se168  1  0.74478199  0.90798245  0.95692517  1
  Se  Se169  1  0.25250472  0.08626466  0.44963158  1
  Se  Se170  1  0.24996114  0.09117438  0.94939532  1
  Se  Se171  1  0.24871476  0.42310338  0.45613376  1
  Se  Se172  1  0.26334271  0.40893443  0.93047198  1
  Se  Se173  1  0.25677812  0.74957284  0.44806742  1
  Se  Se174  1  0.24272394  0.74404716  0.92860865  1
  Se  Se175  1  0.58570784  0.08492017  0.43989478  1
  Se  Se176  1  0.59484185  0.08512190  0.95712617  1
  Se  Se177  1  0.58570601  0.41537969  0.44552093  1
  Se  Se178  1  0.60014114  0.41667953  0.92418324  1
  Se  Se179  1  0.59100871  0.75225678  0.45765191  1
  Se  Se180  1  0.57138412  0.73759916  0.94322191  1
  Se  Se181  1  0.92531536  0.07229832  0.43946861  1
  Se  Se182  1  0.91951067  0.08543112  0.94745006  1
  Se  Se183  1  0.90907301  0.41855916  0.44778700  1
  Se  Se184  1  0.91438403  0.42331252  0.93939481  1
  Se  Se185  1  0.92791713  0.74019557  0.44468902  1
  Se  Se186  1  0.90751487  0.75293749  0.94989886  1
  Se  Se187  1  0.23913167  0.24910494  0.31851768  1
  Se  Se188  1  0.26757376  0.24739625  0.79736934  1
  Se  Se189  1  0.24281352  0.57968732  0.30882604  1
  Se  Se190  1  0.25650913  0.58836321  0.79346567  1
  Se  Se191  1  0.25758585  0.91774301  0.30322112  1
  Se  Se192  1  0.24135816  0.90802634  0.80383780  1
  Se  Se193  1  0.57496683  0.24608975  0.30750751  1
  Se  Se194  1  0.59111680  0.24611019  0.80592368  1
  Se  Se195  1  0.57508781  0.57718121  0.30599811  1
  Se  Se196  1  0.55219038  0.55357216  0.79917446  1
  Se  Se197  1  0.59012637  0.92165773  0.30478790  1
  Se  Se198  1  0.58359489  0.91462065  0.81145883  1
  Se  Se199  1  0.90699724  0.24280862  0.29750767  1
  Se  Se200  1  0.92351450  0.25311201  0.80511076  1
  Se  Se201  1  0.91486264  0.57979655  0.30660713  1
  Se  Se202  1  0.93051498  0.61336191  0.80580149  1
  Se  Se203  1  0.90729756  0.90474671  0.30633412  1
  Se  Se204  1  0.89850072  0.91697459  0.81749240  1
  Se  Se205  1  0.08676180  0.08481768  0.31398652  1
  Se  Se206  1  0.08897151  0.08911472  0.80885082  1
  Se  Se207  1  0.07588300  0.40721921  0.30751528  1
  Se  Se208  1  0.09601518  0.42723167  0.80698207  1
  Se  Se209  1  0.08816997  0.74550846  0.30441861  1
  Se  Se210  1  0.08033365  0.74927079  0.79520037  1
  Se  Se211  1  0.41585451  0.08896213  0.29682161  1
  Se  Se212  1  0.42584553  0.07770752  0.82307858  1
  Se  Se213  1  0.42359045  0.43130137  0.29991177  1
  Se  Se214  1  0.40745893  0.39541341  0.79235828  1
  Se  Se215  1  0.43005261  0.75668254  0.30671670  1
  Se  Se216  1  0.40715715  0.74558621  0.79682767  1
  Se  Se217  1  0.74278800  0.07895032  0.28930474  1
  Se  Se218  1  0.75090690  0.07959517  0.80796691  1
  Se  Se219  1  0.74821323  0.41885490  0.31083253  1
  Se  Se220  1  0.76728769  0.42439407  0.79062991  1
  Se  Se221  1  0.75866180  0.75389702  0.31566495  1
  Se  Se222  1  0.74155178  0.74890407  0.81135705  1
  Se  Se223  1  0.25003752  0.08422937  0.20112904  1
  Se  Se224  1  0.23562977  0.08859586  0.70166477  1
  Se  Se225  1  0.23911987  0.42555126  0.19142028  1
  Se  Se226  1  0.25301131  0.41017903  0.69569495  1
  Se  Se227  1  0.24314827  0.75778316  0.18152557  1
  Se  Se228  1  0.25180521  0.74393095  0.68998639  1
  Se  Se229  1  0.59017438  0.08292565  0.18721824  1
  Se  Se230  1  0.59039499  0.07361615  0.70650249  1
  Se  Se231  1  0.57481088  0.42999582  0.19667678  1
  Se  Se232  1  0.60080277  0.40715945  0.71290605  1
  Se  Se233  1  0.58559996  0.76252963  0.18670767  1
  Se  Se234  1  0.58491343  0.74734675  0.70265320  1
  Se  Se235  1  0.91439811  0.08387018  0.17922435  1
  Se  Se236  1  0.90708017  0.09379069  0.68934598  1
  Se  Se237  1  0.91412122  0.40439757  0.19682386  1
  Se  Se238  1  0.92916254  0.41886443  0.70866515  1
  Se  Se239  1  0.91379447  0.73849722  0.19601301  1
  Se  Se240  1  0.91183770  0.76509775  0.70193869  1
  Se  Se241  1  0.07983394  0.24752424  0.19901592  1
  Se  Se242  1  0.07967551  0.25397151  0.70888778  1
  Se  Se243  1  0.07595768  0.58612838  0.20224867  1
  Se  Se244  1  0.08435448  0.58820853  0.69400070  1
  Se  Se245  1  0.09060854  0.90754569  0.19004983  1
  Se  Se246  1  0.08198107  0.91727001  0.68845810  1
  Se  Se247  1  0.42322153  0.25020812  0.18543835  1
  Se  Se248  1  0.42796549  0.23270998  0.69900895  1
  Se  Se249  1  0.42917871  0.58173865  0.19055212  1
  Se  Se250  1  0.44010195  0.56455879  0.70386232  1
  Se  Se251  1  0.41606384  0.92123375  0.19541707  1
  Se  Se252  1  0.42166655  0.90546877  0.69124497  1
  Se  Se253  1  0.74842194  0.23811914  0.17255928  1
  Se  Se254  1  0.74992440  0.25096153  0.70309285  1
  Se  Se255  1  0.75673407  0.57419191  0.19209269  1
  Se  Se256  1  0.73901512  0.59466570  0.71400394  1
  Se  Se257  1  0.74781672  0.91255409  0.18728415  1
  Se  Se258  1  0.73532901  0.92296504  0.70470508  1
