# generated using pymatgen
data_In86Cu29Se144
_symmetry_space_group_name_H-M   'P 1'
_cell_length_a   17.57489002
_cell_length_b   17.57478721
_cell_length_c   23.43031581
_cell_angle_alpha   90.00454044
_cell_angle_beta   90.00876644
_cell_angle_gamma   89.97571175
_symmetry_Int_Tables_number   1
_chemical_formula_structural   In86Cu29Se144
_chemical_formula_sum   'In86 Cu29 Se144'
_cell_volume   7237.03692459
_cell_formula_units_Z   1
loop_
 _symmetry_equiv_pos_site_id
 _symmetry_equiv_pos_as_xyz
  1  'x, y, z'
loop_
 _atom_site_type_symbol
 _atom_site_label
 _atom_site_symmetry_multiplicity
 _atom_site_fract_x
 _atom_site_fract_y
 _atom_site_fract_z
 _atom_site_occupancy
  In  In0  1  0.00326058  0.16681568  0.12307084  1
  In  In1  1  -0.00615040  0.14747997  0.62838254  1
  In  In2  1  -0.01430086  0.51452532  0.13286708  1
  In  In3  1  0.00597885  0.51168807  0.62595907  1
  In  In4  1  -0.00217609  0.82435422  0.11601519  1
  In  In5  1  0.00190151  0.83714292  0.62612796  1
  In  In6  1  0.33255281  0.16332145  0.11762245  1
  In  In7  1  0.32292791  0.17210066  0.63700866  1
  In  In8  1  0.34783706  0.50577343  0.11935839  1
  In  In9  1  0.32789735  0.50324737  0.63767929  1
  In  In10  1  0.31985022  0.83180039  0.12139717  1
  In  In11  1  0.33576299  0.82540231  0.62962132  1
  In  In12  1  0.66523893  0.15997230  0.12091176  1
  In  In13  1  0.67557662  0.17264957  0.62869691  1
  In  In14  1  0.69666608  0.53572982  0.08126052  1
  In  In15  1  0.67514109  0.49350162  0.62354016  1
  In  In16  1  0.68697008  0.81409821  0.13207478  1
  In  In17  1  0.66743192  0.83668447  0.61521032  1
  In  In18  1  0.17039517  0.01232058  0.37808181  1
  In  In19  1  0.16569134  -0.00731716  0.87493548  1
  In  In20  1  0.14752857  0.32515886  0.37447255  1
  In  In21  1  0.16870077  0.31907412  0.87487580  1
  In  In22  1  0.16575310  0.67124656  0.36095546  1
  In  In23  1  0.16884856  0.67861558  0.87972486  1
  In  In24  1  0.49138845  -0.01839122  0.37112911  1
  In  In25  1  0.49779699  0.01062956  0.87494091  1
  In  In26  1  0.49933810  0.32748505  0.37313388  1
  In  In27  1  0.49454045  0.34469325  0.88405338  1
  In  In28  1  0.51294653  0.67570610  0.36271858  1
  In  In29  1  0.48292720  0.66660917  0.88727405  1
  In  In30  1  0.82522249  -0.01334022  0.36269181  1
  In  In31  1  0.86011260  -0.01971365  0.90018847  1
  In  In32  1  0.85914255  0.33443944  0.37012368  1
  In  In33  1  0.82946946  0.33229593  0.89048661  1
  In  In34  1  0.83204538  0.66878116  0.37191153  1
  In  In35  1  0.84557449  0.66159622  0.90061534  1
  In  In36  1  0.00820600  0.16744371  0.36580616  1
  In  In37  1  0.02118139  0.14145917  0.90336659  1
  In  In38  1  -0.00916970  0.49436660  0.36270989  1
  In  In39  1  -0.01307656  0.50817337  0.88163418  1
  In  In40  1  -0.01198388  0.82249454  0.36406755  1
  In  In41  1  0.00638223  0.83673797  0.88211679  1
  In  In42  1  0.31502874  0.14809613  0.37715887  1
  In  In43  1  0.33091608  0.16424210  0.86892678  1
  In  In44  1  0.32204802  0.50517614  0.37244944  1
  In  In45  1  0.33972459  0.51239694  0.87820877  1
  In  In46  1  0.34668485  0.84121360  0.37467404  1
  In  In47  1  0.31774327  0.81842877  0.87140931  1
  In  In48  1  0.68450446  0.16503602  0.36597701  1
  In  In49  1  0.66779678  0.16679737  0.89333894  1
  In  In50  1  0.67272023  0.51923468  0.36782354  1
  In  In51  1  0.66969360  0.49940828  0.89583746  1
  In  In52  1  0.66761586  0.83397235  0.36914798  1
  In  In53  1  0.67093516  0.83202043  0.87833498  1
  In  In54  1  0.13225849  -0.02606513  0.09023411  1
  In  In55  1  0.15946382  0.00515188  0.62980135  1
  In  In56  1  0.16245366  0.31980576  0.12096338  1
  In  In57  1  0.17208462  0.33992255  0.63054930  1
  In  In58  1  0.15863183  0.67579784  0.12606995  1
  In  In59  1  0.16409065  0.66479557  0.63566482  1
  In  In60  1  0.50015004  0.01460533  0.12148824  1
  In  In61  1  0.50019176  -0.01626892  0.62543227  1
  In  In62  1  0.52384499  0.34194923  0.10290303  1
  In  In63  1  0.49533375  0.32377487  0.62850066  1
  In  In64  1  0.50766561  0.66050027  0.12568300  1
  In  In65  1  0.48976638  0.67000493  0.62664985  1
  In  In66  1  0.84590080  -0.01055990  0.11917059  1
  In  In67  1  0.84374278  -0.00375516  0.62936676  1
  In  In68  1  0.83824746  0.35028046  0.11625807  1
  In  In69  1  0.82522079  0.33719374  0.62656365  1
  In  In70  1  0.83660362  0.67320557  0.11570518  1
  In  In71  1  0.84149630  0.67649284  0.61882780  1
  In  In72  1  0.67312157  0.34053235  0.23208785  1
  In  In73  1  0.32828057  -0.00132111  0.24875189  1
  In  In74  1  0.66222287  0.33721332  0.76062249  1
  In  In75  1  0.16334764  0.50918841  -0.00140920  1
  In  In76  1  0.16148312  0.49807111  0.50318916  1
  In  In77  1  0.50478625  0.16191687  0.50511490  1
  In  In78  1  0.66875508  0.00715207  0.75452915  1
  In  In79  1  0.16520347  0.83758115  0.49917910  1
  In  In80  1  -0.00285355  0.33260754  0.75714717  1
  In  In81  1  0.50216107  0.50852203  0.50428948  1
  In  In82  1  0.66551619  0.66755408  0.76300931  1
  In  In83  1  0.33453983  0.33566170  0.24422944  1
  In  In84  1  0.84025557  0.16241733  0.50235400  1
  In  In85  1  0.50616708  0.83216796  0.00161524  1
  Cu  Cu86  1  0.33242491  0.00236680  -0.00914334  1
  Cu  Cu87  1  0.50212833  0.83243015  0.24677259  1
  Cu  Cu88  1  0.66361674  -0.00487618  0.49174798  1
  Cu  Cu89  1  0.83987564  0.16164553  0.76921473  1
  Cu  Cu90  1  -0.00402945  0.66057389  0.49500567  1
  Cu  Cu91  1  0.49218947  0.82869903  0.75172548  1
  Cu  Cu92  1  0.83692363  0.51430334  0.75716151  1
  Cu  Cu93  1  0.84836097  0.83532588  0.75326711  1
  Cu  Cu94  1  0.16078803  0.15928432  0.75712451  1
  Cu  Cu95  1  -0.00097222  0.33895382  0.00195571  1
  Cu  Cu96  1  0.15732735  0.83758381  0.23957425  1
  Cu  Cu97  1  0.33146056  0.32510331  -0.00368853  1
  Cu  Cu98  1  0.48895911  0.16946976  0.75329677  1
  Cu  Cu99  1  0.33819464  0.67319337  0.50059492  1
  Cu  Cu100  1  0.32926602  0.32406145  0.50561963  1
  Cu  Cu101  1  0.16203545  0.83613024  0.75170480  1
  Cu  Cu102  1  0.66676442  0.00084063  0.00819042  1
  Cu  Cu103  1  0.83646341  0.83049417  0.24431011  1
  Cu  Cu104  1  0.67870944  0.34988374  0.49438701  1
  Cu  Cu105  1  0.16708911  0.50621194  0.75809765  1
  Cu  Cu106  1  0.49020751  0.50259215  0.75806179  1
  Cu  Cu107  1  -0.00666271  -0.00544391  0.49942000  1
  Cu  Cu108  1  0.16729321  0.50171524  0.24624771  1
  Cu  Cu109  1  0.82602031  0.50786878  0.24119951  1
  Cu  Cu110  1  0.50278767  0.50768875  0.24229240  1
  Cu  Cu111  1  0.50183812  0.16961677  0.24114053  1
  Cu  Cu112  1  0.67154393  0.67638016  0.49088549  1
  Cu  Cu113  1  0.16526209  0.15967878  0.24144153  1
  Cu  Cu114  1  0.84177443  0.15373336  0.24374506  1
  Se  Se115  1  0.09276889  0.10215707  0.04839328  1
  Se  Se116  1  0.07605530  0.07638491  0.55346527  1
  Se  Se117  1  0.07785684  0.41987485  0.06346898  1
  Se  Se118  1  0.07210460  0.40623973  0.56077271  1
  Se  Se119  1  0.10130919  0.76411948  0.04963700  1
  Se  Se120  1  0.08057734  0.73774521  0.55622463  1
  Se  Se121  1  0.41506435  0.08220925  0.04692415  1
  Se  Se122  1  0.41339874  0.08292689  0.56915895  1
  Se  Se123  1  0.41145591  0.40875395  0.05131260  1
  Se  Se124  1  0.40851136  0.41261612  0.56064146  1
  Se  Se125  1  0.41312977  0.74600764  0.05990950  1
  Se  Se126  1  0.42148585  0.75615783  0.55289826  1
  Se  Se127  1  0.75732989  0.07930890  0.05760869  1
  Se  Se128  1  0.74092117  0.07265513  0.55863610  1
  Se  Se129  1  0.71924088  0.39254419  0.05993971  1
  Se  Se130  1  0.76299297  0.42660480  0.55071146  1
  Se  Se131  1  0.74496856  0.74648322  0.04641188  1
  Se  Se132  1  0.75409473  0.75453390  0.55094217  1
  Se  Se133  1  0.24729003  0.24563230  0.05018608  1
  Se  Se134  1  0.24343142  0.24843307  0.56119876  1
  Se  Se135  1  0.25601539  0.59301222  0.05928327  1
  Se  Se136  1  0.25712752  0.59118590  0.55915018  1
  Se  Se137  1  0.25501337  0.91707941  0.04585594  1
  Se  Se138  1  0.25179955  0.91924893  0.56497028  1
  Se  Se139  1  0.56211926  0.21786248  0.05441623  1
  Se  Se140  1  0.59977197  0.26549237  0.55564217  1
  Se  Se141  1  0.56042170  0.57205779  0.04575720  1
  Se  Se142  1  0.59776762  0.59877034  0.56086371  1
  Se  Se143  1  0.59108652  0.91661111  0.06815635  1
  Se  Se144  1  0.57970512  0.91493485  0.54752578  1
  Se  Se145  1  0.91903600  0.25502545  0.05688268  1
  Se  Se146  1  0.92237061  0.25414901  0.56598012  1
  Se  Se147  1  0.91817501  0.58224435  0.05085412  1
  Se  Se148  1  0.91677591  0.58031588  0.55450227  1
  Se  Se149  1  0.90939854  0.89871928  0.04294768  1
  Se  Se150  1  0.91323651  0.91171224  0.55485403  1
  Se  Se151  1  0.08380418  0.23548695  0.44551537  1
  Se  Se152  1  0.08633327  0.25637408  0.95294975  1
  Se  Se153  1  0.08245827  0.58809898  0.43482189  1
  Se  Se154  1  0.06936115  0.60155906  0.94580051  1
  Se  Se155  1  0.07249966  0.91788547  0.43500486  1
  Se  Se156  1  0.08427171  0.92323064  0.95167388  1
  Se  Se157  1  0.40867743  0.24873601  0.44164954  1
  Se  Se158  1  0.41437320  0.24462484  0.94000278  1
  Se  Se159  1  0.41368976  0.59128743  0.43713503  1
  Se  Se160  1  0.42943008  0.56675798  0.95697949  1
  Se  Se161  1  0.40139280  0.93344286  0.44917103  1
  Se  Se162  1  0.41348915  0.91458668  0.93573025  1
  Se  Se163  1  0.75230048  0.25772835  0.43982601  1
  Se  Se164  1  0.74436389  0.25557865  0.95839434  1
  Se  Se165  1  0.75318004  0.58451983  0.44525715  1
  Se  Se166  1  0.75291161  0.58072769  0.96335689  1
  Se  Se167  1  0.75139630  0.91396748  0.44146690  1
  Se  Se168  1  0.74207200  0.91876967  0.94858225  1
  Se  Se169  1  0.24984933  0.07541914  0.45743916  1
  Se  Se170  1  0.24746400  0.08544802  0.93930567  1
  Se  Se171  1  0.25410712  0.40743159  0.44195077  1
  Se  Se172  1  0.25209859  0.41281701  0.94047246  1
  Se  Se173  1  0.25320535  0.74407381  0.43846422  1
  Se  Se174  1  0.25734575  0.74424822  0.95351397  1
  Se  Se175  1  0.58986934  0.08230540  0.43230229  1
  Se  Se176  1  0.57932543  0.07682207  0.95205470  1
  Se  Se177  1  0.58641558  0.41830106  0.43685005  1
  Se  Se178  1  0.59877097  0.39550310  0.95080133  1
  Se  Se179  1  0.58112824  0.75460514  0.44077772  1
  Se  Se180  1  0.59446065  0.73607530  0.94380005  1
  Se  Se181  1  0.91754030  0.07330562  0.43394009  1
  Se  Se182  1  0.89693069  0.10362808  0.95299203  1
  Se  Se183  1  0.93093427  0.41426625  0.44354670  1
  Se  Se184  1  0.91305982  0.42327187  0.95261925  1
  Se  Se185  1  0.91637028  0.74904272  0.44349691  1
  Se  Se186  1  0.90733573  0.77511147  0.95469359  1
  Se  Se187  1  0.24517613  0.24105558  0.30338357  1
  Se  Se188  1  0.24850574  0.24892382  0.79882816  1
  Se  Se189  1  0.25284468  0.58565832  0.29706749  1
  Se  Se190  1  0.24903309  0.58972426  0.81214412  1
  Se  Se191  1  0.23748794  0.90688809  0.30922644  1
  Se  Se192  1  0.25039865  0.91450756  0.80396792  1
  Se  Se193  1  0.58520182  0.24912163  0.30088633  1
  Se  Se194  1  0.57658380  0.24001878  0.81529184  1
  Se  Se195  1  0.59063583  0.58947397  0.29361147  1
  Se  Se196  1  0.57821019  0.57158610  0.81969519  1
  Se  Se197  1  0.58320797  0.91837157  0.29987189  1
  Se  Se198  1  0.57643941  0.90905616  0.80865193  1
  Se  Se199  1  0.91949678  0.24299370  0.29678865  1
  Se  Se200  1  0.91909453  0.24532030  0.82537660  1
  Se  Se201  1  0.91116216  0.58529575  0.30026555  1
  Se  Se202  1  0.91481715  0.59868092  0.81263367  1
  Se  Se203  1  0.92021876  0.91731127  0.29529608  1
  Se  Se204  1  0.92331357  0.92161245  0.81074163  1
  Se  Se205  1  0.08693709  0.07605830  0.30005634  1
  Se  Se206  1  0.07531667  0.08077943  0.81174946  1
  Se  Se207  1  0.08714626  0.41637441  0.30078117  1
  Se  Se208  1  0.08695935  0.42548375  0.81768130  1
  Se  Se209  1  0.07846663  0.74988352  0.29481791  1
  Se  Se210  1  0.08172389  0.75267209  0.80853946  1
  Se  Se211  1  0.42176455  0.09390708  0.30614658  1
  Se  Se212  1  0.41123799  0.07581383  0.79997850  1
  Se  Se213  1  0.42708499  0.42692150  0.30553549  1
  Se  Se214  1  0.41014206  0.41599123  0.80982291  1
  Se  Se215  1  0.41565425  0.75408603  0.30209875  1
  Se  Se216  1  0.41563983  0.74264097  0.80720661  1
  Se  Se217  1  0.74999851  0.07687298  0.29356648  1
  Se  Se218  1  0.75557341  0.08169459  0.82485785  1
  Se  Se219  1  0.75666785  0.41993913  0.30724115  1
  Se  Se220  1  0.75758968  0.42906812  0.81469295  1
  Se  Se221  1  0.75092159  0.75075702  0.30099093  1
  Se  Se222  1  0.76800069  0.75408710  0.81367351  1
  Se  Se223  1  0.24187493  0.07786173  0.18086171  1
  Se  Se224  1  0.24571459  0.07939148  0.70139433  1
  Se  Se225  1  0.24428205  0.42373106  0.18312056  1
  Se  Se226  1  0.24675119  0.41920123  0.70492261  1
  Se  Se227  1  0.24787949  0.75212350  0.19696842  1
  Se  Se228  1  0.24705270  0.75112288  0.69921019  1
  Se  Se229  1  0.58688095  0.08040194  0.19663909  1
  Se  Se230  1  0.57637399  0.09561462  0.69130756  1
  Se  Se231  1  0.58233050  0.43361918  0.17978371  1
  Se  Se232  1  0.57359550  0.42682037  0.69410360  1
  Se  Se233  1  0.58528577  0.74699536  0.19519950  1
  Se  Se234  1  0.58287135  0.75685302  0.69330846  1
  Se  Se235  1  0.92702885  0.07430712  0.18966228  1
  Se  Se236  1  0.91148976  0.08038402  0.70510443  1
  Se  Se237  1  0.91255955  0.41764799  0.19794405  1
  Se  Se238  1  0.90881089  0.42652347  0.69607143  1
  Se  Se239  1  0.91883793  0.74657098  0.19104280  1
  Se  Se240  1  0.92213575  0.74942997  0.69420763  1
  Se  Se241  1  0.08097975  0.25158719  0.19746164  1
  Se  Se242  1  0.08340221  0.24155654  0.69344592  1
  Se  Se243  1  0.08318809  0.58720934  0.19578870  1
  Se  Se244  1  0.07942513  0.58408241  0.70402029  1
  Se  Se245  1  0.07677212  0.91848756  0.18344436  1
  Se  Se246  1  0.07899634  0.91917524  0.69752732  1
  Se  Se247  1  0.42491320  0.25145592  0.18173923  1
  Se  Se248  1  0.40928363  0.25825192  0.70230277  1
  Se  Se249  1  0.41268460  0.59075947  0.19591402  1
  Se  Se250  1  0.41509748  0.58871899  0.70015156  1
  Se  Se251  1  0.42153263  0.91268742  0.18671501  1
  Se  Se252  1  0.41360278  0.91558231  0.69844169  1
  Se  Se253  1  0.76415673  0.24037222  0.18500897  1
  Se  Se254  1  0.76277968  0.24385294  0.70626941  1
  Se  Se255  1  0.74700092  0.58424769  0.17958503  1
  Se  Se256  1  0.75255154  0.58418681  0.69346430  1
  Se  Se257  1  0.75507370  0.91786330  0.19196400  1
  Se  Se258  1  0.75427794  0.90669530  0.69631398  1
