# generated using pymatgen
data_In86Cu29Se144
_symmetry_space_group_name_H-M   'P 1'
_cell_length_a   17.57466080
_cell_length_b   17.57875071
_cell_length_c   23.43682263
_cell_angle_alpha   89.99718405
_cell_angle_beta   90.00417282
_cell_angle_gamma   89.98791089
_symmetry_Int_Tables_number   1
_chemical_formula_structural   In86Cu29Se144
_chemical_formula_sum   'In86 Cu29 Se144'
_cell_volume   7240.58541297
_cell_formula_units_Z   1
loop_
 _symmetry_equiv_pos_site_id
 _symmetry_equiv_pos_as_xyz
  1  'x, y, z'
loop_
 _atom_site_type_symbol
 _atom_site_label
 _atom_site_symmetry_multiplicity
 _atom_site_fract_x
 _atom_site_fract_y
 _atom_site_fract_z
 _atom_site_occupancy
  In  In0  1  0.01532059  0.17361083  0.12392181  1
  In  In1  1  0.01564957  0.16732979  0.62465678  1
  In  In2  1  0.00233476  0.50223591  0.12412028  1
  In  In3  1  -0.01406190  0.50417531  0.62726713  1
  In  In4  1  -0.00335735  0.81955780  0.12553832  1
  In  In5  1  0.00164705  0.83627932  0.62271824  1
  In  In6  1  0.33487644  0.16911329  0.12639991  1
  In  In7  1  0.34641856  0.16617515  0.62369866  1
  In  In8  1  0.32918208  0.50042570  0.11753743  1
  In  In9  1  0.33993402  0.49436036  0.63015703  1
  In  In10  1  0.34718693  0.83546993  0.11126985  1
  In  In11  1  0.33464962  0.82989035  0.63435350  1
  In  In12  1  0.65840319  0.17027004  0.12920474  1
  In  In13  1  0.65763219  0.18144647  0.61849902  1
  In  In14  1  0.66415055  0.49861606  0.12674980  1
  In  In15  1  0.66989322  0.50444647  0.61830496  1
  In  In16  1  0.65164532  0.84018452  0.13213719  1
  In  In17  1  0.65961408  0.81046350  0.62325030  1
  In  In18  1  0.17658453  -0.00533723  0.36670756  1
  In  In19  1  0.17976491  -0.00611934  0.88956218  1
  In  In20  1  0.17015855  0.33956828  0.36350321  1
  In  In21  1  0.17271275  0.33485817  0.87920668  1
  In  In22  1  0.16666432  0.67700389  0.36902470  1
  In  In23  1  0.18419854  0.65717240  0.88942840  1
  In  In24  1  0.50178161  0.00400657  0.36957282  1
  In  In25  1  0.50533879  0.00212893  0.89110235  1
  In  In26  1  0.49664806  0.33585654  0.36613822  1
  In  In27  1  0.48887815  0.34572389  0.88687714  1
  In  In28  1  0.50243018  0.63682915  0.37564896  1
  In  In29  1  0.49334295  0.66561734  0.87528744  1
  In  In30  1  0.81737151  0.00189738  0.37444328  1
  In  In31  1  0.83017787  -0.01455461  0.87741043  1
  In  In32  1  0.83784883  0.34344239  0.36747438  1
  In  In33  1  0.84737263  0.33880923  0.87581425  1
  In  In34  1  0.82860150  0.66332956  0.37311188  1
  In  In35  1  0.81627029  0.66480822  0.87386157  1
  In  In36  1  -0.01289984  0.17500736  0.37062411  1
  In  In37  1  0.00176224  0.18293712  0.87829405  1
  In  In38  1  -0.00968389  0.49245381  0.36925255  1
  In  In39  1  0.01400520  0.49165416  0.88395728  1
  In  In40  1  -0.00174049  0.81377695  0.36863184  1
  In  In41  1  0.00972076  0.83790581  0.87609980  1
  In  In42  1  0.34116537  0.17159317  0.36825509  1
  In  In43  1  0.33197570  0.17247704  0.88388633  1
  In  In44  1  0.36301729  0.49913261  0.37153931  1
  In  In45  1  0.33954681  0.49879532  0.87907458  1
  In  In46  1  0.32831506  0.83432933  0.37035851  1
  In  In47  1  0.34193869  0.82134360  0.88298253  1
  In  In48  1  0.65238253  0.15622609  0.36460901  1
  In  In49  1  0.65313845  0.16217017  0.88374258  1
  In  In50  1  0.66290374  0.50398120  0.36669386  1
  In  In51  1  0.64927934  0.51612685  0.89019831  1
  In  In52  1  0.66895172  0.83913303  0.36888329  1
  In  In53  1  0.66416179  0.82379225  0.87602485  1
  In  In54  1  0.17889237  0.01493511  0.11678627  1
  In  In55  1  0.17071785  -0.00854816  0.62870156  1
  In  In56  1  0.16892264  0.33727106  0.12480856  1
  In  In57  1  0.17006905  0.33295776  0.63770430  1
  In  In58  1  0.16859365  0.65973877  0.11100188  1
  In  In59  1  0.18185583  0.67222788  0.63684655  1
  In  In60  1  0.50077190  -0.00355396  0.12267313  1
  In  In61  1  0.48979776  0.01269633  0.61864858  1
  In  In62  1  0.50202214  0.33632488  0.12718163  1
  In  In63  1  0.49163886  0.32852940  0.61762894  1
  In  In64  1  0.49802245  0.67004384  0.12033556  1
  In  In65  1  0.50927262  0.66323399  0.63429694  1
  In  In66  1  0.82300006  -0.00757081  0.12918021  1
  In  In67  1  0.84413483  -0.00914708  0.61772381  1
  In  In68  1  0.82110525  0.34836876  0.13372616  1
  In  In69  1  0.82673821  0.34779860  0.62507135  1
  In  In70  1  0.84127200  0.65614768  0.13117133  1
  In  In71  1  0.82134462  0.65351858  0.61604325  1
  In  In72  1  0.33590344  -0.00189072  0.75272824  1
  In  In73  1  0.16497517  0.50038129  0.50557589  1
  In  In74  1  0.17246375  0.83002207  0.50813743  1
  In  In75  1  0.17128511  0.16758331  0.49193482  1
  In  In76  1  0.66572774  -0.00355924  0.75614487  1
  In  In77  1  0.00562085  0.66208587  0.75460180  1
  In  In78  1  0.00937164  0.00124475  0.74512571  1
  In  In79  1  0.66565057  0.34301742  0.75287382  1
  In  In80  1  -0.00092873  0.00237508  0.24828273  1
  In  In81  1  0.83130347  0.17195622  0.00761009  1
  In  In82  1  0.33563565  0.66322770  0.24378495  1
  In  In83  1  0.50037774  0.83077347  0.50150924  1
  In  In84  1  0.82755782  0.83024835  -0.00245598  1
  In  In85  1  0.82428776  0.17143821  0.49201409  1
  Cu  Cu86  1  0.00107320  0.66381270  0.00166818  1
  Cu  Cu87  1  0.49849792  0.50175588  0.75667051  1
  Cu  Cu88  1  -0.00928296  0.33727546  0.49883343  1
  Cu  Cu89  1  0.66625047  0.66138475  0.49603557  1
  Cu  Cu90  1  0.66577942  0.66718957  0.00462727  1
  Cu  Cu91  1  0.33314742  0.00393738  0.00341370  1
  Cu  Cu92  1  0.49651596  0.16596729  0.24511331  1
  Cu  Cu93  1  0.16917460  0.83540069  0.24325193  1
  Cu  Cu94  1  0.49621843  0.83121500  0.24708504  1
  Cu  Cu95  1  0.83008514  0.17296393  0.24994455  1
  Cu  Cu96  1  0.49535855  0.17403375  0.74964112  1
  Cu  Cu97  1  0.82562999  0.82772600  0.24813265  1
  Cu  Cu98  1  0.83301411  0.50524278  0.24902203  1
  Cu  Cu99  1  0.66679574  -0.00366002  0.49295777  1
  Cu  Cu100  1  0.17291645  0.49516399  0.76133501  1
  Cu  Cu101  1  0.16652303  0.50585233  0.24281759  1
  Cu  Cu102  1  0.17188933  0.17225338  0.24355627  1
  Cu  Cu103  1  0.00112887  0.00522216  0.00074835  1
  Cu  Cu104  1  0.65451450  0.34095653  0.49137705  1
  Cu  Cu105  1  0.00665257  0.34178926  0.00179003  1
  Cu  Cu106  1  0.00111694  -0.01534460  0.49586563  1
  Cu  Cu107  1  0.66762685  0.33592201  0.00891985  1
  Cu  Cu108  1  0.16769144  0.17243024  0.75965466  1
  Cu  Cu109  1  0.83153006  0.50045710  0.74922186  1
  Cu  Cu110  1  -0.00714081  0.66124237  0.49681049  1
  Cu  Cu111  1  0.83072505  0.82391342  0.74422546  1
  Cu  Cu112  1  0.33797453  0.33750546  0.49646216  1
  Cu  Cu113  1  0.33406013  0.33020544  0.00401875  1
  Cu  Cu114  1  0.83759090  0.17054961  0.75584848  1
  Se  Se115  1  0.08548670  0.09018085  0.05024747  1
  Se  Se116  1  0.08172293  0.06784509  0.55295991  1
  Se  Se117  1  0.09094347  0.42458803  0.05504846  1
  Se  Se118  1  0.07435466  0.40650950  0.56377912  1
  Se  Se119  1  0.08172298  0.75254271  0.05130850  1
  Se  Se120  1  0.07793850  0.73194557  0.56097644  1
  Se  Se121  1  0.41724932  0.08518930  0.05771807  1
  Se  Se122  1  0.41673020  0.09242664  0.54606120  1
  Se  Se123  1  0.41803582  0.41487480  0.05531163  1
  Se  Se124  1  0.41753593  0.42257439  0.55164615  1
  Se  Se125  1  0.39364338  0.72078387  0.04912091  1
  Se  Se126  1  0.41319382  0.74313397  0.56368140  1
  Se  Se127  1  0.74104003  0.07547251  0.05880830  1
  Se  Se128  1  0.74313640  0.07792116  0.55889110  1
  Se  Se129  1  0.75351389  0.42354305  0.05371649  1
  Se  Se130  1  0.74399589  0.41347296  0.54887530  1
  Se  Se131  1  0.74611075  0.74619203  0.06638034  1
  Se  Se132  1  0.74870593  0.74752014  0.54894826  1
  Se  Se133  1  0.24816333  0.24878757  0.05715270  1
  Se  Se134  1  0.25334319  0.26005994  0.55697656  1
  Se  Se135  1  0.27754127  0.60526283  0.04747038  1
  Se  Se136  1  0.25682292  0.59012003  0.56193634  1
  Se  Se137  1  0.24880101  0.91670921  0.05284892  1
  Se  Se138  1  0.26764801  0.92613948  0.55887243  1
  Se  Se139  1  0.58203401  0.24992844  0.05560064  1
  Se  Se140  1  0.57659671  0.25243792  0.54499862  1
  Se  Se141  1  0.58315598  0.58218448  0.05648807  1
  Se  Se142  1  0.58012287  0.58624276  0.55448580  1
  Se  Se143  1  0.56758087  0.89927623  0.05454573  1
  Se  Se144  1  0.59133008  0.92344704  0.56215148  1
  Se  Se145  1  0.92279458  0.26431697  0.06317015  1
  Se  Se146  1  0.91859818  0.24991089  0.55991173  1
  Se  Se147  1  0.91574018  0.58198109  0.05369576  1
  Se  Se148  1  0.91110973  0.57509369  0.54906896  1
  Se  Se149  1  0.92041710  0.92312795  0.05797074  1
  Se  Se150  1  0.91605893  0.90310921  0.54721951  1
  Se  Se151  1  0.07410628  0.26089507  0.43936200  1
  Se  Se152  1  0.08696860  0.25347146  0.95011580  1
  Se  Se153  1  0.08023949  0.58780158  0.43771716  1
  Se  Se154  1  0.08858629  0.58011816  0.95218785  1
  Se  Se155  1  0.08446407  0.91128894  0.43485185  1
  Se  Se156  1  0.08247823  0.91673513  0.95096252  1
  Se  Se157  1  0.41735543  0.25356101  0.44060328  1
  Se  Se158  1  0.42144475  0.24716337  0.95269136  1
  Se  Se159  1  0.40287131  0.59280596  0.44926037  1
  Se  Se160  1  0.42722393  0.57490418  0.94734910  1
  Se  Se161  1  0.41226657  0.91949512  0.43958362  1
  Se  Se162  1  0.41343207  0.91798068  0.94968100  1
  Se  Se163  1  0.73617017  0.25914446  0.43097144  1
  Se  Se164  1  0.74489628  0.26044178  0.94084686  1
  Se  Se165  1  0.74799806  0.57752119  0.44157950  1
  Se  Se166  1  0.75256723  0.58426344  0.95278290  1
  Se  Se167  1  0.75158425  0.91052182  0.44592147  1
  Se  Se168  1  0.73165258  0.92557267  0.94761928  1
  Se  Se169  1  0.26029972  0.07346279  0.43851548  1
  Se  Se170  1  0.24901258  0.09133309  0.95340137  1
  Se  Se171  1  0.25321273  0.41620554  0.43911419  1
  Se  Se172  1  0.25407901  0.41666829  0.94880132  1
  Se  Se173  1  0.25898170  0.74089090  0.44464271  1
  Se  Se174  1  0.23810788  0.76691320  0.94998394  1
  Se  Se175  1  0.58207429  0.08149495  0.44442070  1
  Se  Se176  1  0.58146955  0.08818653  0.95951348  1
  Se  Se177  1  0.57485749  0.42385394  0.43582286  1
  Se  Se178  1  0.58216588  0.41696698  0.95418256  1
  Se  Se179  1  0.58559895  0.74253332  0.43623741  1
  Se  Se180  1  0.58287565  0.74524622  0.94617650  1
  Se  Se181  1  0.92323831  0.07427392  0.44134763  1
  Se  Se182  1  0.91705787  0.07977950  0.93954882  1
  Se  Se183  1  0.90959911  0.42086110  0.44602821  1
  Se  Se184  1  0.91690288  0.42132786  0.95081931  1
  Se  Se185  1  0.91347520  0.74726470  0.44327467  1
  Se  Se186  1  0.92204584  0.74172018  0.93746843  1
  Se  Se187  1  0.25389223  0.25235718  0.30105482  1
  Se  Se188  1  0.25665286  0.25208812  0.80916391  1
  Se  Se189  1  0.24739733  0.57600840  0.31059816  1
  Se  Se190  1  0.25494568  0.58255279  0.80989767  1
  Se  Se191  1  0.25574435  0.91591251  0.29488614  1
  Se  Se192  1  0.24669550  0.91077050  0.81230330  1
  Se  Se193  1  0.58055552  0.24954608  0.29872463  1
  Se  Se194  1  0.57679579  0.25060734  0.81150645  1
  Se  Se195  1  0.58110769  0.58215720  0.29455278  1
  Se  Se196  1  0.58450284  0.58534245  0.80628467  1
  Se  Se197  1  0.57984783  0.91601835  0.30164847  1
  Se  Se198  1  0.57067496  0.91203057  0.81289461  1
  Se  Se199  1  0.91756855  0.25741965  0.29706588  1
  Se  Se200  1  0.92230231  0.25619099  0.80254395  1
  Se  Se201  1  0.91828146  0.58716585  0.30332049  1
  Se  Se202  1  0.91255184  0.57518179  0.81405893  1
  Se  Se203  1  0.90843304  0.91126845  0.30773771  1
  Se  Se204  1  0.91207761  0.90719518  0.80099907  1
  Se  Se205  1  0.09034183  0.09546540  0.30831761  1
  Se  Se206  1  0.09078961  0.08521356  0.81593734  1
  Se  Se207  1  0.08361971  0.42304400  0.29986761  1
  Se  Se208  1  0.08419503  0.41150013  0.80759731  1
  Se  Se209  1  0.08588200  0.74931464  0.29378139  1
  Se  Se210  1  0.09497186  0.74822489  0.81434148  1
  Se  Se211  1  0.41459818  0.08040605  0.29969958  1
  Se  Se212  1  0.42531301  0.08881014  0.81316911  1
  Se  Se213  1  0.40300854  0.40443475  0.29606660  1
  Se  Se214  1  0.41650711  0.41341345  0.80538627  1
  Se  Se215  1  0.42353547  0.74906931  0.31123741  1
  Se  Se216  1  0.41330177  0.74856973  0.80480822  1
  Se  Se217  1  0.74906947  0.08296839  0.29897308  1
  Se  Se218  1  0.75768051  0.09200713  0.81427173  1
  Se  Se219  1  0.74940948  0.41920833  0.30002506  1
  Se  Se220  1  0.75142688  0.42951733  0.81713426  1
  Se  Se221  1  0.74397190  0.74535141  0.30369963  1
  Se  Se222  1  0.74488626  0.74898720  0.80073829  1
  Se  Se223  1  0.25362533  0.08233694  0.19699821  1
  Se  Se224  1  0.24346621  0.09342829  0.69355592  1
  Se  Se225  1  0.25194498  0.42216712  0.19268530  1
  Se  Se226  1  0.25527558  0.41610259  0.70146677  1
  Se  Se227  1  0.24847855  0.75490795  0.18285458  1
  Se  Se228  1  0.25727373  0.75312746  0.70716715  1
  Se  Se229  1  0.58097111  0.07907087  0.19522398  1
  Se  Se230  1  0.58029521  0.09363604  0.69316226  1
  Se  Se231  1  0.60079995  0.40029163  0.19448853  1
  Se  Se232  1  0.57406037  0.42366873  0.68876634  1
  Se  Se233  1  0.57805788  0.74425817  0.19634883  1
  Se  Se234  1  0.58352116  0.75179722  0.70382283  1
  Se  Se235  1  0.90990011  0.09371134  0.18692641  1
  Se  Se236  1  0.91021834  0.09135955  0.68952359  1
  Se  Se237  1  0.91915072  0.42231135  0.19591003  1
  Se  Se238  1  0.91501272  0.41483999  0.69864732  1
  Se  Se239  1  0.91630400  0.74774263  0.20008472  1
  Se  Se240  1  0.91486022  0.74551687  0.68700631  1
  Se  Se241  1  0.08433954  0.25767111  0.19780050  1
  Se  Se242  1  0.08151920  0.24865117  0.70140787  1
  Se  Se243  1  0.08748196  0.59133840  0.18879497  1
  Se  Se244  1  0.09456958  0.56920528  0.69304609  1
  Se  Se245  1  0.08707065  0.91695876  0.18440353  1
  Se  Se246  1  0.09831845  0.89702705  0.69811073  1
  Se  Se247  1  0.41479666  0.25399286  0.19526562  1
  Se  Se248  1  0.41301797  0.25606498  0.69568799  1
  Se  Se249  1  0.42631861  0.57048988  0.18974014  1
  Se  Se250  1  0.41707030  0.58279560  0.69843633  1
  Se  Se251  1  0.41423847  0.91282599  0.19152930  1
  Se  Se252  1  0.43393030  0.91595039  0.69287078  1
  Se  Se253  1  0.74505021  0.25237061  0.19584340  1
  Se  Se254  1  0.75394125  0.24485976  0.69343775  1
  Se  Se255  1  0.74554569  0.58534579  0.19643406  1
  Se  Se256  1  0.74696388  0.58108130  0.69500249  1
  Se  Se257  1  0.74255549  0.91639413  0.20087140  1
  Se  Se258  1  0.75423927  0.91236060  0.68743915  1
