# generated using pymatgen
data_In86Cu29Se144
_symmetry_space_group_name_H-M   'P 1'
_cell_length_a   17.58137842
_cell_length_b   17.58689638
_cell_length_c   23.44037956
_cell_angle_alpha   90.02223755
_cell_angle_beta   90.00243989
_cell_angle_gamma   89.99717596
_symmetry_Int_Tables_number   1
_chemical_formula_structural   In86Cu29Se144
_chemical_formula_sum   'In86 Cu29 Se144'
_cell_volume   7247.80887799
_cell_formula_units_Z   1
loop_
 _symmetry_equiv_pos_site_id
 _symmetry_equiv_pos_as_xyz
  1  'x, y, z'
loop_
 _atom_site_type_symbol
 _atom_site_label
 _atom_site_symmetry_multiplicity
 _atom_site_fract_x
 _atom_site_fract_y
 _atom_site_fract_z
 _atom_site_occupancy
  In  In0  1  0.00171034  0.16641376  0.12804812  1
  In  In1  1  -0.00279729  0.16259629  0.61675463  1
  In  In2  1  -0.00757537  0.49035250  0.13415434  1
  In  In3  1  -0.00381064  0.49372963  0.61049881  1
  In  In4  1  0.01485953  0.83292030  0.13244342  1
  In  In5  1  -0.00309255  0.84412082  0.61991523  1
  In  In6  1  0.34439691  0.17739552  0.11983037  1
  In  In7  1  0.32734773  0.15476993  0.61570432  1
  In  In8  1  0.35625264  0.47616280  0.15802646  1
  In  In9  1  0.34487141  0.51160488  0.61541642  1
  In  In10  1  0.34268007  0.82309844  0.12817401  1
  In  In11  1  0.33918357  0.81757347  0.63270938  1
  In  In12  1  0.66327619  0.16920216  0.11339864  1
  In  In13  1  0.66689684  0.17121487  0.61918574  1
  In  In14  1  0.67273272  0.50977522  0.13004979  1
  In  In15  1  0.66458928  0.50010120  0.62785501  1
  In  In16  1  0.65007331  0.83199671  0.12333411  1
  In  In17  1  0.64801704  0.82096060  0.61105241  1
  In  In18  1  0.16934939  0.02951309  0.38208476  1
  In  In19  1  0.18526170  0.00107332  0.87350187  1
  In  In20  1  0.16993796  0.33403568  0.36749633  1
  In  In21  1  0.15529439  0.32957177  0.87963460  1
  In  In22  1  0.17452248  0.64220667  0.37264660  1
  In  In23  1  0.17360184  0.66245446  0.86922916  1
  In  In24  1  0.49382307  0.00084062  0.39876850  1
  In  In25  1  0.48740685  0.00325950  0.87547483  1
  In  In26  1  0.48870059  0.34536959  0.37678198  1
  In  In27  1  0.51377566  0.32993518  0.88331578  1
  In  In28  1  0.50069982  0.66379482  0.36975396  1
  In  In29  1  0.50204924  0.66717617  0.87543335  1
  In  In30  1  0.83671234  -0.00546464  0.38355376  1
  In  In31  1  0.84387758  0.00716906  0.87218608  1
  In  In32  1  0.84041591  0.32486529  0.37996768  1
  In  In33  1  0.79714231  0.33085658  0.87491348  1
  In  In34  1  0.81887092  0.67266030  0.38220015  1
  In  In35  1  0.82756982  0.66572184  0.86706673  1
  In  In36  1  0.00261693  0.17129440  0.37202971  1
  In  In37  1  -0.00636336  0.16865578  0.88507557  1
  In  In38  1  0.01423127  0.48350776  0.38114016  1
  In  In39  1  0.00008720  0.49860780  0.87608904  1
  In  In40  1  -0.01518612  0.83419298  0.37517918  1
  In  In41  1  -0.00266168  0.83496953  0.87537313  1
  In  In42  1  0.32547851  0.17101405  0.38692462  1
  In  In43  1  0.34584713  0.16340182  0.88005050  1
  In  In44  1  0.33747255  0.49738280  0.36465325  1
  In  In45  1  0.33924643  0.51536122  0.87206061  1
  In  In46  1  0.35175812  0.83621535  0.38146587  1
  In  In47  1  0.34027263  0.84665206  0.86381136  1
  In  In48  1  0.66316799  0.16279748  0.39055173  1
  In  In49  1  0.65595465  0.17593076  0.88246012  1
  In  In50  1  0.64755336  0.51588265  0.38124128  1
  In  In51  1  0.65215914  0.48244177  0.85662184  1
  In  In52  1  0.67136968  0.83015235  0.38518905  1
  In  In53  1  0.66445780  0.81487168  0.86852676  1
  In  In54  1  0.15405869  -0.00012585  0.13275412  1
  In  In55  1  0.16471241  0.00673648  0.62471745  1
  In  In56  1  0.17972487  0.32585575  0.13684178  1
  In  In57  1  0.16294468  0.32881202  0.61354174  1
  In  In58  1  0.18563568  0.66888984  0.13384442  1
  In  In59  1  0.18550421  0.66784074  0.62123207  1
  In  In60  1  0.50451104  0.00315303  0.11702012  1
  In  In61  1  0.48553625  -0.01673933  0.60196406  1
  In  In62  1  0.49946867  0.32889034  0.12269655  1
  In  In63  1  0.50453934  0.34392486  0.61901101  1
  In  In64  1  0.49772047  0.66231120  0.12794515  1
  In  In65  1  0.49961051  0.66414840  0.62580012  1
  In  In66  1  0.83143184  0.01109232  0.12839698  1
  In  In67  1  0.81893180  -0.00251621  0.60368819  1
  In  In68  1  0.84118442  0.33605899  0.12959097  1
  In  In69  1  0.82325729  0.32702330  0.62020841  1
  In  In70  1  0.83031780  0.65028187  0.12976510  1
  In  In71  1  0.81201850  0.64763028  0.61223047  1
  In  In72  1  -0.00763207  0.33138654  0.74215644  1
  In  In73  1  0.66477537  0.33686282  0.25289694  1
  In  In74  1  0.82416940  0.48993452  -0.00221854  1
  In  In75  1  0.17750376  0.49156280  0.01532994  1
  In  In76  1  0.00077635  0.00324870  0.74010369  1
  In  In77  1  0.66302747  0.00177911  0.73965901  1
  In  In78  1  0.00300294  0.66922993  0.74935612  1
  In  In79  1  0.33530051  0.33384817  0.74573789  1
  In  In80  1  -0.00407391  0.66701245  0.25602820  1
  In  In81  1  0.82740026  0.83966739  -0.00333607  1
  In  In82  1  0.66706565  -0.00102579  0.26071205  1
  In  In83  1  0.16838222  0.83216191  0.50057161  1
  In  In84  1  0.33282029  0.00223384  0.25974322  1
  In  In85  1  0.17675642  0.83841111  -0.00364011  1
  Cu  Cu86  1  0.82967431  0.50052314  0.25858288  1
  Cu  Cu87  1  0.16433856  0.84199091  0.25833402  1
  Cu  Cu88  1  -0.00013746  0.00807231  0.00675832  1
  Cu  Cu89  1  0.34923848  0.66773469  0.00019648  1
  Cu  Cu90  1  0.00197331  0.00595041  0.49777368  1
  Cu  Cu91  1  0.17091637  0.50376853  0.74298414  1
  Cu  Cu92  1  0.16654131  0.16918918  0.25199715  1
  Cu  Cu93  1  0.33474514  0.33984676  0.00602224  1
  Cu  Cu94  1  0.82822709  0.83481749  0.25828606  1
  Cu  Cu95  1  0.00702572  0.33320870  0.49320205  1
  Cu  Cu96  1  0.50023697  0.16585321  0.75035608  1
  Cu  Cu97  1  -0.00582460  0.32094161  0.00346974  1
  Cu  Cu98  1  0.17320263  0.15995630  0.75093068  1
  Cu  Cu99  1  -0.00535001  0.66574617  0.49284645  1
  Cu  Cu100  1  0.50020591  0.83148060  0.74454939  1
  Cu  Cu101  1  0.00694047  0.66391956  0.00069215  1
  Cu  Cu102  1  0.49935412  0.50399774  0.74571910  1
  Cu  Cu103  1  0.66603233  0.34049256  0.49868322  1
  Cu  Cu104  1  0.65911518  0.00181626  -0.00528827  1
  Cu  Cu105  1  0.33359267  0.00212364  -0.00120678  1
  Cu  Cu106  1  0.82798452  0.82430935  0.73995765  1
  Cu  Cu107  1  0.84241244  0.16923963  0.25153024  1
  Cu  Cu108  1  0.34153044  0.66121466  0.49741404  1
  Cu  Cu109  1  0.65844857  0.66148986  0.50017050  1
  Cu  Cu110  1  0.65950894  0.66432384  0.00074664  1
  Cu  Cu111  1  0.82441039  0.17356315  0.74653604  1
  Cu  Cu112  1  0.50273762  0.82910049  0.25294029  1
  Cu  Cu113  1  0.49783103  0.16968331  0.25036635  1
  Cu  Cu114  1  0.33130187  0.33326473  0.49639110  1
  Se  Se115  1  0.08870707  0.08601867  0.05812813  1
  Se  Se116  1  0.08844449  0.08614236  0.55055008  1
  Se  Se117  1  0.07326318  0.40444150  0.06308444  1
  Se  Se118  1  0.08985242  0.41927595  0.54575315  1
  Se  Se119  1  0.08847472  0.74282404  0.05851916  1
  Se  Se120  1  0.07554295  0.74024009  0.55841853  1
  Se  Se121  1  0.41780331  0.08564896  0.05242872  1
  Se  Se122  1  0.42575172  0.09516674  0.54752596  1
  Se  Se123  1  0.41208319  0.42261699  0.06409149  1
  Se  Se124  1  0.41544625  0.41733574  0.54919274  1
  Se  Se125  1  0.42736835  0.75436864  0.05467235  1
  Se  Se126  1  0.41778961  0.74702555  0.55470120  1
  Se  Se127  1  0.74561259  0.07517862  0.05324138  1
  Se  Se128  1  0.77132768  0.11512258  0.55202660  1
  Se  Se129  1  0.73841470  0.40408480  0.06306078  1
  Se  Se130  1  0.74831281  0.42125678  0.55542564  1
  Se  Se131  1  0.74820793  0.74075473  0.05940997  1
  Se  Se132  1  0.74668476  0.74881366  0.54801159  1
  Se  Se133  1  0.24971168  0.25426923  0.05531273  1
  Se  Se134  1  0.24997361  0.24689121  0.54952370  1
  Se  Se135  1  0.26779004  0.59086309  0.06171487  1
  Se  Se136  1  0.25013095  0.58102199  0.54646214  1
  Se  Se137  1  0.25847431  0.92514079  0.06593309  1
  Se  Se138  1  0.25505847  0.91416221  0.56574494  1
  Se  Se139  1  0.57247542  0.24511982  0.05050430  1
  Se  Se140  1  0.58311467  0.25577943  0.55199213  1
  Se  Se141  1  0.58393648  0.58072793  0.05924658  1
  Se  Se142  1  0.57827317  0.57788676  0.55678092  1
  Se  Se143  1  0.58099399  0.91457339  0.04846269  1
  Se  Se144  1  0.61077628  0.94057780  0.55352538  1
  Se  Se145  1  0.90997744  0.24402522  0.06036151  1
  Se  Se146  1  0.92360986  0.25891570  0.55489650  1
  Se  Se147  1  0.92415742  0.58155961  0.05582730  1
  Se  Se148  1  0.91235057  0.58132344  0.54713352  1
  Se  Se149  1  0.92545242  0.91635099  0.06220927  1
  Se  Se150  1  0.91778336  0.91801281  0.54593711  1
  Se  Se151  1  0.09064236  0.25001242  0.44013191  1
  Se  Se152  1  0.08568897  0.24397779  0.95204417  1
  Se  Se153  1  0.08400210  0.58182985  0.44706056  1
  Se  Se154  1  0.08920163  0.58161750  0.94526665  1
  Se  Se155  1  0.08030699  0.92218672  0.43747845  1
  Se  Se156  1  0.07615432  0.92810589  0.94244270  1
  Se  Se157  1  0.42089429  0.25197524  0.44659459  1
  Se  Se158  1  0.41499426  0.25858965  0.94657541  1
  Se  Se159  1  0.41811180  0.57864607  0.43809571  1
  Se  Se160  1  0.42608951  0.57868885  0.94691286  1
  Se  Se161  1  0.41885516  0.90679222  0.46220472  1
  Se  Se162  1  0.41322440  0.91392583  0.94598005  1
  Se  Se163  1  0.74991376  0.25327890  0.44939310  1
  Se  Se164  1  0.75825794  0.23434199  0.94927362  1
  Se  Se165  1  0.74663850  0.57939546  0.44949268  1
  Se  Se166  1  0.74302351  0.58872431  0.93966822  1
  Se  Se167  1  0.74102400  0.92717179  0.44908022  1
  Se  Se168  1  0.73919713  0.92504132  0.93109889  1
  Se  Se169  1  0.26956317  0.06826037  0.45461532  1
  Se  Se170  1  0.25179817  0.08776374  0.94673043  1
  Se  Se171  1  0.25437754  0.41645228  0.43661235  1
  Se  Se172  1  0.25739042  0.41376447  0.93754449  1
  Se  Se173  1  0.25547165  0.74013549  0.43861211  1
  Se  Se174  1  0.26243476  0.74201303  0.93971228  1
  Se  Se175  1  0.59123775  0.07481801  0.45908626  1
  Se  Se176  1  0.57311467  0.08402279  0.94322861  1
  Se  Se177  1  0.57725063  0.41962842  0.44682898  1
  Se  Se178  1  0.59417804  0.42141590  0.94512586  1
  Se  Se179  1  0.57834189  0.74612117  0.44467170  1
  Se  Se180  1  0.58238323  0.75253341  0.94684222  1
  Se  Se181  1  0.92009781  0.08912644  0.44275705  1
  Se  Se182  1  0.91064448  0.08327342  0.95205383  1
  Se  Se183  1  0.91605502  0.41673066  0.44724277  1
  Se  Se184  1  0.92069740  0.40192171  0.93844588  1
  Se  Se185  1  0.90951642  0.75364740  0.44779847  1
  Se  Se186  1  0.92119573  0.73958557  0.94325646  1
  Se  Se187  1  0.25762950  0.24409602  0.30517864  1
  Se  Se188  1  0.24451578  0.24756073  0.81045700  1
  Se  Se189  1  0.25748812  0.58418261  0.29491818  1
  Se  Se190  1  0.25402673  0.58457387  0.79738316  1
  Se  Se191  1  0.24359543  0.91545773  0.32269859  1
  Se  Se192  1  0.24598274  0.91728259  0.79809845  1
  Se  Se193  1  0.58056384  0.24247383  0.31402992  1
  Se  Se194  1  0.58144135  0.24958075  0.80412247  1
  Se  Se195  1  0.58384404  0.58514020  0.29870371  1
  Se  Se196  1  0.58183186  0.58816417  0.80104065  1
  Se  Se197  1  0.57094059  0.91425092  0.31761877  1
  Se  Se198  1  0.57900764  0.91300750  0.80714536  1
  Se  Se199  1  0.92200846  0.25701711  0.30249006  1
  Se  Se200  1  0.90773194  0.24582907  0.81017067  1
  Se  Se201  1  0.91091817  0.57955436  0.31981350  1
  Se  Se202  1  0.91340361  0.57223867  0.80405123  1
  Se  Se203  1  0.91285651  0.92218800  0.30401357  1
  Se  Se204  1  0.90736478  0.90632958  0.79971760  1
  Se  Se205  1  0.08359520  0.08372057  0.30278694  1
  Se  Se206  1  0.08260341  0.08965504  0.81085356  1
  Se  Se207  1  0.08581064  0.41795063  0.30009295  1
  Se  Se208  1  0.09086147  0.42285082  0.80200507  1
  Se  Se209  1  0.08965386  0.75417079  0.31680014  1
  Se  Se210  1  0.09242662  0.76235333  0.80866909  1
  Se  Se211  1  0.42814410  0.08800314  0.31696971  1
  Se  Se212  1  0.41284890  0.08396784  0.80067388  1
  Se  Se213  1  0.41944736  0.41342710  0.29528480  1
  Se  Se214  1  0.42377657  0.42036927  0.80913359  1
  Se  Se215  1  0.41335849  0.75147359  0.30461900  1
  Se  Se216  1  0.42064063  0.75084250  0.80480695  1
  Se  Se217  1  0.75768263  0.09534647  0.31322484  1
  Se  Se218  1  0.75028535  0.08762110  0.80722710  1
  Se  Se219  1  0.74996588  0.42117471  0.31948492  1
  Se  Se220  1  0.76429977  0.42747510  0.79906818  1
  Se  Se221  1  0.74258281  0.75155583  0.30686796  1
  Se  Se222  1  0.74661882  0.74223892  0.79455313  1
  Se  Se223  1  0.25042891  0.08926160  0.19147031  1
  Se  Se224  1  0.25416326  0.07972340  0.69511470  1
  Se  Se225  1  0.23097033  0.43069721  0.20235580  1
  Se  Se226  1  0.24567210  0.41997737  0.68241905  1
  Se  Se227  1  0.24953432  0.76455131  0.20267305  1
  Se  Se228  1  0.24827748  0.74476285  0.70042902  1
  Se  Se229  1  0.58146815  0.08876245  0.19395738  1
  Se  Se230  1  0.56959612  0.08701290  0.68169596  1
  Se  Se231  1  0.57723718  0.42469449  0.19177320  1
  Se  Se232  1  0.58134662  0.41475001  0.69744507  1
  Se  Se233  1  0.58396629  0.74683992  0.19719948  1
  Se  Se234  1  0.58502847  0.74788815  0.69411729  1
  Se  Se235  1  0.92029510  0.08081449  0.19832293  1
  Se  Se236  1  0.90059347  0.08872931  0.68678462  1
  Se  Se237  1  0.91166507  0.41463892  0.20700193  1
  Se  Se238  1  0.90725464  0.42585119  0.68610509  1
  Se  Se239  1  0.90636300  0.75708698  0.19141045  1
  Se  Se240  1  0.91391747  0.74951902  0.68198868  1
  Se  Se241  1  0.08160909  0.25035333  0.19802731  1
  Se  Se242  1  0.09094672  0.23845537  0.69115797  1
  Se  Se243  1  0.08423710  0.58363815  0.19064237  1
  Se  Se244  1  0.08489861  0.57756083  0.68370691  1
  Se  Se245  1  0.07713872  0.92129221  0.20719367  1
  Se  Se246  1  0.09379680  0.90527274  0.69274006  1
  Se  Se247  1  0.41644957  0.25357461  0.19779146  1
  Se  Se248  1  0.42124412  0.24332670  0.68509096  1
  Se  Se249  1  0.39689073  0.60597537  0.19769688  1
  Se  Se250  1  0.41197796  0.58613912  0.69640238  1
  Se  Se251  1  0.42686450  0.91881180  0.19510337  1
  Se  Se252  1  0.42255892  0.91713577  0.68897322  1
  Se  Se253  1  0.75128151  0.24002233  0.19273092  1
  Se  Se254  1  0.73967159  0.25534755  0.69521440  1
  Se  Se255  1  0.74830760  0.58635686  0.20696579  1
  Se  Se256  1  0.74442233  0.58683784  0.69648416  1
  Se  Se257  1  0.75012377  0.91022533  0.19123418  1
  Se  Se258  1  0.75226827  0.90905979  0.68174107  1
