# generated using pymatgen
data_In86Cu29Se144
_symmetry_space_group_name_H-M   'P 1'
_cell_length_a   17.55731961
_cell_length_b   17.55882910
_cell_length_c   23.41609833
_cell_angle_alpha   90.01766601
_cell_angle_beta   90.01698366
_cell_angle_gamma   90.00434765
_symmetry_Int_Tables_number   1
_chemical_formula_structural   In86Cu29Se144
_chemical_formula_sum   'In86 Cu29 Se144'
_cell_volume   7218.85401240
_cell_formula_units_Z   1
loop_
 _symmetry_equiv_pos_site_id
 _symmetry_equiv_pos_as_xyz
  1  'x, y, z'
loop_
 _atom_site_type_symbol
 _atom_site_label
 _atom_site_symmetry_multiplicity
 _atom_site_fract_x
 _atom_site_fract_y
 _atom_site_fract_z
 _atom_site_occupancy
  In  In0  1  0.00909724  0.18583231  0.11053146  1
  In  In1  1  -0.00775414  0.17108000  0.63311442  1
  In  In2  1  -0.00727645  0.51181402  0.13014425  1
  In  In3  1  -0.00176685  0.48828119  0.61292150  1
  In  In4  1  -0.01506723  0.80420492  0.10300214  1
  In  In5  1  0.00709992  0.83820278  0.62025081  1
  In  In6  1  0.32139236  0.18489633  0.10775033  1
  In  In7  1  0.32728230  0.17008399  0.63815854  1
  In  In8  1  0.34605684  0.49249573  0.12135181  1
  In  In9  1  0.31667272  0.50496122  0.62803261  1
  In  In10  1  0.31143217  0.81950320  0.10788873  1
  In  In11  1  0.33545195  0.82920363  0.62336677  1
  In  In12  1  0.68988194  0.17530973  0.11519929  1
  In  In13  1  0.67536473  0.15955589  0.62489676  1
  In  In14  1  0.67208644  0.49590415  0.12607765  1
  In  In15  1  0.68144996  0.48638063  0.62363934  1
  In  In16  1  0.65889748  0.81940251  0.12092367  1
  In  In17  1  0.66131553  0.82883282  0.61839972  1
  In  In18  1  0.14900010  -0.00712808  0.37662211  1
  In  In19  1  0.16599196  0.00419732  0.87540736  1
  In  In20  1  0.14772882  0.35695245  0.38003578  1
  In  In21  1  0.15256148  0.32214280  0.87332961  1
  In  In22  1  0.16380767  0.66266923  0.36239705  1
  In  In23  1  0.17759021  0.66780078  0.88165351  1
  In  In24  1  0.48371544  -0.00475002  0.37520142  1
  In  In25  1  0.48051763  0.00451427  0.88023483  1
  In  In26  1  0.51073083  0.32473734  0.37020006  1
  In  In27  1  0.49635421  0.34782724  0.88374488  1
  In  In28  1  0.50809762  0.67110938  0.36820820  1
  In  In29  1  0.50165337  0.66253557  0.88647109  1
  In  In30  1  0.83244016  -0.00391875  0.37987186  1
  In  In31  1  0.83926207  -0.00446252  0.87801021  1
  In  In32  1  0.83748771  0.34083575  0.36962771  1
  In  In33  1  0.86593338  0.31341674  0.91545166  1
  In  In34  1  0.83559930  0.66312541  0.37261339  1
  In  In35  1  0.84471982  0.66636603  0.89316710  1
  In  In36  1  -0.01152095  0.17418932  0.37666189  1
  In  In37  1  0.00562768  0.16760557  0.87765983  1
  In  In38  1  -0.00045964  0.49681883  0.36664935  1
  In  In39  1  0.00516209  0.48911303  0.88525245  1
  In  In40  1  0.00863301  0.82392769  0.38312990  1
  In  In41  1  -0.01252911  0.84211732  0.88461006  1
  In  In42  1  0.33955010  0.17009265  0.37345039  1
  In  In43  1  0.31567500  0.15524793  0.87099799  1
  In  In44  1  0.30946488  0.50665133  0.36955961  1
  In  In45  1  0.34061031  0.50239771  0.88032133  1
  In  In46  1  0.33940397  0.82719490  0.37953039  1
  In  In47  1  0.31392113  0.86394179  0.90080560  1
  In  In48  1  0.67482168  0.18266088  0.36504035  1
  In  In49  1  0.67957571  0.18252679  0.88263686  1
  In  In50  1  0.68115736  0.51192652  0.36329892  1
  In  In51  1  0.68065611  0.46940875  0.90099814  1
  In  In52  1  0.67466297  0.82012718  0.37933591  1
  In  In53  1  0.66940426  0.82761114  0.88425815  1
  In  In54  1  0.16482973  -0.00251352  0.11244967  1
  In  In55  1  0.17128303  -0.00822299  0.63273989  1
  In  In56  1  0.16650137  0.32704632  0.11749079  1
  In  In57  1  0.15780731  0.33713531  0.63260040  1
  In  In58  1  0.15760676  0.67364631  0.14108471  1
  In  In59  1  0.16087637  0.66091706  0.61388862  1
  In  In60  1  0.50198365  -0.00855405  0.11968785  1
  In  In61  1  0.49490397  -0.01239067  0.62800697  1
  In  In62  1  0.49933620  0.36099537  0.11011038  1
  In  In63  1  0.50189953  0.31886034  0.62784893  1
  In  In64  1  0.50208427  0.66308615  0.13326427  1
  In  In65  1  0.48491373  0.67458430  0.62180366  1
  In  In66  1  0.84071115  0.00201842  0.11861240  1
  In  In67  1  0.84353678  0.01301297  0.62098929  1
  In  In68  1  0.83417516  0.33997668  0.12090748  1
  In  In69  1  0.85482034  0.33984153  0.60774971  1
  In  In70  1  0.83427238  0.65468559  0.12462998  1
  In  In71  1  0.83607741  0.66462726  0.61342428  1
  In  In72  1  0.49915220  0.16180443  -0.00528776  1
  In  In73  1  0.51059423  0.15719193  0.50241392  1
  In  In74  1  0.00447960  0.66672900  0.75376539  1
  In  In75  1  0.50571050  0.50790814  0.49946429  1
  In  In76  1  0.00048177  -0.00323364  0.24605353  1
  In  In77  1  0.66913270  -0.00582901  0.24496313  1
  In  In78  1  0.33009858  -0.00071975  0.23945729  1
  In  In79  1  0.33120974  0.66929372  0.75693472  1
  In  In80  1  0.66333613  0.66598637  0.75731583  1
  In  In81  1  0.33098267  0.33938131  0.24495022  1
  In  In82  1  0.15919420  0.50493688  0.00788224  1
  In  In83  1  0.16286557  0.16613841  0.49473639  1
  In  In84  1  0.67308398  0.33304323  0.75680724  1
  In  In85  1  0.66415118  0.00078963  0.74811861  1
  Cu  Cu86  1  0.16407560  0.18064829  0.24447335  1
  Cu  Cu87  1  0.83899038  0.49166974  0.75153758  1
  Cu  Cu88  1  0.33261984  0.34113605  0.50351049  1
  Cu  Cu89  1  0.50922189  0.17602009  0.23758893  1
  Cu  Cu90  1  0.16158034  0.16441165  0.75220297  1
  Cu  Cu91  1  0.82950917  0.49769279  0.24835697  1
  Cu  Cu92  1  0.16701596  0.83848629  0.75426450  1
  Cu  Cu93  1  0.83933869  0.83945128  0.75119631  1
  Cu  Cu94  1  0.32827588  -0.01191119  0.50401744  1
  Cu  Cu95  1  0.34266409  0.66548707  0.00622543  1
  Cu  Cu96  1  0.66513369  -0.00250793  0.50041681  1
  Cu  Cu97  1  -0.00141386  0.66352716  0.49134182  1
  Cu  Cu98  1  0.83999581  0.18194528  0.24537228  1
  Cu  Cu99  1  0.66396411  0.66561899  0.01197776  1
  Cu  Cu100  1  0.00522319  0.00616246  -0.00409901  1
  Cu  Cu101  1  0.49928620  0.49690600  0.76205318  1
  Cu  Cu102  1  0.15980201  0.48336199  0.74958009  1
  Cu  Cu103  1  0.68626191  0.33751779  0.49056726  1
  Cu  Cu104  1  0.16436660  0.83157546  0.24608139  1
  Cu  Cu105  1  0.00025128  -0.00473936  0.50258929  1
  Cu  Cu106  1  0.67371827  -0.00759566  -0.00019793  1
  Cu  Cu107  1  0.32555188  0.67070932  0.49487281  1
  Cu  Cu108  1  0.50079635  0.82491934  0.25112543  1
  Cu  Cu109  1  0.66595008  0.66952017  0.49376524  1
  Cu  Cu110  1  0.84149484  0.17676012  0.75534395  1
  Cu  Cu111  1  0.50099420  0.49699032  0.24669049  1
  Cu  Cu112  1  0.83788279  0.81959168  0.24757414  1
  Cu  Cu113  1  0.48598995  0.16906542  0.75781412  1
  Cu  Cu114  1  0.48668748  0.83954410  0.75767605  1
  Se  Se115  1  0.08792849  0.09102656  0.04863403  1
  Se  Se116  1  0.08091987  0.07783396  0.56301099  1
  Se  Se117  1  0.06616084  0.41258360  0.06036214  1
  Se  Se118  1  0.10242652  0.42196566  0.55379906  1
  Se  Se119  1  0.10918128  0.75783989  0.05732205  1
  Se  Se120  1  0.07815348  0.74700119  0.55019321  1
  Se  Se121  1  0.40830812  0.07755603  0.05844652  1
  Se  Se122  1  0.40563843  0.07901964  0.56042949  1
  Se  Se123  1  0.38847804  0.39696161  0.04419007  1
  Se  Se124  1  0.41875003  0.41568438  0.56342620  1
  Se  Se125  1  0.42552259  0.74950233  0.06047246  1
  Se  Se126  1  0.41306504  0.75280581  0.54652819  1
  Se  Se127  1  0.75690172  0.08019442  0.04748258  1
  Se  Se128  1  0.75039299  0.08287790  0.55029693  1
  Se  Se129  1  0.75456384  0.42503843  0.05157827  1
  Se  Se130  1  0.76363835  0.42421692  0.54579132  1
  Se  Se131  1  0.75619023  0.74831759  0.05761196  1
  Se  Se132  1  0.74937150  0.75153086  0.55113491  1
  Se  Se133  1  0.23589152  0.25494141  0.03674503  1
  Se  Se134  1  0.25611381  0.25140407  0.55827168  1
  Se  Se135  1  0.25405554  0.59232399  0.06655472  1
  Se  Se136  1  0.24964825  0.58043362  0.54805617  1
  Se  Se137  1  0.26387873  0.93109857  0.04752715  1
  Se  Se138  1  0.24347268  0.90824381  0.55836722  1
  Se  Se139  1  0.58209996  0.25126828  0.05978795  1
  Se  Se140  1  0.60265642  0.26014692  0.55356588  1
  Se  Se141  1  0.58065900  0.57963051  0.06205710  1
  Se  Se142  1  0.59508377  0.59360697  0.56618196  1
  Se  Se143  1  0.58746448  0.91241479  0.05220886  1
  Se  Se144  1  0.57881022  0.91759262  0.55366321  1
  Se  Se145  1  0.89696477  0.23951822  0.05245463  1
  Se  Se146  1  0.91246844  0.22903742  0.55172102  1
  Se  Se147  1  0.91761111  0.58141819  0.05067191  1
  Se  Se148  1  0.91860848  0.57960079  0.54854971  1
  Se  Se149  1  0.92516666  0.92083320  0.05085434  1
  Se  Se150  1  0.91287298  0.91510132  0.55582559  1
  Se  Se151  1  0.06896061  0.26315998  0.44761004  1
  Se  Se152  1  0.07134111  0.25843127  0.95096687  1
  Se  Se153  1  0.08269232  0.58403072  0.43571889  1
  Se  Se154  1  0.07483656  0.59918030  0.94445529  1
  Se  Se155  1  0.08640050  0.91020160  0.45412813  1
  Se  Se156  1  0.08612258  0.91737921  0.94513155  1
  Se  Se157  1  0.41725440  0.25785915  0.44779912  1
  Se  Se158  1  0.40697498  0.24737851  0.93476362  1
  Se  Se159  1  0.40982691  0.58812896  0.43683860  1
  Se  Se160  1  0.42108309  0.57625258  0.95462881  1
  Se  Se161  1  0.41838777  0.91132958  0.45132114  1
  Se  Se162  1  0.43872654  0.90193413  0.95059871  1
  Se  Se163  1  0.76192643  0.24586173  0.43916891  1
  Se  Se164  1  0.73676237  0.27016877  0.95752366  1
  Se  Se165  1  0.74993863  0.58312364  0.44451535  1
  Se  Se166  1  0.74045082  0.59055066  0.94662015  1
  Se  Se167  1  0.74868207  0.91304347  0.44633119  1
  Se  Se168  1  0.75935847  0.91004046  0.94661660  1
  Se  Se169  1  0.25784412  0.07166158  0.43803270  1
  Se  Se170  1  0.25600796  0.07133426  0.94863048  1
  Se  Se171  1  0.25025298  0.41807286  0.44646420  1
  Se  Se172  1  0.23957080  0.42033866  0.93609548  1
  Se  Se173  1  0.24103018  0.74842941  0.43690016  1
  Se  Se174  1  0.25593948  0.74689041  0.95350647  1
  Se  Se175  1  0.59383798  0.07493865  0.42965347  1
  Se  Se176  1  0.59699000  0.07349283  0.93630817  1
  Se  Se177  1  0.59334056  0.41514995  0.43803542  1
  Se  Se178  1  0.57144587  0.41592145  0.96225182  1
  Se  Se179  1  0.57659421  0.75179734  0.44638647  1
  Se  Se180  1  0.58460236  0.74835692  0.95233155  1
  Se  Se181  1  0.92188569  0.07746340  0.44402609  1
  Se  Se182  1  0.91537030  0.08584274  0.94415208  1
  Se  Se183  1  0.91515839  0.42390306  0.43985804  1
  Se  Se184  1  0.90185104  0.44545543  0.95660158  1
  Se  Se185  1  0.91086755  0.75005791  0.44493533  1
  Se  Se186  1  0.92141873  0.75476131  0.95816635  1
  Se  Se187  1  0.24297776  0.25172879  0.31284162  1
  Se  Se188  1  0.24403114  0.24988189  0.80413162  1
  Se  Se189  1  0.25579918  0.59281732  0.29189069  1
  Se  Se190  1  0.23810934  0.56971909  0.80712151  1
  Se  Se191  1  0.24179268  0.91507917  0.30748522  1
  Se  Se192  1  0.25336547  0.91741977  0.80844902  1
  Se  Se193  1  0.59083820  0.25707188  0.29263372  1
  Se  Se194  1  0.57453980  0.24539188  0.81390408  1
  Se  Se195  1  0.58344833  0.58307863  0.29972030  1
  Se  Se196  1  0.58673742  0.56900153  0.82077059  1
  Se  Se197  1  0.57647050  0.91175473  0.31008508  1
  Se  Se198  1  0.57954846  0.91241293  0.81317163  1
  Se  Se199  1  0.92583994  0.25976066  0.30061564  1
  Se  Se200  1  0.91364584  0.25906345  0.81853417  1
  Se  Se201  1  0.91398428  0.58294230  0.30032952  1
  Se  Se202  1  0.91176406  0.57855603  0.81319881  1
  Se  Se203  1  0.91116770  0.90702671  0.30814049  1
  Se  Se204  1  0.92247854  0.92177978  0.80382939  1
  Se  Se205  1  0.08902328  0.09416000  0.30557563  1
  Se  Se206  1  0.07883356  0.08103834  0.80550375  1
  Se  Se207  1  0.08943787  0.42436019  0.29465112  1
  Se  Se208  1  0.07141515  0.41081855  0.80569456  1
  Se  Se209  1  0.07627178  0.75385585  0.30051257  1
  Se  Se210  1  0.09099109  0.75757984  0.81575754  1
  Se  Se211  1  0.42725200  0.09486804  0.29741096  1
  Se  Se212  1  0.40591707  0.07666639  0.80230852  1
  Se  Se213  1  0.42204849  0.42240919  0.31328706  1
  Se  Se214  1  0.41020294  0.41340641  0.80735547  1
  Se  Se215  1  0.41234540  0.74700673  0.30436469  1
  Se  Se216  1  0.41695396  0.75464838  0.82070431  1
  Se  Se217  1  0.76352186  0.08850481  0.30072654  1
  Se  Se218  1  0.75346391  0.09476334  0.80810854  1
  Se  Se219  1  0.74569219  0.41081611  0.29877540  1
  Se  Se220  1  0.76668245  0.41341799  0.81830644  1
  Se  Se221  1  0.74828430  0.74435299  0.30253362  1
  Se  Se222  1  0.76361516  0.75399911  0.81130541  1
  Se  Se223  1  0.24201027  0.09823329  0.18512913  1
  Se  Se224  1  0.24763203  0.07994716  0.70158261  1
  Se  Se225  1  0.23897112  0.42535626  0.18580271  1
  Se  Se226  1  0.25446609  0.41041852  0.69808787  1
  Se  Se227  1  0.25906975  0.75368669  0.19847328  1
  Se  Se228  1  0.23676398  0.74947509  0.69222397  1
  Se  Se229  1  0.58621167  0.08909639  0.18167907  1
  Se  Se230  1  0.56934384  0.09553439  0.69248786  1
  Se  Se231  1  0.58181247  0.41268492  0.19310198  1
  Se  Se232  1  0.57922150  0.42231377  0.69464946  1
  Se  Se233  1  0.59052949  0.74441389  0.20109603  1
  Se  Se234  1  0.56897304  0.75776188  0.69650788  1
  Se  Se235  1  0.91807286  0.09561178  0.18749708  1
  Se  Se236  1  0.91509373  0.08288579  0.70265723  1
  Se  Se237  1  0.91501920  0.41721501  0.19455719  1
  Se  Se238  1  0.91951456  0.41485744  0.69054877  1
  Se  Se239  1  0.92220058  0.74198318  0.19106882  1
  Se  Se240  1  0.91131082  0.75126672  0.69048313  1
  Se  Se241  1  0.07805682  0.25954916  0.19211384  1
  Se  Se242  1  0.07898199  0.25061579  0.70016931  1
  Se  Se243  1  0.08135467  0.58085991  0.20298447  1
  Se  Se244  1  0.08763589  0.57433744  0.69051889  1
  Se  Se245  1  0.08621969  0.90938419  0.18269016  1
  Se  Se246  1  0.07869150  0.91445848  0.69860481  1
  Se  Se247  1  0.41957127  0.25065298  0.18049320  1
  Se  Se248  1  0.41209799  0.25818123  0.70190134  1
  Se  Se249  1  0.41279063  0.57844935  0.19678908  1
  Se  Se250  1  0.42335066  0.57713987  0.69673668  1
  Se  Se251  1  0.42222274  0.90316277  0.18867446  1
  Se  Se252  1  0.40525479  0.91653479  0.69789399  1
  Se  Se253  1  0.74913190  0.25856668  0.19405761  1
  Se  Se254  1  0.75985666  0.24926227  0.68970261  1
  Se  Se255  1  0.74624534  0.58433815  0.19738624  1
  Se  Se256  1  0.75877727  0.57707514  0.69506572  1
  Se  Se257  1  0.76229819  0.90550194  0.18728921  1
  Se  Se258  1  0.75395542  0.91058814  0.68783395  1
