# generated using pymatgen
data_In86Cu29Se144
_symmetry_space_group_name_H-M   'P 1'
_cell_length_a   17.58148532
_cell_length_b   17.58065266
_cell_length_c   23.44072104
_cell_angle_alpha   90.00114229
_cell_angle_beta   89.99050745
_cell_angle_gamma   89.96721201
_symmetry_Int_Tables_number   1
_chemical_formula_structural   In86Cu29Se144
_chemical_formula_sum   'In86 Cu29 Se144'
_cell_volume   7245.38462774
_cell_formula_units_Z   1
loop_
 _symmetry_equiv_pos_site_id
 _symmetry_equiv_pos_as_xyz
  1  'x, y, z'
loop_
 _atom_site_type_symbol
 _atom_site_label
 _atom_site_symmetry_multiplicity
 _atom_site_fract_x
 _atom_site_fract_y
 _atom_site_fract_z
 _atom_site_occupancy
  In  In0  1  0.01638351  0.16742220  0.12342137  1
  In  In1  1  0.00190216  0.16745801  0.61506920  1
  In  In2  1  -0.00700690  0.48741912  0.11389662  1
  In  In3  1  0.00078001  0.50389364  0.63607644  1
  In  In4  1  -0.00323805  0.82648809  0.11784300  1
  In  In5  1  -0.00395711  0.83185181  0.61627696  1
  In  In6  1  0.32200301  0.16062316  0.13027146  1
  In  In7  1  0.31211982  0.15546844  0.61888268  1
  In  In8  1  0.34660925  0.50700168  0.11497927  1
  In  In9  1  0.32852993  0.50046957  0.62862944  1
  In  In10  1  0.33288745  0.83183810  0.12787361  1
  In  In11  1  0.34632725  0.84772735  0.61018423  1
  In  In12  1  0.66811051  0.16667549  0.13384128  1
  In  In13  1  0.67586103  0.16128360  0.62179556  1
  In  In14  1  0.66832586  0.50216161  0.12506799  1
  In  In15  1  0.67416355  0.50601305  0.63961065  1
  In  In16  1  0.66362314  0.82939183  0.12632432  1
  In  In17  1  0.66844572  0.83543269  0.61860631  1
  In  In18  1  0.18520977  -0.01846510  0.39561679  1
  In  In19  1  0.16939812  -0.00417745  0.87959423  1
  In  In20  1  0.14518605  0.33596208  0.36715620  1
  In  In21  1  0.15958324  0.32834988  0.89187612  1
  In  In22  1  0.17582702  0.67019017  0.36679755  1
  In  In23  1  0.15927511  0.67703087  0.88176925  1
  In  In24  1  0.48286915  -0.01742502  0.36641597  1
  In  In25  1  0.48594973  0.00160663  0.87195353  1
  In  In26  1  0.50690558  0.32847778  0.36792656  1
  In  In27  1  0.51352948  0.34032034  0.87606300  1
  In  In28  1  0.50774231  0.67887693  0.36719969  1
  In  In29  1  0.50701474  0.66299162  0.88255058  1
  In  In30  1  0.82872558  0.00919618  0.38082579  1
  In  In31  1  0.81911690  -0.00707652  0.87492166  1
  In  In32  1  0.83383117  0.32697505  0.36637310  1
  In  In33  1  0.84087973  0.37891479  0.87309284  1
  In  In34  1  0.83097456  0.67781657  0.37378416  1
  In  In35  1  0.83575351  0.66454303  0.87453031  1
  In  In36  1  -0.00493199  0.16554538  0.38199168  1
  In  In37  1  0.00522418  0.17684376  0.87709128  1
  In  In38  1  0.01619011  0.48803661  0.36416259  1
  In  In39  1  -0.01426605  0.51364791  0.89854674  1
  In  In40  1  -0.00719223  0.84709467  0.39087112  1
  In  In41  1  0.00605472  0.82393639  0.87813025  1
  In  In42  1  0.33311815  0.14716853  0.37458438  1
  In  In43  1  0.32540714  0.15153013  0.87074094  1
  In  In44  1  0.31749598  0.51607257  0.36305846  1
  In  In45  1  0.33364570  0.50000402  0.89088503  1
  In  In46  1  0.33618834  0.83416834  0.37469033  1
  In  In47  1  0.33334648  0.83787831  0.87928533  1
  In  In48  1  0.67593533  0.17040502  0.36791410  1
  In  In49  1  0.65474830  0.17641608  0.87319175  1
  In  In50  1  0.66899817  0.50143113  0.36362186  1
  In  In51  1  0.66926952  0.50532201  0.87775118  1
  In  In52  1  0.66212069  0.83344379  0.37296733  1
  In  In53  1  0.67453289  0.82319114  0.88267663  1
  In  In54  1  0.17324169  0.00297063  0.12485762  1
  In  In55  1  0.17784848  0.01035445  0.61288351  1
  In  In56  1  0.16083242  0.32694185  0.11780495  1
  In  In57  1  0.16742520  0.32597151  0.62511168  1
  In  In58  1  0.17524956  0.67399483  0.12100723  1
  In  In59  1  0.15330589  0.66853984  0.63290279  1
  In  In60  1  0.50853613  -0.01012078  0.13331503  1
  In  In61  1  0.49643035  -0.02167874  0.62584553  1
  In  In62  1  0.50731720  0.34535717  0.12132585  1
  In  In63  1  0.50287684  0.34329459  0.62774241  1
  In  In64  1  0.50062551  0.66875245  0.12422527  1
  In  In65  1  0.50609685  0.69468778  0.63315885  1
  In  In66  1  0.83262004  -0.01374450  0.12618546  1
  In  In67  1  0.84188962  0.00439401  0.60529822  1
  In  In68  1  0.82670814  0.33861084  0.12858880  1
  In  In69  1  0.83559102  0.32609841  0.62641461  1
  In  In70  1  0.82725947  0.65557648  0.11921749  1
  In  In71  1  0.81921791  0.68340087  0.63966988  1
  In  In72  1  0.66167061  -0.00740101  0.74391488  1
  In  In73  1  0.33389018  0.32968198  0.75796260  1
  In  In74  1  0.33572281  0.67055818  0.75422241  1
  In  In75  1  0.49961721  0.50748448  0.50413930  1
  In  In76  1  0.33835212  0.33274562  0.24281552  1
  In  In77  1  0.00054740  0.66413616  0.24902292  1
  In  In78  1  0.00346740  0.00241289  0.74047866  1
  In  In79  1  0.83661779  0.16634730  -0.00392588  1
  In  In80  1  0.16607356  0.50243310  0.49707742  1
  In  In81  1  0.83540742  0.50485501  0.50438575  1
  In  In82  1  0.00191004  0.00435962  0.25943837  1
  In  In83  1  -0.00266738  0.33624837  0.75250719  1
  In  In84  1  0.50006531  0.15758438  0.49734743  1
  In  In85  1  0.49432432  0.16621711  -0.00528294  1
  Cu  Cu86  1  0.33464775  0.67374450  0.49586187  1
  Cu  Cu87  1  -0.00457841  0.33027959  0.49819068  1
  Cu  Cu88  1  0.16536625  0.83641396  0.25273658  1
  Cu  Cu89  1  0.81859197  0.83210518  0.25037950  1
  Cu  Cu90  1  0.49540047  0.82842526  0.24836155  1
  Cu  Cu91  1  0.82660993  0.17679443  0.74749957  1
  Cu  Cu92  1  0.84004133  0.16816543  0.25238218  1
  Cu  Cu93  1  0.66540318  -0.00173929  0.49342565  1
  Cu  Cu94  1  0.66711608  0.66652194  0.00341216  1
  Cu  Cu95  1  0.51053345  0.50910200  0.75386027  1
  Cu  Cu96  1  0.33713136  0.67349575  0.00174346  1
  Cu  Cu97  1  0.49148040  0.16818438  0.75023613  1
  Cu  Cu98  1  0.84000382  0.83136935  0.74821733  1
  Cu  Cu99  1  0.16910675  0.16344827  0.25210347  1
  Cu  Cu100  1  0.67317603  0.34043856  -0.00126397  1
  Cu  Cu101  1  -0.00076538  0.67070387  0.50152016  1
  Cu  Cu102  1  0.67210630  0.33003620  0.49301009  1
  Cu  Cu103  1  0.00404052  0.66752585  0.00228288  1
  Cu  Cu104  1  0.66419410  0.67567447  0.50206546  1
  Cu  Cu105  1  0.17072690  0.83550562  0.75387851  1
  Cu  Cu106  1  0.50742050  0.16207952  0.25261837  1
  Cu  Cu107  1  0.33284979  0.32850322  0.00553106  1
  Cu  Cu108  1  0.33253064  -0.00522833  0.00161346  1
  Cu  Cu109  1  0.15804283  0.50243333  0.76139734  1
  Cu  Cu110  1  0.50237347  0.50455601  0.24166593  1
  Cu  Cu111  1  0.32404249  0.32671803  0.49563757  1
  Cu  Cu112  1  0.00263386  -0.00854048  0.00016837  1
  Cu  Cu113  1  0.83279852  0.49747671  0.24311093  1
  Cu  Cu114  1  0.66649617  -0.01197200  0.00389404  1
  Se  Se115  1  0.08417368  0.07575550  0.05378683  1
  Se  Se116  1  0.07423978  0.07538591  0.55085687  1
  Se  Se117  1  0.08739764  0.41505622  0.04869526  1
  Se  Se118  1  0.07319531  0.41311214  0.55967637  1
  Se  Se119  1  0.08891232  0.75346598  0.05153014  1
  Se  Se120  1  0.08893978  0.74744962  0.55362636  1
  Se  Se121  1  0.41414318  0.07674120  0.06161698  1
  Se  Se122  1  0.41198701  0.07233732  0.55963057  1
  Se  Se123  1  0.42279242  0.41418626  0.04798315  1
  Se  Se124  1  0.40206432  0.40864770  0.55513007  1
  Se  Se125  1  0.41928329  0.75563484  0.05687630  1
  Se  Se126  1  0.42419456  0.74853317  0.55061266  1
  Se  Se127  1  0.74406085  0.07839608  0.05795432  1
  Se  Se128  1  0.74747462  0.08605876  0.54453615  1
  Se  Se129  1  0.75444840  0.42215584  0.05457480  1
  Se  Se130  1  0.74075578  0.41317439  0.55932651  1
  Se  Se131  1  0.75053004  0.75098617  0.05664459  1
  Se  Se132  1  0.75623789  0.75151715  0.55363000  1
  Se  Se133  1  0.25175675  0.24136914  0.05537352  1
  Se  Se134  1  0.24017337  0.24721665  0.54967728  1
  Se  Se135  1  0.25369887  0.58697502  0.05189153  1
  Se  Se136  1  0.25672335  0.59334871  0.55839349  1
  Se  Se137  1  0.24900258  0.91346017  0.05704984  1
  Se  Se138  1  0.23612000  0.90188950  0.55212132  1
  Se  Se139  1  0.59366882  0.25106722  0.05385636  1
  Se  Se140  1  0.58632142  0.25753549  0.55532090  1
  Se  Se141  1  0.58304352  0.58250931  0.05649218  1
  Se  Se142  1  0.59200256  0.59195218  0.56538072  1
  Se  Se143  1  0.57819444  0.91055535  0.05591521  1
  Se  Se144  1  0.58481508  0.91695412  0.55006785  1
  Se  Se145  1  0.91937788  0.25136625  0.06293271  1
  Se  Se146  1  0.91043982  0.24949508  0.55154767  1
  Se  Se147  1  0.91622050  0.58236316  0.05015748  1
  Se  Se148  1  0.92334502  0.59299415  0.56528039  1
  Se  Se149  1  0.91396400  0.91346364  0.05219107  1
  Se  Se150  1  0.91724140  0.91076444  0.54455895  1
  Se  Se151  1  0.08422848  0.25298488  0.44539719  1
  Se  Se152  1  0.08601590  0.23412129  0.95651314  1
  Se  Se153  1  0.07422352  0.59112330  0.43710144  1
  Se  Se154  1  0.09313886  0.58418693  0.95291956  1
  Se  Se155  1  0.08014175  0.92155704  0.45757857  1
  Se  Se156  1  0.08676002  0.90999737  0.94565034  1
  Se  Se157  1  0.41300475  0.25562859  0.43764422  1
  Se  Se158  1  0.40632790  0.25702395  0.93289474  1
  Se  Se159  1  0.40973190  0.58762369  0.43672425  1
  Se  Se160  1  0.42060062  0.58544583  0.95216458  1
  Se  Se161  1  0.41177225  0.91752755  0.44726905  1
  Se  Se162  1  0.42103135  0.91765881  0.94842071  1
  Se  Se163  1  0.75638683  0.24861953  0.44131508  1
  Se  Se164  1  0.74841682  0.25848743  0.93608494  1
  Se  Se165  1  0.73980126  0.58862696  0.44291826  1
  Se  Se166  1  0.75185973  0.58623247  0.94755329  1
  Se  Se167  1  0.74871373  0.91325785  0.44144915  1
  Se  Se168  1  0.75544499  0.90998899  0.95161161  1
  Se  Se169  1  0.25315010  0.08750430  0.45317693  1
  Se  Se170  1  0.25030655  0.08143817  0.94963289  1
  Se  Se171  1  0.25358263  0.41252372  0.43374305  1
  Se  Se172  1  0.24861962  0.41396615  0.95365090  1
  Se  Se173  1  0.24708166  0.75031585  0.44174985  1
  Se  Se174  1  0.25172206  0.75360609  0.94685116  1
  Se  Se175  1  0.58661521  0.07610963  0.42999819  1
  Se  Se176  1  0.59169910  0.07255886  0.94177621  1
  Se  Se177  1  0.58858704  0.41521747  0.44095814  1
  Se  Se178  1  0.58447657  0.42307719  0.94942951  1
  Se  Se179  1  0.57934900  0.75313958  0.44597948  1
  Se  Se180  1  0.58322368  0.75167282  0.95193363  1
  Se  Se181  1  0.92032690  0.07739825  0.44915201  1
  Se  Se182  1  0.92362862  0.06993316  0.93643035  1
  Se  Se183  1  0.92267288  0.41743586  0.43865349  1
  Se  Se184  1  0.93587304  0.39567322  0.95385293  1
  Se  Se185  1  0.91143992  0.74894117  0.44841744  1
  Se  Se186  1  0.91794746  0.74731379  0.94590852  1
  Se  Se187  1  0.25128680  0.24781289  0.31063322  1
  Se  Se188  1  0.23509505  0.24558846  0.81102479  1
  Se  Se189  1  0.23122141  0.58137738  0.29057162  1
  Se  Se190  1  0.24841202  0.57812768  0.81518876  1
  Se  Se191  1  0.24814521  0.91855171  0.30777558  1
  Se  Se192  1  0.25229411  0.91821817  0.80738180  1
  Se  Se193  1  0.59027915  0.25178361  0.29883249  1
  Se  Se194  1  0.57590776  0.25273610  0.79928845  1
  Se  Se195  1  0.58238818  0.58572960  0.30090268  1
  Se  Se196  1  0.59046234  0.59264061  0.80736877  1
  Se  Se197  1  0.58009081  0.91321295  0.30105423  1
  Se  Se198  1  0.58233517  0.91168288  0.81513247  1
  Se  Se199  1  0.92825247  0.24829080  0.30358070  1
  Se  Se200  1  0.90220291  0.25038419  0.81418387  1
  Se  Se201  1  0.90887200  0.57356492  0.31102413  1
  Se  Se202  1  0.91745760  0.57096556  0.81324706  1
  Se  Se203  1  0.90564619  0.90861376  0.30871770  1
  Se  Se204  1  0.91560087  0.91635460  0.80807776  1
  Se  Se205  1  0.09716180  0.08517226  0.31925987  1
  Se  Se206  1  0.08622741  0.08698621  0.80920438  1
  Se  Se207  1  0.09763255  0.42401676  0.28757194  1
  Se  Se208  1  0.08295666  0.41932296  0.82031561  1
  Se  Se209  1  0.07670323  0.76471636  0.31261642  1
  Se  Se210  1  0.08546844  0.74956660  0.80226688  1
  Se  Se211  1  0.41605478  0.08082450  0.29850299  1
  Se  Se212  1  0.40993214  0.07984228  0.79718700  1
  Se  Se213  1  0.42269021  0.42793125  0.30757368  1
  Se  Se214  1  0.42208384  0.43088608  0.80964678  1
  Se  Se215  1  0.40907400  0.74653445  0.30196660  1
  Se  Se216  1  0.42770187  0.75611403  0.81286276  1
  Se  Se217  1  0.75508016  0.08117006  0.30087259  1
  Se  Se218  1  0.74827476  0.09098330  0.80508811  1
  Se  Se219  1  0.75165017  0.41366678  0.30040518  1
  Se  Se220  1  0.72775547  0.40270791  0.80925594  1
  Se  Se221  1  0.74041318  0.74394571  0.30295830  1
  Se  Se222  1  0.75642091  0.75437523  0.80615844  1
  Se  Se223  1  0.25114951  0.07511033  0.20316010  1
  Se  Se224  1  0.24448936  0.07908503  0.69622981  1
  Se  Se225  1  0.25358738  0.41834611  0.17915351  1
  Se  Se226  1  0.23677286  0.42344368  0.69861028  1
  Se  Se227  1  0.24689119  0.75241001  0.19876505  1
  Se  Se228  1  0.24932283  0.75630299  0.68979087  1
  Se  Se229  1  0.58979210  0.07771871  0.19921829  1
  Se  Se230  1  0.57155856  0.08933352  0.68673163  1
  Se  Se231  1  0.58789190  0.41609151  0.19633043  1
  Se  Se232  1  0.58432259  0.41812209  0.69927599  1
  Se  Se233  1  0.58307085  0.74686026  0.19709126  1
  Se  Se234  1  0.60243063  0.75833838  0.69873053  1
  Se  Se235  1  0.91535449  0.08679282  0.18864267  1
  Se  Se236  1  0.90430724  0.09434603  0.68801956  1
  Se  Se237  1  0.92030601  0.41489667  0.19460937  1
  Se  Se238  1  0.90111052  0.42561481  0.69648309  1
  Se  Se239  1  0.90574186  0.75499234  0.19254591  1
  Se  Se240  1  0.92795518  0.75192295  0.69558423  1
  Se  Se241  1  0.09003994  0.24817665  0.19772594  1
  Se  Se242  1  0.08500454  0.24101982  0.69459930  1
  Se  Se243  1  0.08006091  0.58217329  0.17889193  1
  Se  Se244  1  0.07907170  0.58646146  0.70642469  1
  Se  Se245  1  0.08066021  0.91099548  0.19183578  1
  Se  Se246  1  0.09281355  0.90874505  0.68633206  1
  Se  Se247  1  0.43176000  0.24039443  0.18548330  1
  Se  Se248  1  0.41393941  0.24611949  0.68453499  1
  Se  Se249  1  0.41417621  0.58662259  0.19353064  1
  Se  Se250  1  0.42724415  0.58059840  0.68939548  1
  Se  Se251  1  0.41317348  0.91664899  0.19813033  1
  Se  Se252  1  0.41573436  0.90413207  0.69746021  1
  Se  Se253  1  0.75324891  0.24981004  0.19890879  1
  Se  Se254  1  0.74031332  0.25448499  0.69307981  1
  Se  Se255  1  0.74855164  0.58556523  0.19687426  1
  Se  Se256  1  0.75753484  0.58544242  0.70555394  1
  Se  Se257  1  0.74159144  0.91937915  0.19637346  1
  Se  Se258  1  0.76783228  0.91916275  0.68633358  1
