# generated using pymatgen
data_In86Cu29Se144
_symmetry_space_group_name_H-M   'P 1'
_cell_length_a   17.58220034
_cell_length_b   17.58260026
_cell_length_c   23.44496034
_cell_angle_alpha   89.98487781
_cell_angle_beta   89.99190046
_cell_angle_gamma   90.02091741
_symmetry_Int_Tables_number   1
_chemical_formula_structural   In86Cu29Se144
_chemical_formula_sum   'In86 Cu29 Se144'
_cell_volume   7247.79299300
_cell_formula_units_Z   1
loop_
 _symmetry_equiv_pos_site_id
 _symmetry_equiv_pos_as_xyz
  1  'x, y, z'
loop_
 _atom_site_type_symbol
 _atom_site_label
 _atom_site_symmetry_multiplicity
 _atom_site_fract_x
 _atom_site_fract_y
 _atom_site_fract_z
 _atom_site_occupancy
  In  In0  1  -0.00726129  0.16992593  0.11907592  1
  In  In1  1  0.00404838  0.17956261  0.62481326  1
  In  In2  1  0.00973813  0.50779523  0.12528445  1
  In  In3  1  0.00045984  0.50083159  0.62650406  1
  In  In4  1  -0.00742494  0.82650079  0.11912799  1
  In  In5  1  -0.00047430  0.82284109  0.62112542  1
  In  In6  1  0.35686394  0.15597477  0.13210300  1
  In  In7  1  0.34273103  0.15854732  0.62929183  1
  In  In8  1  0.34196593  0.49917234  0.13229194  1
  In  In9  1  0.31916025  0.50413703  0.62300533  1
  In  In10  1  0.31744021  0.84519077  0.13259747  1
  In  In11  1  0.33311694  0.84426197  0.62185233  1
  In  In12  1  0.65231466  0.15592225  0.11060238  1
  In  In13  1  0.65539099  0.16129713  0.62074222  1
  In  In14  1  0.66420168  0.51978916  0.11661916  1
  In  In15  1  0.69072449  0.50156416  0.62832566  1
  In  In16  1  0.68106853  0.82823147  0.13386615  1
  In  In17  1  0.67248782  0.82965016  0.63726193  1
  In  In18  1  0.16339606  -0.02862779  0.37101647  1
  In  In19  1  0.16934688  -0.01509273  0.87656645  1
  In  In20  1  0.18405721  0.32924214  0.37724297  1
  In  In21  1  0.16663004  0.33453122  0.86291420  1
  In  In22  1  0.16188073  0.66771302  0.37461706  1
  In  In23  1  0.16148895  0.67610185  0.87740298  1
  In  In24  1  0.50116200  0.00100261  0.36900081  1
  In  In25  1  0.50497585  0.00735280  0.87441790  1
  In  In26  1  0.48591656  0.32666209  0.37660379  1
  In  In27  1  0.49826426  0.34063276  0.88306881  1
  In  In28  1  0.50947203  0.67738250  0.36577008  1
  In  In29  1  0.50226936  0.64923089  0.88660494  1
  In  In30  1  0.83805465  0.00226676  0.37499777  1
  In  In31  1  0.82059052  0.00659350  0.88143254  1
  In  In32  1  0.83735860  0.32804343  0.38488542  1
  In  In33  1  0.82462371  0.32865907  0.86811623  1
  In  In34  1  0.82698521  0.66060267  0.36952403  1
  In  In35  1  0.84112789  0.67179172  0.86941182  1
  In  In36  1  -0.00955763  0.15024132  0.38236843  1
  In  In37  1  -0.01606657  0.16584373  0.86909998  1
  In  In38  1  -0.00726815  0.50612577  0.38271472  1
  In  In39  1  -0.00704092  0.50451412  0.85585675  1
  In  In40  1  0.01466300  0.83545406  0.37154574  1
  In  In41  1  0.00520758  0.82238374  0.87804037  1
  In  In42  1  0.34027669  0.16854282  0.37006505  1
  In  In43  1  0.33855027  0.17036408  0.87131149  1
  In  In44  1  0.32747910  0.49223526  0.37404123  1
  In  In45  1  0.34391033  0.49431858  0.87619028  1
  In  In46  1  0.31064932  0.81769953  0.35052247  1
  In  In47  1  0.32118403  0.83276470  0.88107929  1
  In  In48  1  0.67136685  0.15485813  0.38244534  1
  In  In49  1  0.67721552  0.16548372  0.88451393  1
  In  In50  1  0.67387668  0.51105143  0.37593355  1
  In  In51  1  0.66058121  0.49377532  0.87458053  1
  In  In52  1  0.67161959  0.83282122  0.35873899  1
  In  In53  1  0.66795295  0.83882426  0.87591934  1
  In  In54  1  0.18652662  -0.00552461  0.12562135  1
  In  In55  1  0.18037545  0.00664312  0.62103314  1
  In  In56  1  0.17328309  0.34529026  0.12862077  1
  In  In57  1  0.15644496  0.34108317  0.63350210  1
  In  In58  1  0.14881153  0.68588002  0.14411673  1
  In  In59  1  0.16059250  0.65759914  0.61260316  1
  In  In60  1  0.49320476  0.00944713  0.12403937  1
  In  In61  1  0.49306361  0.00357116  0.63268900  1
  In  In62  1  0.49629565  0.32522012  0.11380390  1
  In  In63  1  0.50481736  0.31770150  0.62604769  1
  In  In64  1  0.50754354  0.66015827  0.12962924  1
  In  In65  1  0.50554570  0.67703451  0.62741141  1
  In  In66  1  0.82203260  -0.01404921  0.11929308  1
  In  In67  1  0.81736022  -0.00549020  0.62479693  1
  In  In68  1  0.83299443  0.32335086  0.11711251  1
  In  In69  1  0.84465623  0.34450839  0.61847915  1
  In  In70  1  0.81851847  0.68931186  0.14984719  1
  In  In71  1  0.85232823  0.64978309  0.64693930  1
  In  In72  1  0.66323389  0.33612798  0.24196443  1
  In  In73  1  0.16574333  0.16601356  0.49977713  1
  In  In74  1  0.49708523  0.83285267  0.00476720  1
  In  In75  1  0.50133878  0.49777668  0.49476165  1
  In  In76  1  0.33468679  0.66848096  0.75517253  1
  In  In77  1  0.66645686  0.33558071  0.75151819  1
  In  In78  1  -0.00072886  -0.00534491  0.25380170  1
  In  In79  1  0.00226050  0.33693358  0.25275814  1
  In  In80  1  0.00145164  0.00213761  0.74654505  1
  In  In81  1  0.16980426  0.50742590  0.00158906  1
  In  In82  1  0.83646915  0.83416561  0.49966434  1
  In  In83  1  0.49875291  0.83752684  0.49022677  1
  In  In84  1  0.83086389  0.50251838  -0.00307949  1
  In  In85  1  0.16807843  0.16113862  0.00237917  1
  Cu  Cu86  1  -0.00530789  0.32718474  -0.00700623  1
  Cu  Cu87  1  0.49994327  0.50323200  0.25328121  1
  Cu  Cu88  1  0.16605467  0.50061024  0.74416552  1
  Cu  Cu89  1  0.17384413  0.16858119  0.25169123  1
  Cu  Cu90  1  0.32664714  0.67167386  0.48937079  1
  Cu  Cu91  1  0.00240008  0.33897438  0.50479359  1
  Cu  Cu92  1  0.50522191  0.16973813  0.24571536  1
  Cu  Cu93  1  0.49899378  0.49644690  0.75530429  1
  Cu  Cu94  1  0.32852125  0.66814168  0.00751553  1
  Cu  Cu95  1  0.00248077  0.66436998  0.50163904  1
  Cu  Cu96  1  0.33137848  0.33133508  0.50117280  1
  Cu  Cu97  1  0.83158107  0.84075069  0.75428422  1
  Cu  Cu98  1  0.65680415  -0.00064768  0.50138550  1
  Cu  Cu99  1  0.17396049  0.16516815  0.74729428  1
  Cu  Cu100  1  0.17430853  0.50459507  0.25283557  1
  Cu  Cu101  1  -0.00671237  0.66942213  0.00245098  1
  Cu  Cu102  1  0.50080062  0.83704276  0.75562935  1
  Cu  Cu103  1  0.66803842  -0.00260773  0.00067054  1
  Cu  Cu104  1  0.68010155  0.66305855  0.50345497  1
  Cu  Cu105  1  0.49953535  0.16409635  0.75089370  1
  Cu  Cu106  1  0.66772538  0.32721496  0.50310132  1
  Cu  Cu107  1  0.16871404  0.82984554  0.75147593  1
  Cu  Cu108  1  0.33648129  0.32636035  0.00207045  1
  Cu  Cu109  1  -0.00207125  -0.00562922  -0.00613398  1
  Cu  Cu110  1  0.49903241  0.83792104  0.24104853  1
  Cu  Cu111  1  0.82461952  0.15669629  0.25232729  1
  Cu  Cu112  1  0.82712318  0.17123359  0.75053437  1
  Cu  Cu113  1  0.83491923  0.50145419  0.24987704  1
  Cu  Cu114  1  0.33149077  -0.00271206  0.49610562  1
  Se  Se115  1  0.07555495  0.07019779  0.06090786  1
  Se  Se116  1  0.07485977  0.07736401  0.55948805  1
  Se  Se117  1  0.07500344  0.40667532  0.05367475  1
  Se  Se118  1  0.08748752  0.42100816  0.55642544  1
  Se  Se119  1  0.08535725  0.74555983  0.05448129  1
  Se  Se120  1  0.08655596  0.75383518  0.54824403  1
  Se  Se121  1  0.42478258  0.09251901  0.04851419  1
  Se  Se122  1  0.41437821  0.07490789  0.55448785  1
  Se  Se123  1  0.41082126  0.41884490  0.05469923  1
  Se  Se124  1  0.41405294  0.41184949  0.56083412  1
  Se  Se125  1  0.40727560  0.74734894  0.06819356  1
  Se  Se126  1  0.41011647  0.74374496  0.55325594  1
  Se  Se127  1  0.75468500  0.08260747  0.05151937  1
  Se  Se128  1  0.74349896  0.08041621  0.55381044  1
  Se  Se129  1  0.74246671  0.41323797  0.05909886  1
  Se  Se130  1  0.74984868  0.41651898  0.55051134  1
  Se  Se131  1  0.75312746  0.74434449  0.06121723  1
  Se  Se132  1  0.75409930  0.74509438  0.56570643  1
  Se  Se133  1  0.25475996  0.25206997  0.06470939  1
  Se  Se134  1  0.25218001  0.25309451  0.56521041  1
  Se  Se135  1  0.24763583  0.59195567  0.07149156  1
  Se  Se136  1  0.25184162  0.58275227  0.54480360  1
  Se  Se137  1  0.25236395  0.91533475  0.04862070  1
  Se  Se138  1  0.24682867  0.91486826  0.54896176  1
  Se  Se139  1  0.59140181  0.25820932  0.04782102  1
  Se  Se140  1  0.57754909  0.24447244  0.54811463  1
  Se  Se141  1  0.57374881  0.58785480  0.04765678  1
  Se  Se142  1  0.58867446  0.58731840  0.55864823  1
  Se  Se143  1  0.59094844  0.91895415  0.06466103  1
  Se  Se144  1  0.58540947  0.91379804  0.56334117  1
  Se  Se145  1  0.91196145  0.24321679  0.04463439  1
  Se  Se146  1  0.91838451  0.25023891  0.55206479  1
  Se  Se147  1  0.91621260  0.58859453  0.06309702  1
  Se  Se148  1  0.91655735  0.58775038  0.55908181  1
  Se  Se149  1  0.91477177  0.91394770  0.05133021  1
  Se  Se150  1  0.92210462  0.92598122  0.56133460  1
  Se  Se151  1  0.07489267  0.25746362  0.43861288  1
  Se  Se152  1  0.08147487  0.25047885  0.93613408  1
  Se  Se153  1  0.08642653  0.58218443  0.44697851  1
  Se  Se154  1  0.06900090  0.58492606  0.94036807  1
  Se  Se155  1  0.06299603  0.93474825  0.44447215  1
  Se  Se156  1  0.08447283  0.90974161  0.94648594  1
  Se  Se157  1  0.41259726  0.24438957  0.45025493  1
  Se  Se158  1  0.41811378  0.24637080  0.94563641  1
  Se  Se159  1  0.41767125  0.59469066  0.43545332  1
  Se  Se160  1  0.40547088  0.58097093  0.95307399  1
  Se  Se161  1  0.40202582  0.91570786  0.42989446  1
  Se  Se162  1  0.41272544  0.92240412  0.94157714  1
  Se  Se163  1  0.75080321  0.24388904  0.44838696  1
  Se  Se164  1  0.74804881  0.26425311  0.94660185  1
  Se  Se165  1  0.76083671  0.57929312  0.44937795  1
  Se  Se166  1  0.74487825  0.59200305  0.93591355  1
  Se  Se167  1  0.73675014  0.91768222  0.44126351  1
  Se  Se168  1  0.75165954  0.91226155  0.94989972  1
  Se  Se169  1  0.25053023  0.07761455  0.43516651  1
  Se  Se170  1  0.25650932  0.07652803  0.93955152  1
  Se  Se171  1  0.24925260  0.41787871  0.45116566  1
  Se  Se172  1  0.25170687  0.40586664  0.94373622  1
  Se  Se173  1  0.24576431  0.75935464  0.43982851  1
  Se  Se174  1  0.24513268  0.74703243  0.95135270  1
  Se  Se175  1  0.57378828  0.08065524  0.44613387  1
  Se  Se176  1  0.58667049  0.08262881  0.94776270  1
  Se  Se177  1  0.59311387  0.40612391  0.43622169  1
  Se  Se178  1  0.58105271  0.42316557  0.94920761  1
  Se  Se179  1  0.60100128  0.74498281  0.44294751  1
  Se  Se180  1  0.58833965  0.74492306  0.94537117  1
  Se  Se181  1  0.90127014  0.08439117  0.45253522  1
  Se  Se182  1  0.91663520  0.08348577  0.94497505  1
  Se  Se183  1  0.91490826  0.41810352  0.45024603  1
  Se  Se184  1  0.92397726  0.41597303  0.93439551  1
  Se  Se185  1  0.92373067  0.74292190  0.43798627  1
  Se  Se186  1  0.91231380  0.75202344  0.94691490  1
  Se  Se187  1  0.25822816  0.25384090  0.30106015  1
  Se  Se188  1  0.25510080  0.25076067  0.80099388  1
  Se  Se189  1  0.25478355  0.58684100  0.30911262  1
  Se  Se190  1  0.24235116  0.57501305  0.81294548  1
  Se  Se191  1  0.26012904  0.93437991  0.29518210  1
  Se  Se192  1  0.25329407  0.91308824  0.80219032  1
  Se  Se193  1  0.58328474  0.24635715  0.31060789  1
  Se  Se194  1  0.57910854  0.24480878  0.81225807  1
  Se  Se195  1  0.58905250  0.58285930  0.30402544  1
  Se  Se196  1  0.57966679  0.58189866  0.80693877  1
  Se  Se197  1  0.58148927  0.91799596  0.29918835  1
  Se  Se198  1  0.58541411  0.92100338  0.80669891  1
  Se  Se199  1  0.91045749  0.23892723  0.30722938  1
  Se  Se200  1  0.91456862  0.25540671  0.79826531  1
  Se  Se201  1  0.91987980  0.58068531  0.30455555  1
  Se  Se202  1  0.91600883  0.59476665  0.79312198  1
  Se  Se203  1  0.90602888  0.90175218  0.30808926  1
  Se  Se204  1  0.91560381  0.91877104  0.81401562  1
  Se  Se205  1  0.09072795  0.09095580  0.31097794  1
  Se  Se206  1  0.09231982  0.08830933  0.81066740  1
  Se  Se207  1  0.09355367  0.42202810  0.31394585  1
  Se  Se208  1  0.08160170  0.41634229  0.79673641  1
  Se  Se209  1  0.09749166  0.76011828  0.30211697  1
  Se  Se210  1  0.08194905  0.74683081  0.80072019  1
  Se  Se211  1  0.42075348  0.08654549  0.29999211  1
  Se  Se212  1  0.41549896  0.08006332  0.80347644  1
  Se  Se213  1  0.41890090  0.41742867  0.30605621  1
  Se  Se214  1  0.41655374  0.40952567  0.80406483  1
  Se  Se215  1  0.42110317  0.75092847  0.29681293  1
  Se  Se216  1  0.42478897  0.75405086  0.81837669  1
  Se  Se217  1  0.74451718  0.07429931  0.30684596  1
  Se  Se218  1  0.74746356  0.08703534  0.80568896  1
  Se  Se219  1  0.75902440  0.41497094  0.30863900  1
  Se  Se220  1  0.75974036  0.43233967  0.80118149  1
  Se  Se221  1  0.74950316  0.74070078  0.29808214  1
  Se  Se222  1  0.74963171  0.75557818  0.80666347  1
  Se  Se223  1  0.25399377  0.08823255  0.19422135  1
  Se  Se224  1  0.25644046  0.07806334  0.69830170  1
  Se  Se225  1  0.25521290  0.41766526  0.20137216  1
  Se  Se226  1  0.25422475  0.41655290  0.69688333  1
  Se  Se227  1  0.25445188  0.74953088  0.20234914  1
  Se  Se228  1  0.24713204  0.75027959  0.68743499  1
  Se  Se229  1  0.58613594  0.08382220  0.19307180  1
  Se  Se230  1  0.58472775  0.08168728  0.69801996  1
  Se  Se231  1  0.57461242  0.42784817  0.18496552  1
  Se  Se232  1  0.57825645  0.42535712  0.68641167  1
  Se  Se233  1  0.58527920  0.75000404  0.19619125  1
  Se  Se234  1  0.58170664  0.75068561  0.70308219  1
  Se  Se235  1  0.91189517  0.08583490  0.19059028  1
  Se  Se236  1  0.90727569  0.09106328  0.68855583  1
  Se  Se237  1  0.91016027  0.41940371  0.18741254  1
  Se  Se238  1  0.91395021  0.42147822  0.69441170  1
  Se  Se239  1  0.93845657  0.73920388  0.19840906  1
  Se  Se240  1  0.91879131  0.76108854  0.70069443  1
  Se  Se241  1  0.08927881  0.24336640  0.19070347  1
  Se  Se242  1  0.08341695  0.24862015  0.70159424  1
  Se  Se243  1  0.08035639  0.58041507  0.20420420  1
  Se  Se244  1  0.08641100  0.58847541  0.69248732  1
  Se  Se245  1  0.08579482  0.91450706  0.18593014  1
  Se  Se246  1  0.09294230  0.91162506  0.68786269  1
  Se  Se247  1  0.42242044  0.25835483  0.19630464  1
  Se  Se248  1  0.41723009  0.24975517  0.69846344  1
  Se  Se249  1  0.41718068  0.58835633  0.20081830  1
  Se  Se250  1  0.42219587  0.57789423  0.69110208  1
  Se  Se251  1  0.41459515  0.92412137  0.19319447  1
  Se  Se252  1  0.41443480  0.91219391  0.69837945  1
  Se  Se253  1  0.75231761  0.23814238  0.18869607  1
  Se  Se254  1  0.75142018  0.24899057  0.68446450  1
  Se  Se255  1  0.74451530  0.57848358  0.19850431  1
  Se  Se256  1  0.72895149  0.60675431  0.69721001  1
  Se  Se257  1  0.75350252  0.92006530  0.20168990  1
  Se  Se258  1  0.74496841  0.92361425  0.70451774  1
