# generated using pymatgen
data_In86Cu29Se144
_symmetry_space_group_name_H-M   'P 1'
_cell_length_a   17.55963396
_cell_length_b   17.55839929
_cell_length_c   23.40986614
_cell_angle_alpha   90.00174028
_cell_angle_beta   90.00098090
_cell_angle_gamma   90.04227041
_symmetry_Int_Tables_number   1
_chemical_formula_structural   In86Cu29Se144
_chemical_formula_sum   'In86 Cu29 Se144'
_cell_volume   7217.70606089
_cell_formula_units_Z   1
loop_
 _symmetry_equiv_pos_site_id
 _symmetry_equiv_pos_as_xyz
  1  'x, y, z'
loop_
 _atom_site_type_symbol
 _atom_site_label
 _atom_site_symmetry_multiplicity
 _atom_site_fract_x
 _atom_site_fract_y
 _atom_site_fract_z
 _atom_site_occupancy
  In  In0  1  0.00106515  0.16504070  0.11520367  1
  In  In1  1  -0.00493993  0.17064021  0.63358759  1
  In  In2  1  0.00922104  0.49630414  0.12353879  1
  In  In3  1  -0.02136519  0.51278813  0.64863535  1
  In  In4  1  -0.00252591  0.84152680  0.12584226  1
  In  In5  1  0.00759848  0.82953305  0.64100774  1
  In  In6  1  0.33402515  0.18089147  0.11598046  1
  In  In7  1  0.33047651  0.17184464  0.63253216  1
  In  In8  1  0.33447321  0.50137425  0.11615440  1
  In  In9  1  0.34426086  0.49687323  0.63543726  1
  In  In10  1  0.31963471  0.82130050  0.12208066  1
  In  In11  1  0.37197199  0.79779481  0.66841054  1
  In  In12  1  0.67078600  0.15648878  0.11838074  1
  In  In13  1  0.67388970  0.14248346  0.62311867  1
  In  In14  1  0.66254343  0.51454239  0.12336252  1
  In  In15  1  0.66805459  0.50448688  0.62804720  1
  In  In16  1  0.66062126  0.81585505  0.12031044  1
  In  In17  1  0.65121447  0.83341702  0.63755620  1
  In  In18  1  0.15887861  0.01245704  0.37148346  1
  In  In19  1  0.17590927  0.00309445  0.86215183  1
  In  In20  1  0.17354495  0.32288599  0.37078364  1
  In  In21  1  0.17140685  0.33799444  0.88052287  1
  In  In22  1  0.16544144  0.66720797  0.37074100  1
  In  In23  1  0.16043370  0.66281300  0.87024380  1
  In  In24  1  0.48887626  -0.00775765  0.38583687  1
  In  In25  1  0.49501753  -0.01156404  0.85346782  1
  In  In26  1  0.50225253  0.35927593  0.37309933  1
  In  In27  1  0.48977154  0.35730010  0.88013244  1
  In  In28  1  0.50161012  0.66490111  0.38012616  1
  In  In29  1  0.48316583  0.64776581  0.84075862  1
  In  In30  1  0.84230309  -0.00728898  0.38109791  1
  In  In31  1  0.83273216  -0.00651704  0.87052730  1
  In  In32  1  0.83122385  0.33935596  0.38568841  1
  In  In33  1  0.82753719  0.31480828  0.87732584  1
  In  In34  1  0.82402402  0.66478446  0.37139956  1
  In  In35  1  0.84876634  0.66702393  0.86742666  1
  In  In36  1  0.00462046  0.15745921  0.37501945  1
  In  In37  1  -0.00162374  0.16426866  0.87363770  1
  In  In38  1  -0.01360300  0.50104023  0.37733964  1
  In  In39  1  0.01098531  0.51557905  0.86657122  1
  In  In40  1  -0.00429472  0.83562128  0.36946444  1
  In  In41  1  -0.00671621  0.81771012  0.86225869  1
  In  In42  1  0.31934028  0.16813081  0.37307726  1
  In  In43  1  0.32830369  0.16809795  0.87360146  1
  In  In44  1  0.35420466  0.52102314  0.35898891  1
  In  In45  1  0.33277239  0.49697099  0.87458529  1
  In  In46  1  0.34928944  0.82793116  0.38412363  1
  In  In47  1  0.32582847  0.82059448  0.85159070  1
  In  In48  1  0.67024813  0.17600931  0.38424080  1
  In  In49  1  0.67702741  0.16366233  0.87360623  1
  In  In50  1  0.65172234  0.51759225  0.39471771  1
  In  In51  1  0.65518853  0.50450433  0.86637796  1
  In  In52  1  0.66839735  0.81759146  0.37919097  1
  In  In53  1  0.66650905  0.83861858  0.86342314  1
  In  In54  1  0.14858874  -0.00663829  0.11791889  1
  In  In55  1  0.17330916  -0.00984053  0.64432196  1
  In  In56  1  0.19556534  0.35870351  0.08772782  1
  In  In57  1  0.16760650  0.33250334  0.63323214  1
  In  In58  1  0.17983198  0.65351217  0.12985837  1
  In  In59  1  0.17735402  0.67161960  0.64064619  1
  In  In60  1  0.50218186  -0.00350635  0.12515050  1
  In  In61  1  0.52034137  -0.02175618  0.65118647  1
  In  In62  1  0.47973539  0.35003525  0.12875181  1
  In  In63  1  0.48618179  0.33548711  0.62692154  1
  In  In64  1  0.50406229  0.65460032  0.13134865  1
  In  In65  1  0.50294102  0.65725339  0.62930457  1
  In  In66  1  0.84935760  0.00690701  0.11330531  1
  In  In67  1  0.82554579  0.00477857  0.62614374  1
  In  In68  1  0.84748748  0.32989757  0.11952688  1
  In  In69  1  0.84240975  0.34062488  0.62651935  1
  In  In70  1  0.82452010  0.67903033  0.12392646  1
  In  In71  1  0.82894043  0.65193914  0.63822836  1
  In  In72  1  0.66585640  0.34384467  0.24546628  1
  In  In73  1  0.67644690  -0.00722235  0.25460967  1
  In  In74  1  0.16450307  0.16517530  0.49857488  1
  In  In75  1  0.00801176  0.33164229  0.24492733  1
  In  In76  1  0.83579348  0.49631086  -0.00215693  1
  In  In77  1  0.66510690  0.33268175  0.75069726  1
  In  In78  1  0.50382262  0.82846657  -0.01665300  1
  In  In79  1  0.16943262  0.83607223  0.51382519  1
  In  In80  1  0.50670079  0.17427054  -0.01192430  1
  In  In81  1  0.32463753  -0.00879314  0.25316381  1
  In  In82  1  0.50386103  0.16955436  0.50461385  1
  In  In83  1  0.16739826  0.49307166  0.50561565  1
  In  In84  1  0.82647039  0.83471461  0.50631812  1
  In  In85  1  0.16003578  0.83269889  -0.00749788  1
  Cu  Cu86  1  0.16151522  0.82870747  0.24727141  1
  Cu  Cu87  1  0.84276703  0.16486004  0.24623211  1
  Cu  Cu88  1  0.83802659  0.83676166  0.24627394  1
  Cu  Cu89  1  0.34251184  -0.00799897  0.51677361  1
  Cu  Cu90  1  0.67726716  -0.00234948  -0.00766255  1
  Cu  Cu91  1  0.49907389  0.81949025  0.25326106  1
  Cu  Cu92  1  0.17007647  0.49757722  0.24182855  1
  Cu  Cu93  1  0.66318817  0.66534639  0.50585355  1
  Cu  Cu94  1  0.33397693  0.00536765  -0.01164676  1
  Cu  Cu95  1  0.00149944  0.67039007  -0.00320460  1
  Cu  Cu96  1  0.49553965  0.17493127  0.25074690  1
  Cu  Cu97  1  -0.01081159  0.65913400  0.50806029  1
  Cu  Cu98  1  0.82801278  0.51087744  0.25387139  1
  Cu  Cu99  1  -0.00071288  0.00321948  0.50368910  1
  Cu  Cu100  1  -0.00066515  0.32820796  -0.00778721  1
  Cu  Cu101  1  0.17451272  0.49594450  0.75401372  1
  Cu  Cu102  1  0.34399876  0.66174543  -0.00630078  1
  Cu  Cu103  1  0.49785364  0.17384380  0.75198144  1
  Cu  Cu104  1  0.66324207  0.66900764  -0.00604119  1
  Cu  Cu105  1  -0.01176652  0.33723966  0.51179661  1
  Cu  Cu106  1  0.16140516  0.17695796  0.75661177  1
  Cu  Cu107  1  0.83315973  0.15988515  0.75088529  1
  Cu  Cu108  1  0.16451169  0.16814962  0.23938369  1
  Cu  Cu109  1  0.67451018  0.33450418  0.50757877  1
  Cu  Cu110  1  0.34541578  0.66909415  0.50823671  1
  Cu  Cu111  1  0.34008128  0.34375088  0.49568144  1
  Cu  Cu112  1  -0.00474042  -0.00149896  -0.00893188  1
  Cu  Cu113  1  0.83408057  0.83091333  0.74630919  1
  Cu  Cu114  1  0.66007090  0.33565013  -0.00457512  1
  Se  Se115  1  0.08104461  0.07978210  0.04457210  1
  Se  Se116  1  0.08552219  0.07610205  0.56581076  1
  Se  Se117  1  0.07544562  0.42112433  0.04338126  1
  Se  Se118  1  0.07238732  0.41566389  0.56988029  1
  Se  Se119  1  0.08338427  0.74329142  0.06243333  1
  Se  Se120  1  0.07576482  0.73696114  0.56432511  1
  Se  Se121  1  0.41966471  0.07743624  0.05188923  1
  Se  Se122  1  0.41802048  0.08377302  0.56931876  1
  Se  Se123  1  0.41527303  0.41849481  0.04636557  1
  Se  Se124  1  0.41806638  0.42470193  0.55422770  1
  Se  Se125  1  0.41595123  0.74804547  0.05495263  1
  Se  Se126  1  0.42040818  0.75378617  0.56797248  1
  Se  Se127  1  0.75556625  0.08363469  0.04763002  1
  Se  Se128  1  0.75325507  0.07529229  0.54602048  1
  Se  Se129  1  0.74252391  0.40949647  0.06078803  1
  Se  Se130  1  0.75331890  0.42105075  0.56127323  1
  Se  Se131  1  0.74859549  0.75228375  0.04522560  1
  Se  Se132  1  0.74387036  0.74195498  0.56829840  1
  Se  Se133  1  0.23839118  0.23216370  0.04378178  1
  Se  Se134  1  0.25659613  0.26090483  0.55368458  1
  Se  Se135  1  0.25064879  0.58774900  0.04691040  1
  Se  Se136  1  0.25552728  0.58999493  0.56312093  1
  Se  Se137  1  0.25663263  0.92362541  0.05151364  1
  Se  Se138  1  0.26398096  0.91223630  0.57651091  1
  Se  Se139  1  0.58390033  0.25832255  0.06444966  1
  Se  Se140  1  0.59426268  0.25635934  0.56901154  1
  Se  Se141  1  0.58011978  0.58750382  0.04940497  1
  Se  Se142  1  0.58067942  0.57659570  0.55543044  1
  Se  Se143  1  0.58943799  0.92140126  0.05150986  1
  Se  Se144  1  0.58170813  0.91757936  0.56315067  1
  Se  Se145  1  0.91493713  0.24597489  0.04563519  1
  Se  Se146  1  0.91141514  0.24263262  0.55875836  1
  Se  Se147  1  0.92071196  0.59029857  0.05922728  1
  Se  Se148  1  0.90921914  0.57610187  0.56253591  1
  Se  Se149  1  0.91827743  0.90976885  0.04677358  1
  Se  Se150  1  0.92802556  0.91561213  0.56430509  1
  Se  Se151  1  0.07104448  0.26331945  0.44501697  1
  Se  Se152  1  0.08450249  0.24581107  0.94142379  1
  Se  Se153  1  0.07691863  0.58906673  0.44614872  1
  Se  Se154  1  0.08589464  0.58576332  0.94696747  1
  Se  Se155  1  0.08042126  0.92163676  0.44427933  1
  Se  Se156  1  0.07563137  0.92090740  0.92896935  1
  Se  Se157  1  0.41356178  0.25335005  0.43787997  1
  Se  Se158  1  0.40459782  0.26408983  0.94362233  1
  Se  Se159  1  0.41651022  0.58060002  0.44857631  1
  Se  Se160  1  0.42679562  0.58826031  0.93287305  1
  Se  Se161  1  0.42119955  0.90759120  0.46060140  1
  Se  Se162  1  0.40401961  0.91695324  0.92913899  1
  Se  Se163  1  0.75624003  0.24949805  0.45466705  1
  Se  Se164  1  0.74360972  0.24486814  0.95242319  1
  Se  Se165  1  0.75583366  0.58934169  0.45223186  1
  Se  Se166  1  0.74793091  0.58690139  0.93694769  1
  Se  Se167  1  0.73767398  0.92277666  0.44332225  1
  Se  Se168  1  0.75143703  0.90664164  0.93964292  1
  Se  Se169  1  0.26195921  0.06607258  0.44855931  1
  Se  Se170  1  0.24316301  0.08440017  0.94084119  1
  Se  Se171  1  0.25550096  0.41712621  0.43435854  1
  Se  Se172  1  0.24740474  0.42689571  0.94873342  1
  Se  Se173  1  0.25379394  0.74169448  0.44937627  1
  Se  Se174  1  0.26099083  0.74655050  0.93861426  1
  Se  Se175  1  0.58981209  0.07523526  0.44363555  1
  Se  Se176  1  0.58474126  0.06790163  0.93337201  1
  Se  Se177  1  0.58389311  0.41332564  0.45568685  1
  Se  Se178  1  0.58553511  0.42791219  0.94621723  1
  Se  Se179  1  0.58107134  0.74926363  0.45170524  1
  Se  Se180  1  0.58421925  0.73385989  0.92279433  1
  Se  Se181  1  0.91883217  0.08516889  0.44716504  1
  Se  Se182  1  0.90952713  0.08239735  0.94002011  1
  Se  Se183  1  0.91310701  0.42365140  0.45389253  1
  Se  Se184  1  0.92277015  0.41268131  0.93192450  1
  Se  Se185  1  0.91986180  0.74742871  0.44500413  1
  Se  Se186  1  0.91743472  0.75086651  0.94377395  1
  Se  Se187  1  0.25006359  0.24721213  0.29482398  1
  Se  Se188  1  0.25107462  0.25742146  0.80637528  1
  Se  Se189  1  0.24528622  0.58419015  0.30122985  1
  Se  Se190  1  0.25385843  0.58623907  0.80579404  1
  Se  Se191  1  0.23819417  0.90248256  0.31833064  1
  Se  Se192  1  0.24981879  0.91634227  0.79205635  1
  Se  Se193  1  0.57968453  0.24993003  0.30995562  1
  Se  Se194  1  0.57442111  0.25038045  0.81822598  1
  Se  Se195  1  0.58088136  0.57773176  0.31187282  1
  Se  Se196  1  0.60410151  0.59647476  0.78729060  1
  Se  Se197  1  0.57383188  0.90960974  0.31150997  1
  Se  Se198  1  0.58996497  0.91871205  0.78955274  1
  Se  Se199  1  0.91363003  0.25061432  0.30991171  1
  Se  Se200  1  0.91328774  0.24600980  0.80357992  1
  Se  Se201  1  0.91816355  0.58946981  0.30529163  1
  Se  Se202  1  0.91926017  0.58017442  0.79616716  1
  Se  Se203  1  0.91725418  0.92360668  0.30125466  1
  Se  Se204  1  0.91721600  0.91479755  0.80020948  1
  Se  Se205  1  0.08037115  0.08711210  0.29594304  1
  Se  Se206  1  0.08028212  0.08425841  0.80210588  1
  Se  Se207  1  0.09097789  0.42479363  0.31032364  1
  Se  Se208  1  0.08774940  0.41622270  0.80770815  1
  Se  Se209  1  0.07788960  0.74810524  0.30503313  1
  Se  Se210  1  0.09264284  0.75180781  0.79869375  1
  Se  Se211  1  0.42093754  0.08562284  0.30924081  1
  Se  Se212  1  0.41204119  0.08951989  0.80245784  1
  Se  Se213  1  0.39642461  0.39978528  0.30534079  1
  Se  Se214  1  0.41952798  0.42619719  0.80049142  1
  Se  Se215  1  0.41273639  0.74265261  0.30871399  1
  Se  Se216  1  0.44115596  0.77415027  0.79356584  1
  Se  Se217  1  0.75971643  0.09390081  0.31176611  1
  Se  Se218  1  0.74725737  0.07724308  0.80168954  1
  Se  Se219  1  0.75287481  0.42600507  0.31402433  1
  Se  Se220  1  0.75711784  0.41775506  0.81246965  1
  Se  Se221  1  0.75162302  0.75526194  0.30113035  1
  Se  Se222  1  0.75635477  0.74890288  0.80491071  1
  Se  Se223  1  0.24606762  0.08032610  0.18350127  1
  Se  Se224  1  0.24512666  0.09499196  0.70145486  1
  Se  Se225  1  0.24624604  0.41435597  0.18263614  1
  Se  Se226  1  0.25628471  0.41245834  0.69876256  1
  Se  Se227  1  0.25092414  0.74618616  0.20073395  1
  Se  Se228  1  0.23488340  0.77313128  0.70725867  1
  Se  Se229  1  0.57926097  0.08935917  0.19649103  1
  Se  Se230  1  0.58653000  0.09120615  0.70364087  1
  Se  Se231  1  0.57032604  0.43567070  0.19494329  1
  Se  Se232  1  0.57204765  0.42155293  0.69411416  1
  Se  Se233  1  0.58624468  0.74275096  0.19794021  1
  Se  Se234  1  0.59870277  0.72374899  0.70049610  1
  Se  Se235  1  0.92374426  0.08396998  0.19033449  1
  Se  Se236  1  0.91606209  0.07686217  0.69613091  1
  Se  Se237  1  0.90698241  0.42677850  0.19462762  1
  Se  Se238  1  0.92514928  0.39955162  0.70573297  1
  Se  Se239  1  0.91801336  0.75076837  0.19166482  1
  Se  Se240  1  0.91686476  0.74151456  0.69819659  1
  Se  Se241  1  0.09406479  0.25363897  0.17666582  1
  Se  Se242  1  0.07770573  0.25642105  0.69989927  1
  Se  Se243  1  0.08137600  0.58245149  0.19495120  1
  Se  Se244  1  0.09202991  0.57943085  0.69932808  1
  Se  Se245  1  0.08137166  0.91848854  0.19858565  1
  Se  Se246  1  0.07083588  0.92766811  0.70649611  1
  Se  Se247  1  0.41192390  0.25120915  0.19420187  1
  Se  Se248  1  0.41170997  0.25629320  0.70157305  1
  Se  Se249  1  0.39633044  0.59412934  0.18909861  1
  Se  Se250  1  0.39598430  0.60652832  0.69792463  1
  Se  Se251  1  0.42079734  0.90325102  0.19198120  1
  Se  Se252  1  0.39485225  0.93942109  0.69742542  1
  Se  Se253  1  0.75818679  0.24502497  0.18968164  1
  Se  Se254  1  0.75332816  0.24172009  0.68948385  1
  Se  Se255  1  0.74902923  0.58883027  0.19329460  1
  Se  Se256  1  0.74069637  0.57708979  0.70803755  1
  Se  Se257  1  0.75539612  0.91207213  0.18111465  1
  Se  Se258  1  0.75019821  0.91479493  0.69446323  1
