# generated using pymatgen
data_In86Cu29Se144
_symmetry_space_group_name_H-M   'P 1'
_cell_length_a   17.58020688
_cell_length_b   17.57707300
_cell_length_c   23.43240795
_cell_angle_alpha   89.99255806
_cell_angle_beta   89.99938754
_cell_angle_gamma   90.01332027
_symmetry_Int_Tables_number   1
_chemical_formula_structural   In86Cu29Se144
_chemical_formula_sum   'In86 Cu29 Se144'
_cell_volume   7240.81484057
_cell_formula_units_Z   1
loop_
 _symmetry_equiv_pos_site_id
 _symmetry_equiv_pos_as_xyz
  1  'x, y, z'
loop_
 _atom_site_type_symbol
 _atom_site_label
 _atom_site_symmetry_multiplicity
 _atom_site_fract_x
 _atom_site_fract_y
 _atom_site_fract_z
 _atom_site_occupancy
  In  In0  1  -0.00623715  0.18193351  0.12113731  1
  In  In1  1  -0.02941003  0.18814164  0.65400860  1
  In  In2  1  0.00415498  0.50398030  0.11370497  1
  In  In3  1  -0.01215140  0.48886049  0.62232530  1
  In  In4  1  -0.01161754  0.81711855  0.11605853  1
  In  In5  1  -0.00302199  0.83994856  0.62545315  1
  In  In6  1  0.34520602  0.16261326  0.11915576  1
  In  In7  1  0.33907975  0.16331321  0.64709298  1
  In  In8  1  0.33644993  0.51622251  0.12129014  1
  In  In9  1  0.33294649  0.50602300  0.63344616  1
  In  In10  1  0.32489718  0.82955213  0.11429164  1
  In  In11  1  0.33996048  0.81928169  0.63556965  1
  In  In12  1  0.66458192  0.16690716  0.10528920  1
  In  In13  1  0.68523808  0.17372461  0.63941164  1
  In  In14  1  0.68426546  0.50371314  0.12094319  1
  In  In15  1  0.67537307  0.50419680  0.63162892  1
  In  In16  1  0.66146981  0.82770821  0.11839215  1
  In  In17  1  0.66320261  0.82426501  0.61653100  1
  In  In18  1  0.17506087  -0.00483642  0.37834793  1
  In  In19  1  0.16117488  -0.00922866  0.87179175  1
  In  In20  1  0.16957671  0.35438929  0.37674906  1
  In  In21  1  0.16773442  0.33775627  0.87434364  1
  In  In22  1  0.15744869  0.65726696  0.36406305  1
  In  In23  1  0.17078946  0.65742308  0.88030686  1
  In  In24  1  0.49454134  -0.01052246  0.37423874  1
  In  In25  1  0.49062695  0.00718909  0.87517413  1
  In  In26  1  0.51043137  0.32698753  0.37447978  1
  In  In27  1  0.50061394  0.32496603  0.86454131  1
  In  In28  1  0.51192881  0.68102263  0.36355413  1
  In  In29  1  0.51026446  0.67528838  0.87262002  1
  In  In30  1  0.83027836  0.00272365  0.38487614  1
  In  In31  1  0.83603701  -0.00370728  0.87381845  1
  In  In32  1  0.83248527  0.33642894  0.38670119  1
  In  In33  1  0.83214658  0.33291413  0.86757476  1
  In  In34  1  0.83180049  0.66463088  0.37626858  1
  In  In35  1  0.83213199  0.66390823  0.87363065  1
  In  In36  1  -0.00901053  0.15790154  0.37976216  1
  In  In37  1  -0.02255372  0.16076564  0.85556434  1
  In  In38  1  -0.02989470  0.53778968  0.41344110  1
  In  In39  1  -0.00269998  0.50080773  0.87320197  1
  In  In40  1  0.00569054  0.81560492  0.37855586  1
  In  In41  1  -0.00782766  0.83848064  0.87988035  1
  In  In42  1  0.34211194  0.14985376  0.37740021  1
  In  In43  1  0.35232139  0.17310125  0.86022286  1
  In  In44  1  0.31979770  0.50381319  0.38149327  1
  In  In45  1  0.32313978  0.49296392  0.86910714  1
  In  In46  1  0.34734107  0.82953330  0.38012837  1
  In  In47  1  0.33435341  0.83041940  0.87438309  1
  In  In48  1  0.67533047  0.17924702  0.37544907  1
  In  In49  1  0.66577718  0.17527593  0.87349282  1
  In  In50  1  0.66450224  0.51354466  0.38007012  1
  In  In51  1  0.67663730  0.50144353  0.86296113  1
  In  In52  1  0.69256890  0.80379771  0.40225321  1
  In  In53  1  0.67557640  0.82270209  0.88264273  1
  In  In54  1  0.18587964  -0.00072729  0.11927943  1
  In  In55  1  0.15558227  0.00247614  0.63718220  1
  In  In56  1  0.15165220  0.33797013  0.11417555  1
  In  In57  1  0.16234978  0.34191714  0.63596665  1
  In  In58  1  0.16342739  0.66424083  0.11856614  1
  In  In59  1  0.17329291  0.66908833  0.62059989  1
  In  In60  1  0.50394564  0.00457440  0.11104158  1
  In  In61  1  0.50286800  -0.01301358  0.63289170  1
  In  In62  1  0.51086682  0.32572344  0.11568852  1
  In  In63  1  0.50549876  0.32534813  0.64701147  1
  In  In64  1  0.49125530  0.67453463  0.13027677  1
  In  In65  1  0.49978481  0.66871646  0.62781882  1
  In  In66  1  0.82965588  -0.00342542  0.11534855  1
  In  In67  1  0.83318212  0.00675445  0.62728633  1
  In  In68  1  0.82722194  0.34013981  0.10459330  1
  In  In69  1  0.83401192  0.34157657  0.63442414  1
  In  In70  1  0.83437789  0.66560873  0.12601660  1
  In  In71  1  0.82348650  0.65406245  0.60484304  1
  In  In72  1  0.66397741  0.00635140  0.75682973  1
  In  In73  1  0.66014606  -0.00523406  0.24097029  1
  In  In74  1  0.15227286  0.17836330  0.51477184  1
  In  In75  1  0.50115844  0.49759762  -0.00757413  1
  In  In76  1  -0.00855603  0.66425035  0.75022444  1
  In  In77  1  0.33616894  0.34306825  0.24159525  1
  In  In78  1  0.49847012  0.50451980  0.50700568  1
  In  In79  1  0.50465571  0.16422731  0.50289333  1
  In  In80  1  0.66716103  0.33835875  0.24251445  1
  In  In81  1  -0.00078156  0.34387526  0.24742875  1
  In  In82  1  0.16454496  0.83223323  0.50010106  1
  In  In83  1  0.16476241  0.16356165  -0.00794790  1
  In  In84  1  0.00195074  -0.01027883  0.24660119  1
  In  In85  1  0.34027306  -0.00824799  0.25554029  1
  Cu  Cu86  1  0.32903500  -0.00281952  0.50973856  1
  Cu  Cu87  1  0.49589942  0.50445359  0.25029089  1
  Cu  Cu88  1  0.00121035  0.00135774  -0.00625388  1
  Cu  Cu89  1  0.49975481  0.50991631  0.75505899  1
  Cu  Cu90  1  0.66941232  0.66124853  -0.00162852  1
  Cu  Cu91  1  0.33768143  0.66702504  0.50596813  1
  Cu  Cu92  1  0.33404942  0.33215523  -0.01157568  1
  Cu  Cu93  1  0.33774479  0.00018490  -0.00869254  1
  Cu  Cu94  1  -0.00203755  0.32736008  0.51523521  1
  Cu  Cu95  1  0.50099419  0.83102296  0.75127427  1
  Cu  Cu96  1  0.17198542  0.16037774  0.75966162  1
  Cu  Cu97  1  0.16862062  0.50698616  0.74932583  1
  Cu  Cu98  1  0.83009496  0.16975417  0.24740481  1
  Cu  Cu99  1  0.16078299  0.50883848  0.24868451  1
  Cu  Cu100  1  0.67519533  0.33512256  0.50982924  1
  Cu  Cu101  1  0.67204532  -0.00061254  -0.00860805  1
  Cu  Cu102  1  0.16798804  0.82960995  0.75062596  1
  Cu  Cu103  1  -0.00560908  0.66531226  -0.00358372  1
  Cu  Cu104  1  0.33442048  0.33401042  0.50901646  1
  Cu  Cu105  1  0.83680613  0.50662807  0.25308717  1
  Cu  Cu106  1  0.33081435  0.66846775  -0.00098638  1
  Cu  Cu107  1  0.66385575  0.00423224  0.51077757  1
  Cu  Cu108  1  0.83594047  0.82243414  0.25544272  1
  Cu  Cu109  1  0.50443123  0.83209251  0.24804801  1
  Cu  Cu110  1  -0.00935734  0.33255005  -0.00964253  1
  Cu  Cu111  1  -0.00972163  0.00993486  0.50720734  1
  Cu  Cu112  1  0.16384915  0.82021437  0.24004622  1
  Cu  Cu113  1  0.17781654  0.17219826  0.25894086  1
  Cu  Cu114  1  0.82891454  0.82980945  0.75217497  1
  Se  Se115  1  0.07745686  0.07851740  0.06200771  1
  Se  Se116  1  0.06461789  0.08714008  0.57211298  1
  Se  Se117  1  0.07724188  0.41669300  0.04101780  1
  Se  Se118  1  0.08693865  0.41389257  0.55785035  1
  Se  Se119  1  0.08234947  0.74742395  0.04809206  1
  Se  Se120  1  0.07205280  0.74302090  0.55676187  1
  Se  Se121  1  0.41937780  0.08727253  0.04338057  1
  Se  Se122  1  0.41124956  0.08033211  0.56516165  1
  Se  Se123  1  0.40783095  0.41001607  0.05715782  1
  Se  Se124  1  0.41996791  0.40650979  0.56921021  1
  Se  Se125  1  0.41784423  0.74880044  0.05182429  1
  Se  Se126  1  0.41936217  0.75282701  0.55638473  1
  Se  Se127  1  0.75597281  0.08317471  0.04546677  1
  Se  Se128  1  0.74621528  0.09006987  0.56066368  1
  Se  Se129  1  0.72373744  0.40600196  0.04587919  1
  Se  Se130  1  0.75562576  0.42201097  0.56053231  1
  Se  Se131  1  0.75084766  0.74572938  0.05478968  1
  Se  Se132  1  0.76030683  0.76231575  0.54757013  1
  Se  Se133  1  0.25522709  0.25487858  0.05572471  1
  Se  Se134  1  0.26063738  0.25036882  0.57039567  1
  Se  Se135  1  0.24751213  0.58096372  0.04862522  1
  Se  Se136  1  0.25534627  0.58025286  0.55567847  1
  Se  Se137  1  0.25147156  0.91804198  0.04299421  1
  Se  Se138  1  0.24859646  0.91841415  0.56871224  1
  Se  Se139  1  0.57686776  0.24537060  0.04024328  1
  Se  Se140  1  0.58922619  0.25530233  0.56546600  1
  Se  Se141  1  0.58266520  0.58783599  0.06027497  1
  Se  Se142  1  0.59468274  0.59314164  0.55867310  1
  Se  Se143  1  0.58939390  0.91827034  0.04893149  1
  Se  Se144  1  0.57730809  0.91644077  0.55451397  1
  Se  Se145  1  0.91110391  0.24659254  0.04494560  1
  Se  Se146  1  0.90893061  0.24801895  0.56466567  1
  Se  Se147  1  0.91044223  0.58261144  0.05181418  1
  Se  Se148  1  0.92802003  0.58220719  0.54867445  1
  Se  Se149  1  0.92080544  0.91768106  0.05191732  1
  Se  Se150  1  0.91128381  0.92007124  0.55757205  1
  Se  Se151  1  0.07455766  0.25999483  0.43878794  1
  Se  Se152  1  0.07142128  0.24832742  0.93321578  1
  Se  Se153  1  0.10456959  0.57624075  0.44591054  1
  Se  Se154  1  0.07864578  0.58060933  0.94504522  1
  Se  Se155  1  0.07149599  0.93129849  0.44499479  1
  Se  Se156  1  0.08506686  0.91350512  0.94768032  1
  Se  Se157  1  0.40917496  0.25608258  0.44372456  1
  Se  Se158  1  0.41999720  0.24865750  0.94093495  1
  Se  Se159  1  0.41499568  0.59102892  0.43945026  1
  Se  Se160  1  0.40968047  0.58872659  0.93555028  1
  Se  Se161  1  0.41392798  0.92098789  0.45165553  1
  Se  Se162  1  0.42066809  0.91212805  0.94317144  1
  Se  Se163  1  0.75159411  0.24832535  0.45320791  1
  Se  Se164  1  0.76371378  0.24190011  0.93869877  1
  Se  Se165  1  0.76110394  0.57213904  0.44730572  1
  Se  Se166  1  0.74881300  0.57886081  0.94200363  1
  Se  Se167  1  0.74638217  0.92360739  0.45335979  1
  Se  Se168  1  0.75816576  0.91307147  0.94525797  1
  Se  Se169  1  0.24891917  0.08347603  0.45363043  1
  Se  Se170  1  0.25879282  0.08259771  0.93110931  1
  Se  Se171  1  0.25172231  0.41676154  0.45583324  1
  Se  Se172  1  0.24656695  0.41970775  0.94726583  1
  Se  Se173  1  0.25532563  0.74221676  0.44071985  1
  Se  Se174  1  0.24772125  0.75122364  0.94468857  1
  Se  Se175  1  0.59241987  0.07704231  0.43773065  1
  Se  Se176  1  0.58773521  0.08091614  0.93848670  1
  Se  Se177  1  0.58979785  0.40775277  0.44767931  1
  Se  Se178  1  0.58849387  0.41206194  0.93079057  1
  Se  Se179  1  0.57032004  0.75212206  0.44821733  1
  Se  Se180  1  0.58358244  0.74860150  0.95157431  1
  Se  Se181  1  0.90543688  0.09288651  0.45390704  1
  Se  Se182  1  0.91919506  0.08464815  0.94075320  1
  Se  Se183  1  0.92016849  0.41013063  0.45544547  1
  Se  Se184  1  0.90919432  0.41983742  0.93964946  1
  Se  Se185  1  0.90623276  0.75899266  0.44390237  1
  Se  Se186  1  0.91055665  0.74884366  0.94372177  1
  Se  Se187  1  0.25738983  0.25227144  0.31654593  1
  Se  Se188  1  0.25029563  0.25334560  0.80639905  1
  Se  Se189  1  0.25533558  0.58248051  0.30080643  1
  Se  Se190  1  0.25212937  0.58927747  0.80264536  1
  Se  Se191  1  0.24067729  0.89831237  0.30637723  1
  Se  Se192  1  0.25084100  0.91349027  0.80459156  1
  Se  Se193  1  0.58026904  0.23910515  0.30003840  1
  Se  Se194  1  0.57747025  0.23636168  0.79764266  1
  Se  Se195  1  0.58556712  0.58178955  0.30255107  1
  Se  Se196  1  0.58917886  0.59107191  0.80293386  1
  Se  Se197  1  0.58528618  0.90594719  0.31112687  1
  Se  Se198  1  0.58147529  0.90647420  0.81439049  1
  Se  Se199  1  0.91062716  0.24747868  0.30825922  1
  Se  Se200  1  0.93610192  0.27875872  0.79577141  1
  Se  Se201  1  0.92270272  0.58017610  0.31220480  1
  Se  Se202  1  0.89991605  0.56743457  0.80065296  1
  Se  Se203  1  0.90956155  0.91236134  0.31342047  1
  Se  Se204  1  0.91520074  0.91226774  0.80251263  1
  Se  Se205  1  0.09141316  0.08711460  0.30962757  1
  Se  Se206  1  0.08038031  0.07811224  0.80483446  1
  Se  Se207  1  0.08025516  0.43428058  0.31121193  1
  Se  Se208  1  0.08867096  0.42469282  0.80620600  1
  Se  Se209  1  0.07799851  0.74608339  0.29784599  1
  Se  Se210  1  0.08401174  0.75058160  0.81181972  1
  Se  Se211  1  0.43665961  0.09175945  0.30148164  1
  Se  Se212  1  0.41754096  0.07433838  0.79473757  1
  Se  Se213  1  0.42376240  0.42225633  0.31379533  1
  Se  Se214  1  0.41891074  0.42086387  0.80480264  1
  Se  Se215  1  0.41327575  0.75297547  0.29937250  1
  Se  Se216  1  0.41662904  0.74685012  0.80449292  1
  Se  Se217  1  0.75289588  0.08558214  0.30476918  1
  Se  Se218  1  0.76441264  0.09458297  0.80585246  1
  Se  Se219  1  0.75642576  0.42082273  0.30987533  1
  Se  Se220  1  0.73785742  0.39851802  0.79544169  1
  Se  Se221  1  0.74513747  0.74729523  0.30815143  1
  Se  Se222  1  0.74727406  0.74565440  0.80455682  1
  Se  Se223  1  0.25259523  0.09186338  0.19604371  1
  Se  Se224  1  0.24984558  0.07352833  0.70391104  1
  Se  Se225  1  0.23503035  0.42560004  0.18502262  1
  Se  Se226  1  0.25416310  0.41869966  0.70165053  1
  Se  Se227  1  0.25262988  0.74443586  0.18714793  1
  Se  Se228  1  0.24724797  0.74178676  0.69949252  1
  Se  Se229  1  0.57913528  0.09422527  0.18398452  1
  Se  Se230  1  0.57620125  0.09316008  0.69119560  1
  Se  Se231  1  0.57312946  0.42905932  0.18565165  1
  Se  Se232  1  0.58235879  0.42966707  0.69844106  1
  Se  Se233  1  0.58836809  0.74844837  0.19472260  1
  Se  Se234  1  0.58572051  0.75211242  0.69453030  1
  Se  Se235  1  0.91314845  0.08886517  0.18982733  1
  Se  Se236  1  0.91704867  0.07017511  0.70444475  1
  Se  Se237  1  0.90358288  0.42337353  0.18460303  1
  Se  Se238  1  0.93903038  0.39803038  0.70226442  1
  Se  Se239  1  0.91955747  0.74540178  0.19776734  1
  Se  Se240  1  0.90472860  0.75166031  0.68700387  1
  Se  Se241  1  0.09453532  0.24446139  0.19501324  1
  Se  Se242  1  0.09557841  0.23964555  0.69823519  1
  Se  Se243  1  0.07723613  0.58421720  0.18896589  1
  Se  Se244  1  0.08526296  0.57958558  0.68691526  1
  Se  Se245  1  0.09313999  0.90983192  0.18073087  1
  Se  Se246  1  0.07785686  0.91015505  0.70192550  1
  Se  Se247  1  0.42726369  0.24543459  0.19159052  1
  Se  Se248  1  0.40974327  0.25712979  0.71134043  1
  Se  Se249  1  0.41118136  0.58777889  0.19916569  1
  Se  Se250  1  0.41632211  0.59098144  0.69880022  1
  Se  Se251  1  0.42593212  0.91288750  0.18488272  1
  Se  Se252  1  0.41361689  0.91369709  0.70160056  1
  Se  Se253  1  0.75550375  0.24618605  0.18272801  1
  Se  Se254  1  0.74136316  0.27459946  0.70802955  1
  Se  Se255  1  0.75029052  0.58509055  0.19819593  1
  Se  Se256  1  0.76122286  0.59343493  0.69264272  1
  Se  Se257  1  0.76251373  0.90529453  0.19117638  1
  Se  Se258  1  0.74658944  0.91130944  0.69221048  1
