# generated using pymatgen
data_In86Cu29Se144
_symmetry_space_group_name_H-M   'P 1'
_cell_length_a   17.57649182
_cell_length_b   17.58382822
_cell_length_c   23.44168327
_cell_angle_alpha   89.99791658
_cell_angle_beta   90.00255547
_cell_angle_gamma   90.02100511
_symmetry_Int_Tables_number   1
_chemical_formula_structural   In86Cu29Se144
_chemical_formula_sum   'In86 Cu29 Se144'
_cell_volume   7244.93331672
_cell_formula_units_Z   1
loop_
 _symmetry_equiv_pos_site_id
 _symmetry_equiv_pos_as_xyz
  1  'x, y, z'
loop_
 _atom_site_type_symbol
 _atom_site_label
 _atom_site_symmetry_multiplicity
 _atom_site_fract_x
 _atom_site_fract_y
 _atom_site_fract_z
 _atom_site_occupancy
  In  In0  1  -0.01002842  0.16458158  0.12548032  1
  In  In1  1  -0.00658429  0.14869047  0.62136934  1
  In  In2  1  -0.00871061  0.50787894  0.12548945  1
  In  In3  1  0.00415677  0.50324091  0.62743115  1
  In  In4  1  -0.00026019  0.82678987  0.11042723  1
  In  In5  1  0.01366193  0.85339766  0.61615608  1
  In  In6  1  0.34415618  0.15385138  0.13372482  1
  In  In7  1  0.33505300  0.16835180  0.61505670  1
  In  In8  1  0.36451962  0.47589488  0.14782352  1
  In  In9  1  0.34135863  0.48304600  0.62522513  1
  In  In10  1  0.32658589  0.84057748  0.13020211  1
  In  In11  1  0.34142775  0.84367677  0.62265720  1
  In  In12  1  0.64874636  0.18233738  0.14773340  1
  In  In13  1  0.66481723  0.16701589  0.62099275  1
  In  In14  1  0.65210262  0.50375008  0.13186131  1
  In  In15  1  0.65068523  0.50677893  0.62695458  1
  In  In16  1  0.67124987  0.82773295  0.12861248  1
  In  In17  1  0.65534039  0.82173275  0.61796123  1
  In  In18  1  0.17126928  -0.00396947  0.38301843  1
  In  In19  1  0.17093185  -0.00835296  0.85800247  1
  In  In20  1  0.17805735  0.31662543  0.38266257  1
  In  In21  1  0.17251075  0.31644420  0.87406782  1
  In  In22  1  0.18364859  0.66865735  0.37786029  1
  In  In23  1  0.16983294  0.68010276  0.88079492  1
  In  In24  1  0.50132762  0.00178755  0.37877183  1
  In  In25  1  0.50268835  0.00991824  0.86953081  1
  In  In26  1  0.49767967  0.32969159  0.37398933  1
  In  In27  1  0.50135647  0.33326266  0.87390975  1
  In  In28  1  0.50215381  0.67279496  0.37281877  1
  In  In29  1  0.49640597  0.64833171  0.87829372  1
  In  In30  1  0.81538854  0.01357495  0.38719383  1
  In  In31  1  0.83172930  -0.01479225  0.87486931  1
  In  In32  1  0.81870466  0.32949434  0.37336836  1
  In  In33  1  0.81639023  0.33646541  0.87412798  1
  In  In34  1  0.82421486  0.67886583  0.37814076  1
  In  In35  1  0.83180111  0.68384338  0.87802840  1
  In  In36  1  0.00175844  0.16317825  0.38446542  1
  In  In37  1  0.01498856  0.16219126  0.86847291  1
  In  In38  1  -0.00556697  0.50221843  0.37591476  1
  In  In39  1  0.00261199  0.50497885  0.87514475  1
  In  In40  1  -0.00643890  0.83893876  0.38509569  1
  In  In41  1  -0.00028954  0.83771214  0.87386711  1
  In  In42  1  0.33629049  0.16493912  0.37650510  1
  In  In43  1  0.35337433  0.17483117  0.85614337  1
  In  In44  1  0.36340814  0.51825499  0.35389945  1
  In  In45  1  0.35360483  0.50020934  0.88010764  1
  In  In46  1  0.33252453  0.83892448  0.37863519  1
  In  In47  1  0.32607411  0.83238348  0.87344098  1
  In  In48  1  0.66981574  0.16010470  0.37739985  1
  In  In49  1  0.64758300  0.17232709  0.87797848  1
  In  In50  1  0.63369527  0.48036519  0.34930681  1
  In  In51  1  0.65126600  0.48302124  0.86606559  1
  In  In52  1  0.66302392  0.83559031  0.37568476  1
  In  In53  1  0.68449071  0.83728908  0.87434575  1
  In  In54  1  0.18081909  -0.00679006  0.12467524  1
  In  In55  1  0.16794597  -0.00357748  0.62511479  1
  In  In56  1  0.17555614  0.34579801  0.12339383  1
  In  In57  1  0.19763187  0.32756075  0.62777234  1
  In  In58  1  0.17773806  0.68261740  0.12192432  1
  In  In59  1  0.16627064  0.67742509  0.62316683  1
  In  In60  1  0.49105153  0.00869204  0.13032115  1
  In  In61  1  0.49273165  -0.00316786  0.62324009  1
  In  In62  1  0.50563880  0.32437622  0.12815894  1
  In  In63  1  0.49860982  0.33193503  0.61851047  1
  In  In64  1  0.51091105  0.65774412  0.14204918  1
  In  In65  1  0.51239710  0.67916387  0.61826718  1
  In  In66  1  0.83651206  -0.00583767  0.12638979  1
  In  In67  1  0.83850242  0.00710986  0.62063847  1
  In  In68  1  0.79672317  0.33156555  0.12870193  1
  In  In69  1  0.82589522  0.31266408  0.62179335  1
  In  In70  1  0.82506115  0.66891242  0.12342471  1
  In  In71  1  0.81367089  0.66831663  0.62563134  1
  In  In72  1  -0.00485376  0.32576444  0.74194700  1
  In  In73  1  0.66112979  0.00280943  0.74286212  1
  In  In74  1  0.82361707  0.16363842  -0.00065391  1
  In  In75  1  0.00557784  0.33171268  0.25583159  1
  In  In76  1  0.50155767  0.82639571  0.00370655  1
  In  In77  1  0.17485675  0.15825881  -0.00547373  1
  In  In78  1  -0.00456047  -0.00057938  0.24639381  1
  In  In79  1  0.82403583  0.50046398  0.49152336  1
  In  In80  1  -0.00723018  0.67250149  0.75552035  1
  In  In81  1  0.00488581  0.66865876  0.24330511  1
  In  In82  1  0.34007277  0.67384365  0.74680504  1
  In  In83  1  0.17755909  0.51538833  -0.00451913  1
  In  In84  1  0.82433591  0.51529500  0.01127145  1
  In  In85  1  0.17701608  0.49797643  0.50033340  1
  Cu  Cu86  1  0.33354442  0.00330858  0.50054670  1
  Cu  Cu87  1  0.17277750  0.16758781  0.25205079  1
  Cu  Cu88  1  0.83697062  0.83425227  0.74718469  1
  Cu  Cu89  1  0.66214556  0.66507817  0.49504654  1
  Cu  Cu90  1  0.66776334  0.66544704  0.00339633  1
  Cu  Cu91  1  0.66245511  0.33303703  0.49516097  1
  Cu  Cu92  1  0.17375335  0.15821419  0.74395332  1
  Cu  Cu93  1  0.00356769  0.32544071  0.50726803  1
  Cu  Cu94  1  0.34091862  0.33523161  0.49425649  1
  Cu  Cu95  1  -0.00267467  0.67070595  0.50467464  1
  Cu  Cu96  1  0.17958356  0.49606247  0.25185084  1
  Cu  Cu97  1  0.33463216  0.00022857  -0.00044216  1
  Cu  Cu98  1  0.81661394  0.49567834  0.74830995  1
  Cu  Cu99  1  -0.01218736  0.34421027  0.00279431  1
  Cu  Cu100  1  0.33959176  0.67004314  0.49594272  1
  Cu  Cu101  1  0.00082466  -0.00414283  0.50135181  1
  Cu  Cu102  1  0.17269764  0.50179186  0.75747554  1
  Cu  Cu103  1  0.66411931  0.00241136  -0.00046276  1
  Cu  Cu104  1  0.34330981  0.32832552  0.00159025  1
  Cu  Cu105  1  0.66637251  -0.00298790  0.50176163  1
  Cu  Cu106  1  0.00651107  -0.00387500  -0.00634931  1
  Cu  Cu107  1  0.82329620  0.83849182  0.25344480  1
  Cu  Cu108  1  0.16795860  0.83422329  0.25437072  1
  Cu  Cu109  1  0.50050120  0.16272928  0.25831970  1
  Cu  Cu110  1  0.50116559  0.49268536  0.75049773  1
  Cu  Cu111  1  0.49502212  0.84019250  0.25379613  1
  Cu  Cu112  1  0.82922156  0.49946347  0.24536686  1
  Cu  Cu113  1  0.33727847  0.66303513  0.00680398  1
  Cu  Cu114  1  0.82542929  0.16163706  0.74802970  1
  Se  Se115  1  0.07862865  0.07656065  0.05968174  1
  Se  Se116  1  0.08608987  0.07940703  0.55316739  1
  Se  Se117  1  0.07856947  0.42221319  0.05500304  1
  Se  Se118  1  0.08552695  0.40934330  0.56365191  1
  Se  Se119  1  0.09311029  0.75051699  0.04964927  1
  Se  Se120  1  0.08544700  0.75410202  0.55193344  1
  Se  Se121  1  0.41626840  0.08441812  0.05238822  1
  Se  Se122  1  0.42243112  0.08453751  0.55011565  1
  Se  Se123  1  0.42250064  0.41123080  0.05852172  1
  Se  Se124  1  0.42287769  0.42098957  0.54606424  1
  Se  Se125  1  0.41512500  0.74304963  0.06982670  1
  Se  Se126  1  0.41740825  0.75333082  0.55417395  1
  Se  Se127  1  0.73995501  0.07925969  0.06561296  1
  Se  Se128  1  0.74860998  0.08405252  0.55371130  1
  Se  Se129  1  0.72852733  0.41620498  0.05316838  1
  Se  Se130  1  0.74287416  0.41212747  0.55955889  1
  Se  Se131  1  0.75046282  0.75389364  0.05165244  1
  Se  Se132  1  0.74715169  0.74823195  0.54772227  1
  Se  Se133  1  0.25701770  0.25099673  0.05977337  1
  Se  Se134  1  0.25192876  0.25246882  0.54296191  1
  Se  Se135  1  0.26559451  0.57820686  0.07156830  1
  Se  Se136  1  0.26355709  0.59075750  0.56272718  1
  Se  Se137  1  0.25208636  0.91348342  0.04925847  1
  Se  Se138  1  0.25168788  0.91685120  0.55334614  1
  Se  Se139  1  0.58661921  0.23911558  0.05969626  1
  Se  Se140  1  0.58289795  0.24821460  0.55067914  1
  Se  Se141  1  0.58069703  0.59008750  0.05839081  1
  Se  Se142  1  0.57865058  0.58187050  0.54883761  1
  Se  Se143  1  0.58524768  0.92276070  0.06260568  1
  Se  Se144  1  0.58046360  0.91690984  0.55512981  1
  Se  Se145  1  0.90990857  0.26218261  0.06189477  1
  Se  Se146  1  0.91634435  0.24079360  0.55464156  1
  Se  Se147  1  0.92982347  0.60580781  0.05465749  1
  Se  Se148  1  0.91678497  0.58537486  0.55893305  1
  Se  Se149  1  0.91927128  0.92257652  0.05171316  1
  Se  Se150  1  0.91071192  0.91486362  0.55145029  1
  Se  Se151  1  0.08746193  0.24573097  0.45137319  1
  Se  Se152  1  0.07164771  0.25793892  0.94807188  1
  Se  Se153  1  0.07817873  0.58933930  0.44450105  1
  Se  Se154  1  0.07211564  0.59929882  0.94419342  1
  Se  Se155  1  0.08673209  0.91278340  0.44995997  1
  Se  Se156  1  0.09128372  0.92138758  0.93627923  1
  Se  Se157  1  0.42163276  0.24511940  0.44594929  1
  Se  Se158  1  0.41691224  0.24473516  0.94138791  1
  Se  Se159  1  0.41962874  0.58572903  0.44217512  1
  Se  Se160  1  0.42285202  0.57791709  0.95851743  1
  Se  Se161  1  0.41664104  0.91950442  0.44785332  1
  Se  Se162  1  0.41731613  0.91899396  0.94137978  1
  Se  Se163  1  0.75058355  0.24776304  0.44890171  1
  Se  Se164  1  0.73308725  0.26133976  0.94810635  1
  Se  Se165  1  0.73167003  0.58150209  0.42970182  1
  Se  Se166  1  0.74070084  0.58710115  0.93492674  1
  Se  Se167  1  0.74899281  0.91107140  0.44920618  1
  Se  Se168  1  0.75146869  0.91777974  0.95302657  1
  Se  Se169  1  0.24947086  0.08712644  0.44735039  1
  Se  Se170  1  0.26295627  0.07717759  0.92973688  1
  Se  Se171  1  0.26541016  0.42093911  0.43230905  1
  Se  Se172  1  0.25687871  0.40611249  0.94258410  1
  Se  Se173  1  0.25024479  0.75485184  0.45092012  1
  Se  Se174  1  0.26011362  0.74840267  0.95161684  1
  Se  Se175  1  0.58523727  0.08257740  0.44872727  1
  Se  Se176  1  0.57750668  0.08241132  0.94848712  1
  Se  Se177  1  0.58186955  0.41790356  0.44137873  1
  Se  Se178  1  0.56909431  0.42608918  0.94485331  1
  Se  Se179  1  0.57957217  0.75457702  0.44629462  1
  Se  Se180  1  0.59170428  0.74417520  0.93789604  1
  Se  Se181  1  0.91651132  0.08144993  0.45041397  1
  Se  Se182  1  0.92548564  0.08189353  0.93804495  1
  Se  Se183  1  0.92482712  0.40384004  0.44376451  1
  Se  Se184  1  0.91069163  0.42109544  0.94079559  1
  Se  Se185  1  0.91195621  0.74916157  0.44928834  1
  Se  Se186  1  0.92119005  0.75547191  0.94421430  1
  Se  Se187  1  0.25667852  0.25021836  0.30407842  1
  Se  Se188  1  0.25032326  0.24865774  0.79716381  1
  Se  Se189  1  0.25338470  0.59007711  0.30120389  1
  Se  Se190  1  0.25155252  0.58382312  0.81597807  1
  Se  Se191  1  0.24764351  0.92001276  0.30733238  1
  Se  Se192  1  0.26920477  0.91952387  0.79677398  1
  Se  Se193  1  0.58647288  0.24527076  0.30949924  1
  Se  Se194  1  0.57825714  0.24896975  0.80200909  1
  Se  Se195  1  0.57892518  0.59486737  0.29715637  1
  Se  Se196  1  0.58068132  0.58193685  0.80169774  1
  Se  Se197  1  0.58217799  0.92012338  0.30692226  1
  Se  Se198  1  0.58450071  0.90876375  0.80995086  1
  Se  Se199  1  0.91457951  0.24181367  0.31211652  1
  Se  Se200  1  0.90660147  0.24193427  0.81093582  1
  Se  Se201  1  0.90893401  0.58235029  0.30491010  1
  Se  Se202  1  0.90153240  0.57272354  0.80801471  1
  Se  Se203  1  0.90798738  0.91458340  0.31206830  1
  Se  Se204  1  0.91843973  0.91751386  0.80114028  1
  Se  Se205  1  0.08796712  0.08729667  0.30795170  1
  Se  Se206  1  0.08417367  0.07944192  0.79485974  1
  Se  Se207  1  0.09653421  0.42388709  0.31594316  1
  Se  Se208  1  0.08620104  0.41594439  0.80805768  1
  Se  Se209  1  0.08517751  0.75579966  0.31354610  1
  Se  Se210  1  0.09484032  0.75941488  0.80386188  1
  Se  Se211  1  0.41425956  0.07825802  0.30737232  1
  Se  Se212  1  0.41146008  0.06722246  0.79559816  1
  Se  Se213  1  0.42673364  0.41171299  0.29748646  1
  Se  Se214  1  0.41315238  0.41436055  0.80338418  1
  Se  Se215  1  0.41275850  0.75672128  0.30777954  1
  Se  Se216  1  0.43012127  0.75310446  0.81394031  1
  Se  Se217  1  0.74888678  0.07917800  0.30458400  1
  Se  Se218  1  0.74927611  0.08529733  0.81489377  1
  Se  Se219  1  0.74987626  0.41495448  0.29981002  1
  Se  Se220  1  0.73819529  0.40446202  0.79663686  1
  Se  Se221  1  0.74293780  0.74977669  0.30362441  1
  Se  Se222  1  0.75267240  0.75076201  0.79906896  1
  Se  Se223  1  0.24961035  0.07791342  0.19841548  1
  Se  Se224  1  0.25788960  0.08251712  0.68687569  1
  Se  Se225  1  0.25657746  0.40391506  0.20315641  1
  Se  Se226  1  0.25452095  0.42026611  0.70232771  1
  Se  Se227  1  0.25246910  0.75127192  0.20164278  1
  Se  Se228  1  0.24366277  0.76254848  0.69365879  1
  Se  Se229  1  0.58045923  0.07536185  0.20403684  1
  Se  Se230  1  0.56813715  0.09591559  0.69121071  1
  Se  Se231  1  0.58074036  0.41295821  0.19859220  1
  Se  Se232  1  0.58140676  0.41032571  0.69268073  1
  Se  Se233  1  0.58238633  0.75962566  0.20098115  1
  Se  Se234  1  0.59155857  0.74226802  0.69724179  1
  Se  Se235  1  0.90017695  0.09642114  0.19807003  1
  Se  Se236  1  0.91417970  0.08016073  0.69964399  1
  Se  Se237  1  0.91105668  0.41536294  0.18921966  1
  Se  Se238  1  0.90268600  0.42288744  0.68699791  1
  Se  Se239  1  0.90865166  0.76336137  0.19179151  1
  Se  Se240  1  0.91409131  0.75483932  0.68242552  1
  Se  Se241  1  0.09277008  0.24296867  0.18760040  1
  Se  Se242  1  0.09238659  0.24293885  0.68418383  1
  Se  Se243  1  0.09741345  0.57306867  0.19004021  1
  Se  Se244  1  0.09346976  0.58135255  0.69772904  1
  Se  Se245  1  0.08571542  0.90524168  0.18906958  1
  Se  Se246  1  0.08058764  0.92273673  0.69681408  1
  Se  Se247  1  0.41971418  0.24447061  0.19946540  1
  Se  Se248  1  0.39150796  0.27314229  0.68117090  1
  Se  Se249  1  0.40622420  0.59451723  0.20274053  1
  Se  Se250  1  0.42525370  0.57772309  0.68802222  1
  Se  Se251  1  0.41141566  0.92138210  0.19773595  1
  Se  Se252  1  0.42825694  0.90780369  0.69737976  1
  Se  Se253  1  0.75292311  0.24617698  0.20956771  1
  Se  Se254  1  0.74262483  0.24632399  0.69748268  1
  Se  Se255  1  0.74825733  0.58587209  0.19300068  1
  Se  Se256  1  0.73913701  0.58423378  0.69609967  1
  Se  Se257  1  0.74661268  0.92101459  0.19517736  1
  Se  Se258  1  0.75380261  0.91193120  0.68524474  1
