# generated using pymatgen
data_In86Cu29Se144
_symmetry_space_group_name_H-M   'P 1'
_cell_length_a   17.56844604
_cell_length_b   17.56662614
_cell_length_c   23.42556171
_cell_angle_alpha   90.00264054
_cell_angle_beta   90.00431262
_cell_angle_gamma   89.98102519
_symmetry_Int_Tables_number   1
_chemical_formula_structural   In86Cu29Se144
_chemical_formula_sum   'In86 Cu29 Se144'
_cell_volume   7229.55715718
_cell_formula_units_Z   1
loop_
 _symmetry_equiv_pos_site_id
 _symmetry_equiv_pos_as_xyz
  1  'x, y, z'
loop_
 _atom_site_type_symbol
 _atom_site_label
 _atom_site_symmetry_multiplicity
 _atom_site_fract_x
 _atom_site_fract_y
 _atom_site_fract_z
 _atom_site_occupancy
  In  In0  1  -0.01408669  0.15891511  0.10701629  1
  In  In1  1  -0.00671878  0.17623300  0.63485343  1
  In  In2  1  -0.00450328  0.48728546  0.12371943  1
  In  In3  1  -0.00730858  0.50816313  0.63481660  1
  In  In4  1  0.00679028  0.85152788  0.12370074  1
  In  In5  1  -0.00173243  0.83561307  0.62599507  1
  In  In6  1  0.33429057  0.17287935  0.11153164  1
  In  In7  1  0.33564106  0.16379329  0.63616551  1
  In  In8  1  0.34289544  0.49189899  0.12916003  1
  In  In9  1  0.33689084  0.49608065  0.62607016  1
  In  In10  1  0.32318488  0.82579419  0.12786341  1
  In  In11  1  0.33252656  0.83508083  0.63290140  1
  In  In12  1  0.65344122  0.15475042  0.10445682  1
  In  In13  1  0.67000816  0.15088054  0.63101186  1
  In  In14  1  0.65064782  0.50696637  0.12130847  1
  In  In15  1  0.67363860  0.50553103  0.62301319  1
  In  In16  1  0.68713323  0.83824846  0.11718331  1
  In  In17  1  0.67458289  0.82518552  0.63553841  1
  In  In18  1  0.14976149  0.00469823  0.37652134  1
  In  In19  1  0.17249230  0.01674506  0.86990799  1
  In  In20  1  0.17431440  0.31615685  0.36622724  1
  In  In21  1  0.15776584  0.32314858  0.87518919  1
  In  In22  1  0.18809598  0.66674246  0.38437737  1
  In  In23  1  0.17202438  0.66902455  0.86321327  1
  In  In24  1  0.50775541  -0.01019655  0.36829517  1
  In  In25  1  0.51715229  0.01244152  0.86183255  1
  In  In26  1  0.49657664  0.34630795  0.37606857  1
  In  In27  1  0.49898819  0.34152864  0.89241072  1
  In  In28  1  0.48513048  0.66163604  0.37849321  1
  In  In29  1  0.49438081  0.66414776  0.86115851  1
  In  In30  1  0.84020511  -0.00366362  0.37628698  1
  In  In31  1  0.82726825  -0.00557420  0.87444847  1
  In  In32  1  0.83193387  0.33085991  0.38723633  1
  In  In33  1  0.83839673  0.31854895  0.88307896  1
  In  In34  1  0.82866371  0.66867380  0.38722373  1
  In  In35  1  0.84245601  0.67980110  0.86286582  1
  In  In36  1  0.00341256  0.14945773  0.37263879  1
  In  In37  1  0.00004229  0.16507893  0.87472970  1
  In  In38  1  -0.00768600  0.48921550  0.38017717  1
  In  In39  1  0.00141242  0.50382882  0.86326112  1
  In  In40  1  -0.00958044  0.84153757  0.38675998  1
  In  In41  1  -0.01053619  0.83026737  0.86750070  1
  In  In42  1  0.31733335  0.17512652  0.36657950  1
  In  In43  1  0.33487737  0.17614806  0.88217969  1
  In  In44  1  0.33845236  0.50190228  0.37239342  1
  In  In45  1  0.34481206  0.50327769  0.86913000  1
  In  In46  1  0.34216452  0.82146622  0.38160562  1
  In  In47  1  0.34168371  0.83488711  0.85477755  1
  In  In48  1  0.68100058  0.16508866  0.37242567  1
  In  In49  1  0.68084703  0.15131062  0.89598123  1
  In  In50  1  0.65823128  0.50175878  0.38875688  1
  In  In51  1  0.65308080  0.49697756  0.87482823  1
  In  In52  1  0.67072443  0.84728353  0.37233719  1
  In  In53  1  0.68047386  0.85488561  0.85711406  1
  In  In54  1  0.15444149  -0.00057967  0.12728924  1
  In  In55  1  0.17257395  -0.01147132  0.63355412  1
  In  In56  1  0.17650312  0.33345453  0.11740219  1
  In  In57  1  0.17239637  0.32797764  0.63583486  1
  In  In58  1  0.17449885  0.68038660  0.12881698  1
  In  In59  1  0.15833133  0.67086518  0.62822563  1
  In  In60  1  0.50184354  0.01314692  0.12335649  1
  In  In61  1  0.50999889  -0.02100801  0.65282245  1
  In  In62  1  0.47332958  0.30768750  0.08539745  1
  In  In63  1  0.48491151  0.33722719  0.62977600  1
  In  In64  1  0.49314230  0.65511417  0.11866775  1
  In  In65  1  0.50909850  0.66747977  0.63701309  1
  In  In66  1  0.83411689  0.00557607  0.12380321  1
  In  In67  1  0.83450979  0.00236523  0.62617325  1
  In  In68  1  0.83720952  0.30464707  0.11751562  1
  In  In69  1  0.83805373  0.33719191  0.62474664  1
  In  In70  1  0.81650213  0.66643420  0.11986743  1
  In  In71  1  0.83239182  0.66805793  0.62648482  1
  In  In72  1  0.00826857  0.32310494  0.24446503  1
  In  In73  1  0.16532899  0.83608429  -0.00324739  1
  In  In74  1  0.50085798  0.16461144  0.50708955  1
  In  In75  1  0.16089180  0.16316678  0.49622709  1
  In  In76  1  0.66470684  0.32650478  0.76794401  1
  In  In77  1  0.00442323  0.67195511  0.25271813  1
  In  In78  1  0.65880634  0.33299837  0.24080868  1
  In  In79  1  0.65774972  0.67489408  0.25622750  1
  In  In80  1  0.17380002  0.49850646  -0.00309179  1
  In  In81  1  0.33836192  0.00250459  0.24848238  1
  In  In82  1  0.50679430  0.84113560  -0.01335166  1
  In  In83  1  0.82531229  0.49347593  -0.00685291  1
  In  In84  1  0.50791429  0.82468291  0.51027815  1
  In  In85  1  0.15679341  0.50061152  0.50364596  1
  Cu  Cu86  1  0.82636420  0.49344938  0.25642760  1
  Cu  Cu87  1  0.84007185  0.15419021  0.24964432  1
  Cu  Cu88  1  0.67635274  -0.00133032  0.50097603  1
  Cu  Cu89  1  0.84560006  0.84359955  0.24639963  1
  Cu  Cu90  1  0.33696343  -0.00263389  0.51088425  1
  Cu  Cu91  1  0.83322174  0.83767859  0.74423598  1
  Cu  Cu92  1  0.83025697  0.16114222  0.75667100  1
  Cu  Cu93  1  0.66657417  0.33381879  0.50545842  1
  Cu  Cu94  1  0.15606714  0.83175415  0.74876924  1
  Cu  Cu95  1  0.83145103  0.50348451  0.74713687  1
  Cu  Cu96  1  -0.00957449  0.66797041  -0.00769215  1
  Cu  Cu97  1  0.33319249  0.00733605  -0.00545145  1
  Cu  Cu98  1  0.66494479  0.67401628  -0.00863338  1
  Cu  Cu99  1  0.33231328  0.33641511  0.50111348  1
  Cu  Cu100  1  0.17622103  0.49371827  0.75056693  1
  Cu  Cu101  1  0.49572165  0.16821712  0.75991499  1
  Cu  Cu102  1  -0.00526563  0.66990887  0.50899589  1
  Cu  Cu103  1  -0.00912998  -0.00091588  -0.00507914  1
  Cu  Cu104  1  0.66599750  0.66799120  0.50762926  1
  Cu  Cu105  1  -0.00919964  0.33337778  0.50543798  1
  Cu  Cu106  1  0.50366378  0.49284842  0.75070995  1
  Cu  Cu107  1  0.17412492  0.50349824  0.24916898  1
  Cu  Cu108  1  0.16555107  0.16518938  0.75546929  1
  Cu  Cu109  1  0.34002088  0.66502416  -0.00890449  1
  Cu  Cu110  1  0.17253947  0.83380103  0.25599908  1
  Cu  Cu111  1  0.48506236  0.49566604  0.24708808  1
  Cu  Cu112  1  0.50149666  0.17503337  0.23688731  1
  Cu  Cu113  1  0.50749806  0.82955346  0.24929122  1
  Cu  Cu114  1  -0.00298025  0.00088018  0.50455234  1
  Se  Se115  1  0.08205107  0.07358961  0.04945167  1
  Se  Se116  1  0.07921000  0.07999251  0.56543211  1
  Se  Se117  1  0.07554909  0.40917695  0.05095045  1
  Se  Se118  1  0.07638876  0.40560306  0.56662545  1
  Se  Se119  1  0.07386736  0.74318149  0.05616467  1
  Se  Se120  1  0.08244536  0.75329860  0.55570080  1
  Se  Se121  1  0.42087580  0.08437093  0.04885346  1
  Se  Se122  1  0.42066432  0.07135756  0.57110760  1
  Se  Se123  1  0.41748269  0.43320056  0.04680746  1
  Se  Se124  1  0.41814388  0.41794350  0.55160569  1
  Se  Se125  1  0.41267677  0.75354418  0.05181330  1
  Se  Se126  1  0.41127139  0.74017376  0.56488817  1
  Se  Se127  1  0.77176366  0.10206943  0.05395402  1
  Se  Se128  1  0.75388351  0.08714039  0.55400246  1
  Se  Se129  1  0.75073677  0.41708647  0.07063695  1
  Se  Se130  1  0.75233535  0.41735020  0.55635075  1
  Se  Se131  1  0.75433720  0.75134281  0.04288428  1
  Se  Se132  1  0.74964027  0.75318855  0.55721716  1
  Se  Se133  1  0.25276342  0.25670737  0.04398380  1
  Se  Se134  1  0.25563686  0.24919811  0.55830046  1
  Se  Se135  1  0.25704798  0.59624690  0.05761693  1
  Se  Se136  1  0.25034234  0.58631393  0.56079570  1
  Se  Se137  1  0.25817058  0.92483366  0.05757918  1
  Se  Se138  1  0.25025991  0.91245719  0.55784266  1
  Se  Se139  1  0.60433449  0.26867839  0.04587052  1
  Se  Se140  1  0.58887049  0.25537156  0.56904115  1
  Se  Se141  1  0.58351085  0.59144161  0.04527427  1
  Se  Se142  1  0.58113314  0.58656473  0.56009661  1
  Se  Se143  1  0.58908169  0.92296954  0.05806300  1
  Se  Se144  1  0.59201694  0.92580713  0.56436737  1
  Se  Se145  1  0.92305673  0.25542937  0.03781915  1
  Se  Se146  1  0.91179763  0.24414943  0.55667510  1
  Se  Se147  1  0.91813159  0.58597012  0.05693148  1
  Se  Se148  1  0.91421458  0.58046749  0.55804555  1
  Se  Se149  1  0.91434068  0.91643634  0.05420216  1
  Se  Se150  1  0.91304056  0.91631015  0.55635715  1
  Se  Se151  1  0.07127867  0.26055922  0.43961892  1
  Se  Se152  1  0.08594350  0.23844568  0.94705066  1
  Se  Se153  1  0.07038386  0.59388845  0.43999132  1
  Se  Se154  1  0.08050634  0.59273858  0.93831115  1
  Se  Se155  1  0.08410858  0.91988087  0.45182379  1
  Se  Se156  1  0.07698054  0.92235531  0.93465267  1
  Se  Se157  1  0.40888001  0.24935082  0.44195764  1
  Se  Se158  1  0.42323804  0.24649618  0.95530992  1
  Se  Se159  1  0.41277703  0.57709110  0.44837269  1
  Se  Se160  1  0.42606258  0.58384552  0.94074959  1
  Se  Se161  1  0.42205545  0.92281024  0.44808683  1
  Se  Se162  1  0.40560456  0.92422691  0.93261449  1
  Se  Se163  1  0.74484987  0.24682750  0.45106739  1
  Se  Se164  1  0.73251408  0.26960378  0.94910707  1
  Se  Se165  1  0.74813935  0.58166911  0.45242743  1
  Se  Se166  1  0.74841513  0.59393718  0.93194551  1
  Se  Se167  1  0.75611496  0.91325133  0.44659713  1
  Se  Se168  1  0.74004647  0.91763529  0.94434394  1
  Se  Se169  1  0.26251509  0.07510523  0.44263342  1
  Se  Se170  1  0.24496233  0.09142837  0.94802247  1
  Se  Se171  1  0.24455084  0.40787638  0.44061124  1
  Se  Se172  1  0.25834024  0.41120773  0.93381795  1
  Se  Se173  1  0.25549744  0.75606214  0.45442643  1
  Se  Se174  1  0.25871218  0.75010457  0.93602956  1
  Se  Se175  1  0.58942537  0.07548886  0.44194999  1
  Se  Se176  1  0.58521339  0.06528993  0.94981131  1
  Se  Se177  1  0.57733266  0.41299871  0.45382031  1
  Se  Se178  1  0.59297248  0.41984181  0.95511373  1
  Se  Se179  1  0.59292383  0.74351868  0.43645319  1
  Se  Se180  1  0.58975797  0.74876492  0.92549680  1
  Se  Se181  1  0.91740935  0.08420946  0.44729553  1
  Se  Se182  1  0.91090859  0.08233252  0.94024322  1
  Se  Se183  1  0.90835908  0.42160492  0.45477803  1
  Se  Se184  1  0.93018998  0.41541692  0.93890194  1
  Se  Se185  1  0.91144267  0.75308389  0.45295392  1
  Se  Se186  1  0.90965824  0.75661453  0.94395631  1
  Se  Se187  1  0.25069489  0.25038894  0.28739127  1
  Se  Se188  1  0.25074924  0.24975604  0.80692110  1
  Se  Se189  1  0.25274021  0.58615591  0.30550825  1
  Se  Se190  1  0.25732817  0.58192982  0.80100063  1
  Se  Se191  1  0.25311324  0.91606328  0.31581163  1
  Se  Se192  1  0.23704783  0.91439937  0.80476551  1
  Se  Se193  1  0.57595938  0.24499140  0.31154888  1
  Se  Se194  1  0.57630224  0.23717925  0.82607876  1
  Se  Se195  1  0.57253637  0.57023117  0.30783569  1
  Se  Se196  1  0.58742706  0.58108113  0.79855252  1
  Se  Se197  1  0.59133683  0.91832387  0.29469601  1
  Se  Se198  1  0.56173256  0.89941632  0.79976224  1
  Se  Se199  1  0.90996154  0.24544460  0.31060639  1
  Se  Se200  1  0.91504086  0.24870025  0.80471127  1
  Se  Se201  1  0.90886778  0.57805810  0.30987638  1
  Se  Se202  1  0.91929478  0.58804216  0.79649369  1
  Se  Se203  1  0.92921116  0.92043055  0.30479801  1
  Se  Se204  1  0.91340964  0.92102530  0.80048480  1
  Se  Se205  1  0.10625981  0.10397456  0.30305754  1
  Se  Se206  1  0.07567447  0.08083410  0.80102886  1
  Se  Se207  1  0.08976163  0.42347590  0.30763561  1
  Se  Se208  1  0.08815127  0.41522400  0.80358968  1
  Se  Se209  1  0.09129134  0.75525990  0.31876514  1
  Se  Se210  1  0.07523168  0.74519467  0.80220877  1
  Se  Se211  1  0.42929870  0.09565746  0.30825962  1
  Se  Se212  1  0.40854894  0.08542094  0.81049358  1
  Se  Se213  1  0.40675839  0.40867011  0.30176403  1
  Se  Se214  1  0.42754240  0.40843817  0.80861546  1
  Se  Se215  1  0.42288159  0.75205813  0.30426767  1
  Se  Se216  1  0.40452178  0.73472486  0.79146130  1
  Se  Se217  1  0.75423204  0.07516223  0.30493491  1
  Se  Se218  1  0.74149790  0.08318562  0.80863082  1
  Se  Se219  1  0.74438052  0.41598709  0.31513798  1
  Se  Se220  1  0.76191631  0.42360272  0.81493244  1
  Se  Se221  1  0.76520723  0.75921089  0.30627247  1
  Se  Se222  1  0.74814090  0.75137687  0.79564953  1
  Se  Se223  1  0.25155775  0.08671544  0.18413830  1
  Se  Se224  1  0.24695619  0.08242004  0.69971762  1
  Se  Se225  1  0.24776534  0.41640001  0.19275258  1
  Se  Se226  1  0.26111652  0.41111035  0.69780447  1
  Se  Se227  1  0.25579949  0.74698517  0.20676676  1
  Se  Se228  1  0.24374835  0.75027347  0.69723181  1
  Se  Se229  1  0.58945266  0.08960525  0.19208879  1
  Se  Se230  1  0.58232222  0.08687554  0.70585979  1
  Se  Se231  1  0.56406087  0.41898961  0.18420795  1
  Se  Se232  1  0.58817786  0.41283109  0.69291260  1
  Se  Se233  1  0.58136551  0.75418013  0.17968789  1
  Se  Se234  1  0.56568944  0.77489579  0.69961055  1
  Se  Se235  1  0.92732564  0.08093758  0.19205725  1
  Se  Se236  1  0.91424726  0.08408324  0.69853995  1
  Se  Se237  1  0.90275032  0.41197480  0.19405762  1
  Se  Se238  1  0.91549785  0.41411915  0.69923890  1
  Se  Se239  1  0.91245196  0.75256675  0.18519530  1
  Se  Se240  1  0.91672932  0.75029150  0.69452719  1
  Se  Se241  1  0.08571372  0.23864892  0.17542541  1
  Se  Se242  1  0.08312785  0.25195376  0.70240233  1
  Se  Se243  1  0.08855416  0.57686455  0.18752747  1
  Se  Se244  1  0.09052841  0.57754493  0.69845463  1
  Se  Se245  1  0.08756461  0.91457279  0.20336383  1
  Se  Se246  1  0.07430602  0.92001216  0.69872614  1
  Se  Se247  1  0.41966831  0.25466920  0.18123676  1
  Se  Se248  1  0.41628393  0.25118956  0.70294430  1
  Se  Se249  1  0.41004762  0.59087553  0.19658778  1
  Se  Se250  1  0.42163183  0.57549722  0.69575047  1
  Se  Se251  1  0.42536541  0.90799202  0.18722832  1
  Se  Se252  1  0.39173828  0.93202520  0.70429289  1
  Se  Se253  1  0.75340653  0.23462917  0.19408291  1
  Se  Se254  1  0.75240178  0.24666980  0.69691516  1
  Se  Se255  1  0.74774420  0.57671211  0.19737444  1
  Se  Se256  1  0.74701641  0.58736626  0.69681497  1
  Se  Se257  1  0.75386387  0.91960775  0.19458657  1
  Se  Se258  1  0.74708001  0.92548689  0.69661453  1
