# generated using pymatgen
data_In86Cu29Se144
_symmetry_space_group_name_H-M   'P 1'
_cell_length_a   17.56503518
_cell_length_b   17.56858186
_cell_length_c   23.42361167
_cell_angle_alpha   90.00620650
_cell_angle_beta   90.00011901
_cell_angle_gamma   90.00147143
_symmetry_Int_Tables_number   1
_chemical_formula_structural   In86Cu29Se144
_chemical_formula_sum   'In86 Cu29 Se144'
_cell_volume   7228.35689438
_cell_formula_units_Z   1
loop_
 _symmetry_equiv_pos_site_id
 _symmetry_equiv_pos_as_xyz
  1  'x, y, z'
loop_
 _atom_site_type_symbol
 _atom_site_label
 _atom_site_symmetry_multiplicity
 _atom_site_fract_x
 _atom_site_fract_y
 _atom_site_fract_z
 _atom_site_occupancy
  In  In0  1  0.00261955  0.16852087  0.11416087  1
  In  In1  1  0.00445053  0.17743816  0.62458453  1
  In  In2  1  0.00856649  0.49792599  0.12247511  1
  In  In3  1  -0.01425820  0.49714174  0.62271607  1
  In  In4  1  -0.01400460  0.83914727  0.13222970  1
  In  In5  1  -0.00844668  0.84391228  0.62057841  1
  In  In6  1  0.32065467  0.18551115  0.15403830  1
  In  In7  1  0.35003697  0.15744948  0.63149262  1
  In  In8  1  0.33390289  0.49955076  0.12483644  1
  In  In9  1  0.33444312  0.48667719  0.62572218  1
  In  In10  1  0.32736193  0.83369432  0.13920679  1
  In  In11  1  0.35381378  0.85488618  0.60740148  1
  In  In12  1  0.67028521  0.15235444  0.13092601  1
  In  In13  1  0.66321381  0.16494947  0.62147615  1
  In  In14  1  0.66728467  0.51448465  0.12471030  1
  In  In15  1  0.65711363  0.49028253  0.61525092  1
  In  In16  1  0.67592449  0.84003458  0.13930870  1
  In  In17  1  0.66522225  0.83909429  0.62085458  1
  In  In18  1  0.18329187  0.00265471  0.36387978  1
  In  In19  1  0.18589724  0.00162311  0.87844769  1
  In  In20  1  0.18768495  0.32345933  0.37012743  1
  In  In21  1  0.16803837  0.33101904  0.87842484  1
  In  In22  1  0.17442621  0.68985561  0.34686797  1
  In  In23  1  0.15325283  0.66022468  0.88360353  1
  In  In24  1  0.49084970  -0.00092306  0.37837555  1
  In  In25  1  0.50757446  0.00087639  0.85973202  1
  In  In26  1  0.49422873  0.34073947  0.38143016  1
  In  In27  1  0.50412190  0.33818331  0.86820102  1
  In  In28  1  0.50794272  0.66661238  0.37375799  1
  In  In29  1  0.48957982  0.66413552  0.87851507  1
  In  In30  1  0.81731385  0.01086260  0.37408003  1
  In  In31  1  0.82479416  0.00715321  0.88031753  1
  In  In32  1  0.83650698  0.32852281  0.38403804  1
  In  In33  1  0.81812553  0.31318962  0.86571072  1
  In  In34  1  0.82814460  0.67163707  0.37061351  1
  In  In35  1  0.84326828  0.66669296  0.88192925  1
  In  In36  1  -0.00263043  0.15856198  0.37206922  1
  In  In37  1  -0.00767900  0.17323051  0.88032384  1
  In  In38  1  -0.01047469  0.50262166  0.38004445  1
  In  In39  1  0.01053209  0.49819935  0.88060461  1
  In  In40  1  -0.00398185  0.82367730  0.36851111  1
  In  In41  1  -0.00646211  0.81981822  0.87990116  1
  In  In42  1  0.34372150  0.17552474  0.35922787  1
  In  In43  1  0.33194520  0.16171995  0.87464835  1
  In  In44  1  0.34247418  0.50861492  0.36805515  1
  In  In45  1  0.34073899  0.48868235  0.88519963  1
  In  In46  1  0.35499353  0.85011643  0.35919507  1
  In  In47  1  0.33624047  0.84115941  0.87306948  1
  In  In48  1  0.67247860  0.15097630  0.37510781  1
  In  In49  1  0.66602248  0.16516823  0.86865866  1
  In  In50  1  0.65778976  0.50477479  0.38165681  1
  In  In51  1  0.66763965  0.48802773  0.87470899  1
  In  In52  1  0.66836306  0.83474845  0.37358208  1
  In  In53  1  0.66594174  0.85026006  0.87441934  1
  In  In54  1  0.17537171  0.01981030  0.12970142  1
  In  In55  1  0.17778668  0.01741917  0.62386875  1
  In  In56  1  0.17092977  0.34103358  0.11681698  1
  In  In57  1  0.17432810  0.32283152  0.63918526  1
  In  In58  1  0.17678114  0.65755996  0.13799622  1
  In  In59  1  0.16994152  0.66526264  0.62507485  1
  In  In60  1  0.50500096  0.01242114  0.14256419  1
  In  In61  1  0.49530860  0.00522016  0.62117996  1
  In  In62  1  0.47836287  0.32900955  0.12816393  1
  In  In63  1  0.50270948  0.33260395  0.62384607  1
  In  In64  1  0.50356788  0.66435272  0.13258563  1
  In  In65  1  0.50696785  0.67309983  0.61226748  1
  In  In66  1  0.82966133  -0.00065905  0.12444517  1
  In  In67  1  0.81788699  -0.01094442  0.61307380  1
  In  In68  1  0.84045306  0.32960050  0.11984956  1
  In  In69  1  0.83076205  0.32723691  0.62340895  1
  In  In70  1  0.81858881  0.69121009  0.14985126  1
  In  In71  1  0.82761723  0.66346118  0.61295986  1
  In  In72  1  0.16226683  0.83261722  0.00195873  1
  In  In73  1  0.16426564  0.16668408  0.49369277  1
  In  In74  1  0.84020361  0.49987845  0.00240771  1
  In  In75  1  0.50117228  0.16642354  0.00692819  1
  In  In76  1  0.50328907  0.83096251  0.00495911  1
  In  In77  1  0.00390063  0.33531683  0.25169602  1
  In  In78  1  0.00327453  0.00001881  0.25084481  1
  In  In79  1  0.00284065  0.66317211  0.75548280  1
  In  In80  1  -0.00050024  0.00401989  0.74897807  1
  In  In81  1  0.16065197  0.83177835  0.48716567  1
  In  In82  1  0.66342945  0.33174938  0.25158402  1
  In  In83  1  0.15910970  0.50347049  0.49758825  1
  In  In84  1  0.33436109  0.66999861  0.75284181  1
  In  In85  1  0.66820999  0.66833974  0.73933485  1
  Cu  Cu86  1  0.32942263  0.33314720  0.00422915  1
  Cu  Cu87  1  0.66023483  0.32966031  -0.00645985  1
  Cu  Cu88  1  0.34187422  0.66570247  0.49037583  1
  Cu  Cu89  1  0.66672138  0.32699610  0.49996058  1
  Cu  Cu90  1  0.17021531  0.17340162  0.75477700  1
  Cu  Cu91  1  -0.00680381  0.66890180  0.01053316  1
  Cu  Cu92  1  0.67058786  0.67178785  0.49314639  1
  Cu  Cu93  1  -0.00130364  0.00060502  0.00530755  1
  Cu  Cu94  1  0.83250151  0.48271569  0.74777897  1
  Cu  Cu95  1  0.50094951  0.17221524  0.74456527  1
  Cu  Cu96  1  0.34000655  0.33057645  0.50194392  1
  Cu  Cu97  1  0.82807064  0.16120088  0.74562416  1
  Cu  Cu98  1  -0.00485623  0.66687727  0.49147390  1
  Cu  Cu99  1  0.16858210  0.49129779  0.75716080  1
  Cu  Cu100  1  0.49572008  0.49790395  0.25238584  1
  Cu  Cu101  1  -0.00338027  0.33550638  0.50363947  1
  Cu  Cu102  1  0.83027630  0.83322381  0.74669337  1
  Cu  Cu103  1  -0.01391331  -0.00267881  0.49259082  1
  Cu  Cu104  1  0.50119493  0.49928808  0.74711070  1
  Cu  Cu105  1  0.33926206  0.00777881  0.00392849  1
  Cu  Cu106  1  0.83102749  0.50660539  0.25539417  1
  Cu  Cu107  1  0.32772318  0.65788578  0.00578586  1
  Cu  Cu108  1  0.65904487  0.00081471  0.49745021  1
  Cu  Cu109  1  -0.00071940  0.32685888  -0.00511274  1
  Cu  Cu110  1  0.50678453  0.82822847  0.25530141  1
  Cu  Cu111  1  0.16973502  0.49383732  0.24542976  1
  Cu  Cu112  1  0.66846913  0.67121370  0.01242567  1
  Cu  Cu113  1  0.18009861  0.84253866  0.74766439  1
  Cu  Cu114  1  0.67131628  -0.00288428  0.00333899  1
  Se  Se115  1  0.08994332  0.08164642  0.05173085  1
  Se  Se116  1  0.07088276  0.07366322  0.55381624  1
  Se  Se117  1  0.07824112  0.41385679  0.04844526  1
  Se  Se118  1  0.08480100  0.40595954  0.56416071  1
  Se  Se119  1  0.07932478  0.74622739  0.06872413  1
  Se  Se120  1  0.07408409  0.74259198  0.55791798  1
  Se  Se121  1  0.41158128  0.08369760  0.07074828  1
  Se  Se122  1  0.41425973  0.08709768  0.55018778  1
  Se  Se123  1  0.41668425  0.41744349  0.05317795  1
  Se  Se124  1  0.42072875  0.41856047  0.55320781  1
  Se  Se125  1  0.40512176  0.74597849  0.06210357  1
  Se  Se126  1  0.41929695  0.75241810  0.54543680  1
  Se  Se127  1  0.75210766  0.08627163  0.05308763  1
  Se  Se128  1  0.74625366  0.08487112  0.54903848  1
  Se  Se129  1  0.74025459  0.41064449  0.05672377  1
  Se  Se130  1  0.75122461  0.41211273  0.55263258  1
  Se  Se131  1  0.74963706  0.75619234  0.06447308  1
  Se  Se132  1  0.74854891  0.75559763  0.55175921  1
  Se  Se133  1  0.25845941  0.24350320  0.06273360  1
  Se  Se134  1  0.25395407  0.25197699  0.55973108  1
  Se  Se135  1  0.24125458  0.57806787  0.05772672  1
  Se  Se136  1  0.26060320  0.59031581  0.55420871  1
  Se  Se137  1  0.25831765  0.92039223  0.05869670  1
  Se  Se138  1  0.24404257  0.92664262  0.54892165  1
  Se  Se139  1  0.59117081  0.25703118  0.06682079  1
  Se  Se140  1  0.57876363  0.24715529  0.55258878  1
  Se  Se141  1  0.57785666  0.58629337  0.05451047  1
  Se  Se142  1  0.58846030  0.58601846  0.54791358  1
  Se  Se143  1  0.58610094  0.92605785  0.06556349  1
  Se  Se144  1  0.57824063  0.91770961  0.55327025  1
  Se  Se145  1  0.91243526  0.24635139  0.04680738  1
  Se  Se146  1  0.91584731  0.24549339  0.55260199  1
  Se  Se147  1  0.90929360  0.59352770  0.07218949  1
  Se  Se148  1  0.91745340  0.58180152  0.54860276  1
  Se  Se149  1  0.91415438  0.91666889  0.05529068  1
  Se  Se150  1  0.90787525  0.90982626  0.54572687  1
  Se  Se151  1  0.07591009  0.26381002  0.43613783  1
  Se  Se152  1  0.08828578  0.24348865  0.94676840  1
  Se  Se153  1  0.08659248  0.59997545  0.43188275  1
  Se  Se154  1  0.07535636  0.58341160  0.95761373  1
  Se  Se155  1  0.07353274  0.92936648  0.43057005  1
  Se  Se156  1  0.07553879  0.92402639  0.93797926  1
  Se  Se157  1  0.41308840  0.24504892  0.44275517  1
  Se  Se158  1  0.41495638  0.25628634  0.94325740  1
  Se  Se159  1  0.42575969  0.57822915  0.44285085  1
  Se  Se160  1  0.41702569  0.58185924  0.95110688  1
  Se  Se161  1  0.41229701  0.91101032  0.44763530  1
  Se  Se162  1  0.41899524  0.92827939  0.94367255  1
  Se  Se163  1  0.74739459  0.24329655  0.44465275  1
  Se  Se164  1  0.74347049  0.24213073  0.94528272  1
  Se  Se165  1  0.75293787  0.58412721  0.44305805  1
  Se  Se166  1  0.74160350  0.58912146  0.94494271  1
  Se  Se167  1  0.74709990  0.92036979  0.44518082  1
  Se  Se168  1  0.75339938  0.91299178  0.94939308  1
  Se  Se169  1  0.26013045  0.08282872  0.43795509  1
  Se  Se170  1  0.25268712  0.08884240  0.95205892  1
  Se  Se171  1  0.25782693  0.41366696  0.44374030  1
  Se  Se172  1  0.24554326  0.41680177  0.95042531  1
  Se  Se173  1  0.25622315  0.74260666  0.43347359  1
  Se  Se174  1  0.25794273  0.74326562  0.94107800  1
  Se  Se175  1  0.57661043  0.08508572  0.44432325  1
  Se  Se176  1  0.58592108  0.07359727  0.94283426  1
  Se  Se177  1  0.58323847  0.41543392  0.45041611  1
  Se  Se178  1  0.57815818  0.41775285  0.94543901  1
  Se  Se179  1  0.58256344  0.75439652  0.44421702  1
  Se  Se180  1  0.59339743  0.74355289  0.94083141  1
  Se  Se181  1  0.90891574  0.08876123  0.44244688  1
  Se  Se182  1  0.91651130  0.08148245  0.94662030  1
  Se  Se183  1  0.91343364  0.41937416  0.45118387  1
  Se  Se184  1  0.91357598  0.40417387  0.93509944  1
  Se  Se185  1  0.91177449  0.75354947  0.44260007  1
  Se  Se186  1  0.91122349  0.75205512  0.95657954  1
  Se  Se187  1  0.25146157  0.24781901  0.29094510  1
  Se  Se188  1  0.25550068  0.25422831  0.80865702  1
  Se  Se189  1  0.25081768  0.58019942  0.29930755  1
  Se  Se190  1  0.24372561  0.57987806  0.81495977  1
  Se  Se191  1  0.22684919  0.88372637  0.31014726  1
  Se  Se192  1  0.26066538  0.92534930  0.80173540  1
  Se  Se193  1  0.57956477  0.24700096  0.31722348  1
  Se  Se194  1  0.58488571  0.25154164  0.80210716  1
  Se  Se195  1  0.58491066  0.57876908  0.30267921  1
  Se  Se196  1  0.57973369  0.58173198  0.80746362  1
  Se  Se197  1  0.57959071  0.91961433  0.30987796  1
  Se  Se198  1  0.58978610  0.91520602  0.79613900  1
  Se  Se199  1  0.90834882  0.24434813  0.30513218  1
  Se  Se200  1  0.91446600  0.24127609  0.80045933  1
  Se  Se201  1  0.91900520  0.58581406  0.30662547  1
  Se  Se202  1  0.90748084  0.56788269  0.80888326  1
  Se  Se203  1  0.90706279  0.91829537  0.30981980  1
  Se  Se204  1  0.91329330  0.90836025  0.80936971  1
  Se  Se205  1  0.09789790  0.09818667  0.30205592  1
  Se  Se206  1  0.09158102  0.08676761  0.81311603  1
  Se  Se207  1  0.09350513  0.42326484  0.31581359  1
  Se  Se208  1  0.08050765  0.41197312  0.80855721  1
  Se  Se209  1  0.06218209  0.74535405  0.28883782  1
  Se  Se210  1  0.09841927  0.76197648  0.80697851  1
  Se  Se211  1  0.39152731  0.05631275  0.30425426  1
  Se  Se212  1  0.41948099  0.09010350  0.80259084  1
  Se  Se213  1  0.41381301  0.41083230  0.30319306  1
  Se  Se214  1  0.41522330  0.42187439  0.80353722  1
  Se  Se215  1  0.41975911  0.74112769  0.30226182  1
  Se  Se216  1  0.43052049  0.76286489  0.80607517  1
  Se  Se217  1  0.74277004  0.07943437  0.29293608  1
  Se  Se218  1  0.74795890  0.07716656  0.80179396  1
  Se  Se219  1  0.75604159  0.41986386  0.31347079  1
  Se  Se220  1  0.74245906  0.40823157  0.80126490  1
  Se  Se221  1  0.74171344  0.74808051  0.30187677  1
  Se  Se222  1  0.75796146  0.74873560  0.80977052  1
  Se  Se223  1  0.27489889  0.06192186  0.20511960  1
  Se  Se224  1  0.25255731  0.08963183  0.70066626  1
  Se  Se225  1  0.25322201  0.41118505  0.19298313  1
  Se  Se226  1  0.25543704  0.41508737  0.70171018  1
  Se  Se227  1  0.25027171  0.74687241  0.20523129  1
  Se  Se228  1  0.25302089  0.75981276  0.68506145  1
  Se  Se229  1  0.59420117  0.08666610  0.21064721  1
  Se  Se230  1  0.58127288  0.08429936  0.69244157  1
  Se  Se231  1  0.57678567  0.42238296  0.18800594  1
  Se  Se232  1  0.58588045  0.41626737  0.69462035  1
  Se  Se233  1  0.58893961  0.74827823  0.19790085  1
  Se  Se234  1  0.57089274  0.76013599  0.69095551  1
  Se  Se235  1  0.91851683  0.09235475  0.18854320  1
  Se  Se236  1  0.90854112  0.08369067  0.68313464  1
  Se  Se237  1  0.90757358  0.42575923  0.19304214  1
  Se  Se238  1  0.92029952  0.40629858  0.69378167  1
  Se  Se239  1  0.92744554  0.75047054  0.20901360  1
  Se  Se240  1  0.91266148  0.75059070  0.69051227  1
  Se  Se241  1  0.08864626  0.24878495  0.18658346  1
  Se  Se242  1  0.07829568  0.24948469  0.70370696  1
  Se  Se243  1  0.08018669  0.57672298  0.19834135  1
  Se  Se244  1  0.09200403  0.57192282  0.69320528  1
  Se  Se245  1  0.09449933  0.91613722  0.18662586  1
  Se  Se246  1  0.09358516  0.91445321  0.68735035  1
  Se  Se247  1  0.44026059  0.23466992  0.20562269  1
  Se  Se248  1  0.41511206  0.25858846  0.69613946  1
  Se  Se249  1  0.41404528  0.58205408  0.19629107  1
  Se  Se250  1  0.42361466  0.58319393  0.68751508  1
  Se  Se251  1  0.42654934  0.91022558  0.19763149  1
  Se  Se252  1  0.40869445  0.92632575  0.69200233  1
  Se  Se253  1  0.76047773  0.24780271  0.19215842  1
  Se  Se254  1  0.74615979  0.24712909  0.69272462  1
  Se  Se255  1  0.74285596  0.58513580  0.20278388  1
  Se  Se256  1  0.75945501  0.57038072  0.68771981  1
  Se  Se257  1  0.74356272  0.94019009  0.20296301  1
  Se  Se258  1  0.74803458  0.91655584  0.69425711  1
