# generated using pymatgen
data_In86Cu29Se144
_symmetry_space_group_name_H-M   'P 1'
_cell_length_a   17.57904675
_cell_length_b   17.57845910
_cell_length_c   23.43865144
_cell_angle_alpha   90.00444244
_cell_angle_beta   89.97646533
_cell_angle_gamma   90.01539610
_symmetry_Int_Tables_number   1
_chemical_formula_structural   In86Cu29Se144
_chemical_formula_sum   'In86 Cu29 Se144'
_cell_volume   7242.83665710
_cell_formula_units_Z   1
loop_
 _symmetry_equiv_pos_site_id
 _symmetry_equiv_pos_as_xyz
  1  'x, y, z'
loop_
 _atom_site_type_symbol
 _atom_site_label
 _atom_site_symmetry_multiplicity
 _atom_site_fract_x
 _atom_site_fract_y
 _atom_site_fract_z
 _atom_site_occupancy
  In  In0  1  -0.01320385  0.16053697  0.11960971  1
  In  In1  1  0.00332658  0.17166163  0.62340674  1
  In  In2  1  0.00538420  0.50417219  0.13168212  1
  In  In3  1  0.00054441  0.49945238  0.63051996  1
  In  In4  1  -0.00831877  0.84911184  0.13574566  1
  In  In5  1  -0.00561325  0.82055778  0.61236661  1
  In  In6  1  0.33756511  0.16125180  0.12414627  1
  In  In7  1  0.34354140  0.15906044  0.63004070  1
  In  In8  1  0.31972473  0.49012060  0.12294966  1
  In  In9  1  0.34458230  0.49348043  0.63163955  1
  In  In10  1  0.34386853  0.84154465  0.12510385  1
  In  In11  1  0.32924510  0.83064208  0.62014118  1
  In  In12  1  0.66355554  0.16383090  0.12842780  1
  In  In13  1  0.65733531  0.15710828  0.61506674  1
  In  In14  1  0.67561868  0.49655646  0.14229860  1
  In  In15  1  0.65937201  0.50594894  0.62049439  1
  In  In16  1  0.67227967  0.82466869  0.13899040  1
  In  In17  1  0.66938832  0.83579668  0.61204196  1
  In  In18  1  0.16136784  -0.00122574  0.36382181  1
  In  In19  1  0.18045760  -0.00043496  0.87239409  1
  In  In20  1  0.16888945  0.30846934  0.36560055  1
  In  In21  1  0.16312421  0.32905371  0.87240997  1
  In  In22  1  0.16228889  0.68213016  0.38257878  1
  In  In23  1  0.16657926  0.66992246  0.85998941  1
  In  In24  1  0.49982732  0.00238197  0.37789184  1
  In  In25  1  0.49500662  0.00632378  0.87367943  1
  In  In26  1  0.49969125  0.33329238  0.37324467  1
  In  In27  1  0.49260907  0.32829912  0.87573028  1
  In  In28  1  0.50395473  0.66404186  0.38390452  1
  In  In29  1  0.49871502  0.67678407  0.86642645  1
  In  In30  1  0.83429418  0.00061455  0.37439882  1
  In  In31  1  0.82986348  0.00472567  0.88906972  1
  In  In32  1  0.81496850  0.34027968  0.36941730  1
  In  In33  1  0.83093613  0.32010379  0.87985163  1
  In  In34  1  0.84709909  0.67926681  0.36279286  1
  In  In35  1  0.84519444  0.66801968  0.87699709  1
  In  In36  1  0.00426080  0.14277429  0.36953608  1
  In  In37  1  -0.00811996  0.17709303  0.88276936  1
  In  In38  1  -0.00964228  0.51654396  0.37365334  1
  In  In39  1  0.00680293  0.50747310  0.86651619  1
  In  In40  1  -0.00334622  0.83202620  0.37755458  1
  In  In41  1  0.00022456  0.82540786  0.87347358  1
  In  In42  1  0.33390395  0.17518178  0.36662256  1
  In  In43  1  0.33272686  0.16572606  0.87494495  1
  In  In44  1  0.34505140  0.49850954  0.37880393  1
  In  In45  1  0.33173496  0.49005724  0.85996057  1
  In  In46  1  0.32419075  0.85216192  0.39626353  1
  In  In47  1  0.32636065  0.83785217  0.85201563  1
  In  In48  1  0.66787026  0.16941912  0.37086511  1
  In  In49  1  0.66234833  0.16903779  0.89566978  1
  In  In50  1  0.65884474  0.49108816  0.36313812  1
  In  In51  1  0.65906360  0.50246311  0.87757088  1
  In  In52  1  0.66707304  0.83832707  0.37672896  1
  In  In53  1  0.66541924  0.84692267  0.88042223  1
  In  In54  1  0.15277575  0.02130304  0.14504475  1
  In  In55  1  0.18592688  -0.00767352  0.62487325  1
  In  In56  1  0.18350862  0.32444419  0.13235265  1
  In  In57  1  0.16633533  0.33335304  0.63285945  1
  In  In58  1  0.16027381  0.65656434  0.12924758  1
  In  In59  1  0.15716808  0.68264968  0.63265575  1
  In  In60  1  0.48768132  0.01278061  0.13775579  1
  In  In61  1  0.46529163  -0.02036330  0.59181436  1
  In  In62  1  0.52047157  0.30697523  0.13533820  1
  In  In63  1  0.49384009  0.32361055  0.61973775  1
  In  In64  1  0.50563662  0.67654238  0.13038194  1
  In  In65  1  0.48945478  0.65127253  0.61285697  1
  In  In66  1  0.83292930  -0.00215154  0.13063336  1
  In  In67  1  0.83537339  -0.00055029  0.61417038  1
  In  In68  1  0.82762597  0.31964238  0.12298049  1
  In  In69  1  0.84190515  0.32993845  0.62625864  1
  In  In70  1  0.82476930  0.67641631  0.13812683  1
  In  In71  1  0.83507682  0.67748920  0.62078373  1
  In  In72  1  -0.00752205  0.33828245  0.25028222  1
  In  In73  1  0.16522378  0.49662879  -0.01061661  1
  In  In74  1  0.00803344  -0.00184806  0.74813745  1
  In  In75  1  0.82541361  0.50345463  0.49643360  1
  In  In76  1  0.50124226  0.49301964  -0.00060934  1
  In  In77  1  0.83836302  0.49329290  0.01041367  1
  In  In78  1  0.16527618  0.84249425  -0.00141711  1
  In  In79  1  0.50487995  0.84156920  -0.00123091  1
  In  In80  1  0.66572098  0.33449934  0.75405483  1
  In  In81  1  0.33557794  0.67152154  0.25669285  1
  In  In82  1  0.17007618  0.15647769  0.49952577  1
  In  In83  1  0.66181425  0.00618246  0.75037263  1
  In  In84  1  0.17255884  0.50137342  0.49984047  1
  In  In85  1  0.66691026  0.66865283  0.74646737  1
  Cu  Cu86  1  0.16636273  0.17445236  0.75088394  1
  Cu  Cu87  1  0.48947248  0.49597943  0.25109900  1
  Cu  Cu88  1  0.33671056  0.33027728  0.49786376  1
  Cu  Cu89  1  0.17215173  0.50248183  0.74504607  1
  Cu  Cu90  1  0.49170664  0.83269683  0.73508893  1
  Cu  Cu91  1  0.66050140  0.33176973  0.49146530  1
  Cu  Cu92  1  0.66919150  -0.00290480  0.01097948  1
  Cu  Cu93  1  0.16652781  0.83085112  0.25683975  1
  Cu  Cu94  1  0.83719581  0.83408430  0.74715637  1
  Cu  Cu95  1  0.16448299  0.50164712  0.25271584  1
  Cu  Cu96  1  0.49119793  0.16231055  0.74826668  1
  Cu  Cu97  1  -0.00539988  0.68172929  0.00175615  1
  Cu  Cu98  1  -0.00774430  0.32769734  0.50042242  1
  Cu  Cu99  1  0.50296865  0.83587291  0.25926519  1
  Cu  Cu100  1  0.67350877  0.00871263  0.49067570  1
  Cu  Cu101  1  0.33354539  0.00552878  0.00061009  1
  Cu  Cu102  1  0.67481050  0.66625231  0.01110736  1
  Cu  Cu103  1  0.83239475  0.16290554  0.24873623  1
  Cu  Cu104  1  0.66724951  0.66812826  0.49399969  1
  Cu  Cu105  1  0.83650540  0.83813793  0.25563468  1
  Cu  Cu106  1  0.33284349  0.66807729  -0.01180425  1
  Cu  Cu107  1  -0.00153027  -0.00954554  0.49466359  1
  Cu  Cu108  1  0.84360630  0.50007236  0.75073415  1
  Cu  Cu109  1  0.00742365  0.33345158  0.00087436  1
  Cu  Cu110  1  0.83470518  0.17066151  0.75469941  1
  Cu  Cu111  1  0.33617503  0.66734006  0.50513230  1
  Cu  Cu112  1  0.50135653  0.16912073  0.25395176  1
  Cu  Cu113  1  -0.00124333  0.00623809  0.00929037  1
  Cu  Cu114  1  0.34280166  0.31888449  0.00349847  1
  Se  Se115  1  0.08840023  0.08663039  0.05829380  1
  Se  Se116  1  0.07660262  0.06812442  0.56025254  1
  Se  Se117  1  0.08499513  0.41259462  0.06269459  1
  Se  Se118  1  0.07656531  0.40778969  0.55633861  1
  Se  Se119  1  0.08071535  0.75204624  0.06361852  1
  Se  Se120  1  0.09246323  0.75048268  0.54884470  1
  Se  Se121  1  0.42390586  0.08215393  0.05263972  1
  Se  Se122  1  0.41550774  0.10183558  0.54515753  1
  Se  Se123  1  0.41504438  0.40560413  0.06393370  1
  Se  Se124  1  0.41606974  0.41528412  0.55288262  1
  Se  Se125  1  0.41190984  0.74207931  0.05286273  1
  Se  Se126  1  0.42297753  0.75452719  0.55216741  1
  Se  Se127  1  0.75291254  0.08254163  0.06129060  1
  Se  Se128  1  0.75543978  0.08895336  0.54979743  1
  Se  Se129  1  0.73536704  0.40956442  0.06024328  1
  Se  Se130  1  0.74131185  0.40620918  0.55841414  1
  Se  Se131  1  0.75317583  0.75552119  0.06061636  1
  Se  Se132  1  0.75266935  0.74931691  0.54713305  1
  Se  Se133  1  0.25081918  0.24370826  0.05522881  1
  Se  Se134  1  0.25184537  0.25565225  0.55915733  1
  Se  Se135  1  0.25433263  0.59155251  0.05136175  1
  Se  Se136  1  0.25679293  0.58565426  0.56584387  1
  Se  Se137  1  0.25336878  0.92733564  0.06248501  1
  Se  Se138  1  0.26076026  0.92183974  0.54818449  1
  Se  Se139  1  0.58479584  0.23976612  0.05263682  1
  Se  Se140  1  0.58099129  0.24893848  0.54967856  1
  Se  Se141  1  0.58867420  0.58491554  0.06362852  1
  Se  Se142  1  0.58470847  0.58065068  0.54472052  1
  Se  Se143  1  0.58611431  0.91959577  0.07156121  1
  Se  Se144  1  0.59242568  0.92895425  0.54948615  1
  Se  Se145  1  0.91698336  0.25342504  0.05023865  1
  Se  Se146  1  0.91198083  0.24279221  0.55332518  1
  Se  Se147  1  0.92409299  0.59505376  0.06306645  1
  Se  Se148  1  0.92187592  0.58502754  0.55719630  1
  Se  Se149  1  0.91582462  0.91810964  0.05691508  1
  Se  Se150  1  0.91205929  0.91002004  0.54825593  1
  Se  Se151  1  0.07512623  0.24797508  0.44182188  1
  Se  Se152  1  0.08982111  0.24919214  0.94780069  1
  Se  Se153  1  0.07494099  0.59104019  0.44821977  1
  Se  Se154  1  0.07618879  0.60147476  0.94201303  1
  Se  Se155  1  0.08802427  0.91786330  0.43920274  1
  Se  Se156  1  0.07223357  0.93097627  0.93921776  1
  Se  Se157  1  0.41672658  0.24788034  0.44149755  1
  Se  Se158  1  0.42390522  0.23857602  0.94637776  1
  Se  Se159  1  0.41677060  0.58173680  0.45144835  1
  Se  Se160  1  0.41482845  0.58508097  0.93445032  1
  Se  Se161  1  0.43278195  0.91449859  0.45281534  1
  Se  Se162  1  0.40177764  0.91567953  0.93815086  1
  Se  Se163  1  0.75092127  0.25182067  0.44310231  1
  Se  Se164  1  0.75555559  0.24815835  0.95508996  1
  Se  Se165  1  0.74245023  0.58841861  0.42978326  1
  Se  Se166  1  0.74920257  0.58630924  0.94591820  1
  Se  Se167  1  0.75525545  0.91663992  0.44531033  1
  Se  Se168  1  0.74997490  0.91439549  0.95447754  1
  Se  Se169  1  0.25736508  0.07610938  0.43400769  1
  Se  Se170  1  0.24819035  0.08531099  0.94624521  1
  Se  Se171  1  0.24987612  0.40175167  0.43681940  1
  Se  Se172  1  0.26648634  0.40528943  0.94285386  1
  Se  Se173  1  0.24980177  0.75009635  0.45476020  1
  Se  Se174  1  0.25310727  0.75243253  0.93402590  1
  Se  Se175  1  0.58509288  0.09090316  0.44251808  1
  Se  Se176  1  0.58231810  0.06787095  0.94970934  1
  Se  Se177  1  0.58056831  0.42089503  0.44188148  1
  Se  Se178  1  0.59470007  0.40112056  0.94363628  1
  Se  Se179  1  0.58272473  0.75667251  0.44716060  1
  Se  Se180  1  0.59364316  0.73915678  0.94441071  1
  Se  Se181  1  0.91861089  0.08208332  0.44643019  1
  Se  Se182  1  0.91621817  0.08901469  0.95210888  1
  Se  Se183  1  0.91989249  0.41113896  0.43875778  1
  Se  Se184  1  0.92990897  0.41667767  0.94034037  1
  Se  Se185  1  0.91750004  0.74373951  0.44482619  1
  Se  Se186  1  0.91016618  0.76116087  0.94801085  1
  Se  Se187  1  0.24700704  0.24017243  0.29042454  1
  Se  Se188  1  0.25357884  0.25267700  0.80564653  1
  Se  Se189  1  0.24335482  0.58074830  0.31640508  1
  Se  Se190  1  0.25571372  0.58579762  0.79823397  1
  Se  Se191  1  0.25619342  0.90972876  0.30763206  1
  Se  Se192  1  0.23676967  0.91949733  0.79172304  1
  Se  Se193  1  0.58605942  0.25579951  0.30301186  1
  Se  Se194  1  0.58150856  0.23223317  0.80913562  1
  Se  Se195  1  0.56890238  0.58248728  0.30479658  1
  Se  Se196  1  0.57576394  0.57503420  0.80272486  1
  Se  Se197  1  0.58675144  0.92349609  0.30739122  1
  Se  Se198  1  0.56984808  0.90562342  0.80360235  1
  Se  Se199  1  0.91091274  0.24213118  0.31232091  1
  Se  Se200  1  0.91856238  0.25538295  0.80503588  1
  Se  Se201  1  0.90182437  0.57166737  0.29849580  1
  Se  Se202  1  0.92035513  0.59168613  0.80162269  1
  Se  Se203  1  0.92277440  0.92100866  0.30659830  1
  Se  Se204  1  0.90645519  0.92025816  0.81038382  1
  Se  Se205  1  0.10130764  0.09884811  0.29567725  1
  Se  Se206  1  0.08587599  0.09436653  0.81236543  1
  Se  Se207  1  0.08659498  0.42118987  0.31537505  1
  Se  Se208  1  0.09032185  0.42064955  0.80355655  1
  Se  Se209  1  0.08000606  0.74766483  0.30586016  1
  Se  Se210  1  0.08282115  0.75868172  0.79961761  1
  Se  Se211  1  0.41914235  0.08365897  0.30584287  1
  Se  Se212  1  0.40909680  0.07800468  0.80248625  1
  Se  Se213  1  0.40857713  0.41127560  0.30401527  1
  Se  Se214  1  0.42980781  0.41435501  0.80230686  1
  Se  Se215  1  0.41769532  0.76054532  0.32028227  1
  Se  Se216  1  0.41532478  0.74847171  0.79385972  1
  Se  Se217  1  0.74994239  0.08109334  0.30470918  1
  Se  Se218  1  0.75159670  0.09314464  0.81443570  1
  Se  Se219  1  0.74798986  0.41910987  0.29330195  1
  Se  Se220  1  0.76052568  0.42702838  0.81288176  1
  Se  Se221  1  0.74709549  0.75536920  0.30445676  1
  Se  Se222  1  0.75279240  0.76089383  0.81028209  1
  Se  Se223  1  0.27877714  0.05878698  0.19124534  1
  Se  Se224  1  0.24530923  0.08955552  0.69523191  1
  Se  Se225  1  0.24965344  0.41783776  0.20307640  1
  Se  Se226  1  0.25461064  0.41349247  0.69744285  1
  Se  Se227  1  0.24480394  0.75639261  0.18940028  1
  Se  Se228  1  0.26363716  0.74117749  0.69349304  1
  Se  Se229  1  0.58512498  0.08268754  0.20220382  1
  Se  Se230  1  0.56825070  0.08214147  0.68600110  1
  Se  Se231  1  0.57651148  0.41605234  0.19798244  1
  Se  Se232  1  0.57884725  0.41809515  0.68870748  1
  Se  Se233  1  0.58221696  0.74718619  0.20714516  1
  Se  Se234  1  0.58019216  0.75480174  0.68159341  1
  Se  Se235  1  0.91991126  0.08077274  0.19835259  1
  Se  Se236  1  0.90861708  0.08703069  0.69259922  1
  Se  Se237  1  0.90273568  0.42354665  0.18688283  1
  Se  Se238  1  0.92019738  0.41152507  0.69724426  1
  Se  Se239  1  0.91978230  0.75335595  0.20110178  1
  Se  Se240  1  0.91833874  0.75063083  0.69407879  1
  Se  Se241  1  0.07753985  0.24850002  0.18781282  1
  Se  Se242  1  0.07718845  0.25170253  0.69779859  1
  Se  Se243  1  0.07929662  0.58727427  0.20535496  1
  Se  Se244  1  0.08342941  0.58435858  0.69595698  1
  Se  Se245  1  0.08416731  0.91799623  0.20495426  1
  Se  Se246  1  0.08430554  0.90878355  0.68135180  1
  Se  Se247  1  0.41396863  0.24753090  0.19709284  1
  Se  Se248  1  0.41376548  0.25401344  0.69788023  1
  Se  Se249  1  0.41427851  0.57810831  0.18726001  1
  Se  Se250  1  0.42634339  0.58266065  0.69593683  1
  Se  Se251  1  0.41783436  0.91329323  0.20298464  1
  Se  Se252  1  0.41295508  0.92348386  0.68580732  1
  Se  Se253  1  0.74787044  0.24776437  0.19844743  1
  Se  Se254  1  0.74941311  0.24104032  0.69075266  1
  Se  Se255  1  0.74284327  0.59417163  0.20491284  1
  Se  Se256  1  0.76045811  0.57491327  0.68927092  1
  Se  Se257  1  0.74983854  0.91860647  0.20197132  1
  Se  Se258  1  0.75407839  0.91451860  0.69056829  1
