# generated using pymatgen
data_In86Cu29Se144
_symmetry_space_group_name_H-M   'P 1'
_cell_length_a   17.57951617
_cell_length_b   17.58017464
_cell_length_c   23.44560701
_cell_angle_alpha   89.97396401
_cell_angle_beta   90.01823044
_cell_angle_gamma   90.00930889
_symmetry_Int_Tables_number   1
_chemical_formula_structural   In86Cu29Se144
_chemical_formula_sum   'In86 Cu29 Se144'
_cell_volume   7245.88624514
_cell_formula_units_Z   1
loop_
 _symmetry_equiv_pos_site_id
 _symmetry_equiv_pos_as_xyz
  1  'x, y, z'
loop_
 _atom_site_type_symbol
 _atom_site_label
 _atom_site_symmetry_multiplicity
 _atom_site_fract_x
 _atom_site_fract_y
 _atom_site_fract_z
 _atom_site_occupancy
  In  In0  1  0.01635319  0.16734978  0.12631441  1
  In  In1  1  -0.01310195  0.17188171  0.62698446  1
  In  In2  1  0.00084789  0.49821706  0.13603041  1
  In  In3  1  -0.00040723  0.50976600  0.61210466  1
  In  In4  1  -0.00642413  0.83611985  0.12146866  1
  In  In5  1  0.00262693  0.82897047  0.63315338  1
  In  In6  1  0.32610224  0.17686003  0.13051122  1
  In  In7  1  0.35174073  0.15544737  0.64203308  1
  In  In8  1  0.34787639  0.48974670  0.13189988  1
  In  In9  1  0.31601652  0.49009699  0.62206028  1
  In  In10  1  0.33888089  0.82787818  0.12891668  1
  In  In11  1  0.34316597  0.83593313  0.62701159  1
  In  In12  1  0.67227267  0.17452912  0.12426985  1
  In  In13  1  0.65855493  0.16684648  0.62788785  1
  In  In14  1  0.65232046  0.49720987  0.12572198  1
  In  In15  1  0.67907290  0.49199696  0.62581406  1
  In  In16  1  0.67111537  0.82943273  0.11419570  1
  In  In17  1  0.65675266  0.84435215  0.63459370  1
  In  In18  1  0.17268020  -0.01117455  0.37348587  1
  In  In19  1  0.17987950  0.00954172  0.86481354  1
  In  In20  1  0.17711079  0.34642576  0.37375598  1
  In  In21  1  0.16743917  0.31350733  0.88392856  1
  In  In22  1  0.15678553  0.65264424  0.36714580  1
  In  In23  1  0.16253156  0.67531563  0.87308977  1
  In  In24  1  0.49784812  0.01037747  0.37992577  1
  In  In25  1  0.48880044  -0.00624418  0.86657174  1
  In  In26  1  0.49573156  0.32842016  0.37424412  1
  In  In27  1  0.49799220  0.33658541  0.86731075  1
  In  In28  1  0.50472772  0.67957114  0.37841891  1
  In  In29  1  0.50723656  0.65786806  0.87784840  1
  In  In30  1  0.83828441  0.00919034  0.37904075  1
  In  In31  1  0.82210778  -0.00811892  0.86705202  1
  In  In32  1  0.83259098  0.33196805  0.37505492  1
  In  In33  1  0.82476871  0.33556411  0.87144924  1
  In  In34  1  0.83914942  0.65690078  0.37978805  1
  In  In35  1  0.83774177  0.67225976  0.86468076  1
  In  In36  1  -0.01967892  0.16805129  0.38065132  1
  In  In37  1  0.01420885  0.16177163  0.87659656  1
  In  In38  1  0.00442569  0.50317559  0.37841409  1
  In  In39  1  -0.01067023  0.49694584  0.87027674  1
  In  In40  1  0.01045337  0.83187058  0.37272811  1
  In  In41  1  -0.00725567  0.82750855  0.87025760  1
  In  In42  1  0.34328712  0.17641209  0.36831461  1
  In  In43  1  0.33556549  0.15800238  0.86911345  1
  In  In44  1  0.32532130  0.49263794  0.37379364  1
  In  In45  1  0.34063355  0.50659473  0.87520097  1
  In  In46  1  0.34366520  0.83932261  0.36715150  1
  In  In47  1  0.33707901  0.85442439  0.87881834  1
  In  In48  1  0.65573509  0.18250910  0.39247190  1
  In  In49  1  0.64037607  0.15620213  0.84633125  1
  In  In50  1  0.68229514  0.49254492  0.38494676  1
  In  In51  1  0.65598240  0.48820310  0.85918315  1
  In  In52  1  0.66140113  0.82230421  0.37848414  1
  In  In53  1  0.66443010  0.83028654  0.87294985  1
  In  In54  1  0.17098296  0.02006743  0.11568751  1
  In  In55  1  0.16998698  -0.00248200  0.63706292  1
  In  In56  1  0.18077839  0.32038662  0.13546766  1
  In  In57  1  0.17272996  0.35206012  0.62493459  1
  In  In58  1  0.17145368  0.66319131  0.13347405  1
  In  In59  1  0.15561199  0.64569799  0.62307879  1
  In  In60  1  0.49834298  -0.01427152  0.11977288  1
  In  In61  1  0.50239275  0.00467209  0.62983437  1
  In  In62  1  0.48628302  0.34364668  0.13225670  1
  In  In63  1  0.52042581  0.31046794  0.64402288  1
  In  In64  1  0.49920389  0.65707888  0.11925646  1
  In  In65  1  0.49318749  0.68503039  0.62333949  1
  In  In66  1  0.85661049  -0.00488164  0.11272908  1
  In  In67  1  0.82011378  0.01139883  0.63724495  1
  In  In68  1  0.82744053  0.33930223  0.13552015  1
  In  In69  1  0.81665926  0.32861004  0.60726284  1
  In  In70  1  0.83626186  0.67555747  0.12556094  1
  In  In71  1  0.84256224  0.65506050  0.62718946  1
  In  In72  1  0.82814284  0.49979586  -0.00815521  1
  In  In73  1  0.32601300  0.66970636  0.75027827  1
  In  In74  1  0.49865148  0.49521995  0.50188260  1
  In  In75  1  0.16902898  0.17292635  0.50110929  1
  In  In76  1  0.82856620  0.83697456  0.49943620  1
  In  In77  1  0.66924077  0.65809159  0.25532455  1
  In  In78  1  0.17020780  0.82627965  0.50480670  1
  In  In79  1  0.49416207  0.16426627  -0.00560087  1
  In  In80  1  0.00973746  0.00268795  0.24145132  1
  In  In81  1  0.66730690  0.00122689  0.24370444  1
  In  In82  1  0.00062193  0.34001445  0.74513111  1
  In  In83  1  0.16692276  0.83918793  -0.00341086  1
  In  In84  1  0.82956907  0.16547396  -0.00748653  1
  In  In85  1  0.17218316  0.49556683  0.00464597  1
  Cu  Cu86  1  0.84253306  0.83207639  0.24428004  1
  Cu  Cu87  1  0.16649853  0.50220964  0.25259198  1
  Cu  Cu88  1  0.00557908  0.32172270  0.00735864  1
  Cu  Cu89  1  0.16476016  0.17035547  0.25318277  1
  Cu  Cu90  1  0.66615225  0.66851997  -0.00519825  1
  Cu  Cu91  1  0.50001628  0.83017640  0.24756638  1
  Cu  Cu92  1  0.17539896  0.82949658  0.25051530  1
  Cu  Cu93  1  0.49879856  0.83631870  0.75136730  1
  Cu  Cu94  1  0.82918722  0.83027569  0.74802682  1
  Cu  Cu95  1  0.49605459  0.50680521  0.74685470  1
  Cu  Cu96  1  0.34349323  0.00647485  0.49979993  1
  Cu  Cu97  1  0.83814924  0.49768158  0.25847084  1
  Cu  Cu98  1  0.66189804  0.67418889  0.50597800  1
  Cu  Cu99  1  -0.00318850  0.34156161  0.49826669  1
  Cu  Cu100  1  -0.00190472  0.66600499  -0.00268133  1
  Cu  Cu101  1  0.32871392  0.66980295  0.50022666  1
  Cu  Cu102  1  0.34620485  0.66994838  0.00208291  1
  Cu  Cu103  1  -0.00585004  0.00206218  0.50922288  1
  Cu  Cu104  1  0.17022877  0.16694853  0.75222326  1
  Cu  Cu105  1  0.49718369  0.16671008  0.25459946  1
  Cu  Cu106  1  0.66845655  -0.00822698  -0.00646500  1
  Cu  Cu107  1  0.49804003  0.49554932  0.25249409  1
  Cu  Cu108  1  0.16134977  0.83190131  0.75272090  1
  Cu  Cu109  1  0.33982425  0.32727502  0.50161079  1
  Cu  Cu110  1  0.83629060  0.16958335  0.74453716  1
  Cu  Cu111  1  0.83313662  0.50168060  0.74357566  1
  Cu  Cu112  1  0.66061986  0.00334980  0.51122265  1
  Cu  Cu113  1  0.82771201  0.17459966  0.25373030  1
  Cu  Cu114  1  0.65651939  0.33441321  -0.00898311  1
  Se  Se115  1  0.05194274  0.05905630  0.05857203  1
  Se  Se116  1  0.08279149  0.07951875  0.56374780  1
  Se  Se117  1  0.07901328  0.40912103  0.06519531  1
  Se  Se118  1  0.08521710  0.41834025  0.55118390  1
  Se  Se119  1  0.08433030  0.73969006  0.05691121  1
  Se  Se120  1  0.07129137  0.73997797  0.55662429  1
  Se  Se121  1  0.41024250  0.08230372  0.06361855  1
  Se  Se122  1  0.42054401  0.08835634  0.55838480  1
  Se  Se123  1  0.42100057  0.41982768  0.05277887  1
  Se  Se124  1  0.41623776  0.40604042  0.56598586  1
  Se  Se125  1  0.42529261  0.75514236  0.05650938  1
  Se  Se126  1  0.41142292  0.75742635  0.54830219  1
  Se  Se127  1  0.74337006  0.07228051  0.05806402  1
  Se  Se128  1  0.74851465  0.08595436  0.55923350  1
  Se  Se129  1  0.74132396  0.40837817  0.05407627  1
  Se  Se130  1  0.74910548  0.42728370  0.54323129  1
  Se  Se131  1  0.75534114  0.74405590  0.04908107  1
  Se  Se132  1  0.74401058  0.75235827  0.56651651  1
  Se  Se133  1  0.24090487  0.24337236  0.05494141  1
  Se  Se134  1  0.25902852  0.25219884  0.56613223  1
  Se  Se135  1  0.26230902  0.59040809  0.06058043  1
  Se  Se136  1  0.24875934  0.58275980  0.55096465  1
  Se  Se137  1  0.25831114  0.92147785  0.05945244  1
  Se  Se138  1  0.25753196  0.92839088  0.55745111  1
  Se  Se139  1  0.58294904  0.25604416  0.05737078  1
  Se  Se140  1  0.58054461  0.24958456  0.55608783  1
  Se  Se141  1  0.58793351  0.58195263  0.04991006  1
  Se  Se142  1  0.58239422  0.59045031  0.56326210  1
  Se  Se143  1  0.58470108  0.91207486  0.04941249  1
  Se  Se144  1  0.57671826  0.91562884  0.55823765  1
  Se  Se145  1  0.91169317  0.25208574  0.06353989  1
  Se  Se146  1  0.91927667  0.25179405  0.55023362  1
  Se  Se147  1  0.92150532  0.58146686  0.05730220  1
  Se  Se148  1  0.90623701  0.58172481  0.54575900  1
  Se  Se149  1  0.91841156  0.90278204  0.04248884  1
  Se  Se150  1  0.91478020  0.92085820  0.56741681  1
  Se  Se151  1  0.07748214  0.25808239  0.43869715  1
  Se  Se152  1  0.08626880  0.23558726  0.95628763  1
  Se  Se153  1  0.08877314  0.58355786  0.44763811  1
  Se  Se154  1  0.07800255  0.58250150  0.94113564  1
  Se  Se155  1  0.07624413  0.92547885  0.44880585  1
  Se  Se156  1  0.08353012  0.92157917  0.92927721  1
  Se  Se157  1  0.42058627  0.24430984  0.44763438  1
  Se  Se158  1  0.40826705  0.25934251  0.93843999  1
  Se  Se159  1  0.41164518  0.58974027  0.44057717  1
  Se  Se160  1  0.42214202  0.58079277  0.94881133  1
  Se  Se161  1  0.41784511  0.91761500  0.44363609  1
  Se  Se162  1  0.41902290  0.92860735  0.94949970  1
  Se  Se163  1  0.77004638  0.23664263  0.44590807  1
  Se  Se164  1  0.73320649  0.24919813  0.93331939  1
  Se  Se165  1  0.74452422  0.59416798  0.45025200  1
  Se  Se166  1  0.74006141  0.58645942  0.93022863  1
  Se  Se167  1  0.73553459  0.92933813  0.44088090  1
  Se  Se168  1  0.75299848  0.90861580  0.94290948  1
  Se  Se169  1  0.25617121  0.07951179  0.43991640  1
  Se  Se170  1  0.25716624  0.07841491  0.94152181  1
  Se  Se171  1  0.25525601  0.41482002  0.45271363  1
  Se  Se172  1  0.25793694  0.41025559  0.94117900  1
  Se  Se173  1  0.25396264  0.74766077  0.43355827  1
  Se  Se174  1  0.26212674  0.74423102  0.94087468  1
  Se  Se175  1  0.57952485  0.08516344  0.45282651  1
  Se  Se176  1  0.59247520  0.07947676  0.93735315  1
  Se  Se177  1  0.59043858  0.40464618  0.44521944  1
  Se  Se178  1  0.57770968  0.42158032  0.93890930  1
  Se  Se179  1  0.57769365  0.75815613  0.45525118  1
  Se  Se180  1  0.57958060  0.75200879  0.94463914  1
  Se  Se181  1  0.91099938  0.08486220  0.45650562  1
  Se  Se182  1  0.91765690  0.07452651  0.93513234  1
  Se  Se183  1  0.91342641  0.42086258  0.44196066  1
  Se  Se184  1  0.92525635  0.39922446  0.94497001  1
  Se  Se185  1  0.92538302  0.75014717  0.44310364  1
  Se  Se186  1  0.91420023  0.74529928  0.94277853  1
  Se  Se187  1  0.24983194  0.25386381  0.30557727  1
  Se  Se188  1  0.25093066  0.24962110  0.80674469  1
  Se  Se189  1  0.25587490  0.58388564  0.30288593  1
  Se  Se190  1  0.23763305  0.57705798  0.80909177  1
  Se  Se191  1  0.25537229  0.91955910  0.29946494  1
  Se  Se192  1  0.25317828  0.91286807  0.79933195  1
  Se  Se193  1  0.58417352  0.24611246  0.30779221  1
  Se  Se194  1  0.59377542  0.27533996  0.79588710  1
  Se  Se195  1  0.57803755  0.57122522  0.31713299  1
  Se  Se196  1  0.58255526  0.58881218  0.79790696  1
  Se  Se197  1  0.58154814  0.91013544  0.30760933  1
  Se  Se198  1  0.58483973  0.91761866  0.80427178  1
  Se  Se199  1  0.91902345  0.25244806  0.30331918  1
  Se  Se200  1  0.91587115  0.24497062  0.80958410  1
  Se  Se201  1  0.92111462  0.58605418  0.30582357  1
  Se  Se202  1  0.91755171  0.58138532  0.79887754  1
  Se  Se203  1  0.91498624  0.91722764  0.30646714  1
  Se  Se204  1  0.91339167  0.91349328  0.80130095  1
  Se  Se205  1  0.08617380  0.08986880  0.31580626  1
  Se  Se206  1  0.08242126  0.08204727  0.79926785  1
  Se  Se207  1  0.08397536  0.41871601  0.30682677  1
  Se  Se208  1  0.09052743  0.41386582  0.81617200  1
  Se  Se209  1  0.08539534  0.75069258  0.30116552  1
  Se  Se210  1  0.07720986  0.74502445  0.80065744  1
  Se  Se211  1  0.41501395  0.07836844  0.30336040  1
  Se  Se212  1  0.44362762  0.10634028  0.80411067  1
  Se  Se213  1  0.41390003  0.41312500  0.30697487  1
  Se  Se214  1  0.41383622  0.42450986  0.80141548  1
  Se  Se215  1  0.42019414  0.74448533  0.30196083  1
  Se  Se216  1  0.41797140  0.75484996  0.81286483  1
  Se  Se217  1  0.74916165  0.08937186  0.31060831  1
  Se  Se218  1  0.75255526  0.08591791  0.79793103  1
  Se  Se219  1  0.74836049  0.41566009  0.30521002  1
  Se  Se220  1  0.75272945  0.41373952  0.79569120  1
  Se  Se221  1  0.76175447  0.75766045  0.30801277  1
  Se  Se222  1  0.74380887  0.74727497  0.80056558  1
  Se  Se223  1  0.24507189  0.08627832  0.19746556  1
  Se  Se224  1  0.25495752  0.07901277  0.70363277  1
  Se  Se225  1  0.25078895  0.42021553  0.19759686  1
  Se  Se226  1  0.24700643  0.42099001  0.70399755  1
  Se  Se227  1  0.25871790  0.74445104  0.19872303  1
  Se  Se228  1  0.23684028  0.75514371  0.68428265  1
  Se  Se229  1  0.57291148  0.09182538  0.18658566  1
  Se  Se230  1  0.57895296  0.08831459  0.70100772  1
  Se  Se231  1  0.58362630  0.41314417  0.20006308  1
  Se  Se232  1  0.58319496  0.42573626  0.69477639  1
  Se  Se233  1  0.58712231  0.75163676  0.19119089  1
  Se  Se234  1  0.57884089  0.74963892  0.69893002  1
  Se  Se235  1  0.90674259  0.09293455  0.19176130  1
  Se  Se236  1  0.92269545  0.08132661  0.69938553  1
  Se  Se237  1  0.91841094  0.41331837  0.20224907  1
  Se  Se238  1  0.90710307  0.41764055  0.68067032  1
  Se  Se239  1  0.92667647  0.74676232  0.19537118  1
  Se  Se240  1  0.91451367  0.74643390  0.69677362  1
  Se  Se241  1  0.07971507  0.25375171  0.20158848  1
  Se  Se242  1  0.09322409  0.24589296  0.68781099  1
  Se  Se243  1  0.08218477  0.58614548  0.20030407  1
  Se  Se244  1  0.07507726  0.57196635  0.69496453  1
  Se  Se245  1  0.09877739  0.90871164  0.18508503  1
  Se  Se246  1  0.07883675  0.91815470  0.70059256  1
  Se  Se247  1  0.41420338  0.25145900  0.20043457  1
  Se  Se248  1  0.39482083  0.27591395  0.69474857  1
  Se  Se249  1  0.42276321  0.58468890  0.19737472  1
  Se  Se250  1  0.41344934  0.58299322  0.68499562  1
  Se  Se251  1  0.41808293  0.91743947  0.19723208  1
  Se  Se252  1  0.41517451  0.92045955  0.69864156  1
  Se  Se253  1  0.74097817  0.25498718  0.20057742  1
  Se  Se254  1  0.75426204  0.25112746  0.68927687  1
  Se  Se255  1  0.75941071  0.57243584  0.18999619  1
  Se  Se256  1  0.74629724  0.58718045  0.69510412  1
  Se  Se257  1  0.76351290  0.91290183  0.18488669  1
  Se  Se258  1  0.74428858  0.92034147  0.70308715  1
