# generated using pymatgen
data_In86Cu29Se144
_symmetry_space_group_name_H-M   'P 1'
_cell_length_a   17.57811453
_cell_length_b   17.58169439
_cell_length_c   23.43769851
_cell_angle_alpha   89.98075744
_cell_angle_beta   89.99363726
_cell_angle_gamma   90.00417716
_symmetry_Int_Tables_number   1
_chemical_formula_structural   In86Cu29Se144
_chemical_formula_sum   'In86 Cu29 Se144'
_cell_volume   7243.49144659
_cell_formula_units_Z   1
loop_
 _symmetry_equiv_pos_site_id
 _symmetry_equiv_pos_as_xyz
  1  'x, y, z'
loop_
 _atom_site_type_symbol
 _atom_site_label
 _atom_site_symmetry_multiplicity
 _atom_site_fract_x
 _atom_site_fract_y
 _atom_site_fract_z
 _atom_site_occupancy
  In  In0  1  -0.00305399  0.18297105  0.11985206  1
  In  In1  1  0.01130566  0.16931008  0.63096189  1
  In  In2  1  0.00806467  0.52028444  0.10475248  1
  In  In3  1  -0.00598667  0.49762840  0.62591868  1
  In  In4  1  0.00801365  0.80188052  0.13627161  1
  In  In5  1  -0.00930533  0.84544548  0.62211555  1
  In  In6  1  0.34423853  0.15640178  0.11779044  1
  In  In7  1  0.34716762  0.16915745  0.64976597  1
  In  In8  1  0.33872165  0.51021101  0.11510905  1
  In  In9  1  0.33483402  0.50355909  0.63055343  1
  In  In10  1  0.32681636  0.83371111  0.12865599  1
  In  In11  1  0.33203959  0.82592271  0.63257363  1
  In  In12  1  0.66472159  0.16928883  0.11354137  1
  In  In13  1  0.65144812  0.17398940  0.64325836  1
  In  In14  1  0.65996608  0.49284340  0.11424075  1
  In  In15  1  0.66958242  0.50109472  0.62544954  1
  In  In16  1  0.67745181  0.84905059  0.13433638  1
  In  In17  1  0.66884425  0.82964886  0.63016185  1
  In  In18  1  0.17314730  -0.02270371  0.37023008  1
  In  In19  1  0.17427174  -0.01326735  0.88359365  1
  In  In20  1  0.17983035  0.34573264  0.37662355  1
  In  In21  1  0.18050083  0.34371229  0.86680776  1
  In  In22  1  0.16262777  0.66264118  0.36572331  1
  In  In23  1  0.20024489  0.63774711  0.91661305  1
  In  In24  1  0.49400889  -0.01698137  0.35473110  1
  In  In25  1  0.51334076  0.01363908  0.86049578  1
  In  In26  1  0.51093042  0.33056049  0.37528568  1
  In  In27  1  0.50606119  0.33666035  0.87933605  1
  In  In28  1  0.48833480  0.65953856  0.37248426  1
  In  In29  1  0.48671400  0.65519784  0.87466919  1
  In  In30  1  0.80970151  -0.00367140  0.37027401  1
  In  In31  1  0.83223000  0.01492256  0.87898474  1
  In  In32  1  0.83305547  0.35116782  0.37319636  1
  In  In33  1  0.82953855  0.33456208  0.87067282  1
  In  In34  1  0.83635599  0.65217321  0.37685454  1
  In  In35  1  0.81813249  0.66878803  0.87403536  1
  In  In36  1  -0.00291205  0.17162718  0.37245919  1
  In  In37  1  -0.01757435  0.16922577  0.88008449  1
  In  In38  1  -0.00542765  0.51266161  0.37887861  1
  In  In39  1  0.01355335  0.50152574  0.88279611  1
  In  In40  1  -0.00225874  0.80151636  0.36431536  1
  In  In41  1  0.01022750  0.83616901  0.88355806  1
  In  In42  1  0.35031770  0.15580449  0.37710612  1
  In  In43  1  0.35376793  0.18350232  0.85982328  1
  In  In44  1  0.32357921  0.50376051  0.38448224  1
  In  In45  1  0.34300262  0.49838252  0.88187750  1
  In  In46  1  0.31951502  0.81645108  0.34318436  1
  In  In47  1  0.32815715  0.82748341  0.87155677  1
  In  In48  1  0.65349901  0.16514649  0.36734044  1
  In  In49  1  0.66395438  0.17275800  0.87324553  1
  In  In50  1  0.67510878  0.49329073  0.37584105  1
  In  In51  1  0.66377053  0.49735785  0.87763847  1
  In  In52  1  0.66182605  0.84490694  0.37282066  1
  In  In53  1  0.66477486  0.83028649  0.86830197  1
  In  In54  1  0.19090922  -0.00217281  0.12581499  1
  In  In55  1  0.16947210  0.00474913  0.62807603  1
  In  In56  1  0.15446672  0.34509839  0.12051952  1
  In  In57  1  0.16025357  0.34297946  0.64053703  1
  In  In58  1  0.16657682  0.66786944  0.12199038  1
  In  In59  1  0.18154284  0.66494214  0.62786142  1
  In  In60  1  0.49344475  0.00286749  0.12444580  1
  In  In61  1  0.49707790  0.00078186  0.63529956  1
  In  In62  1  0.51963214  0.34378882  0.10450795  1
  In  In63  1  0.49354562  0.34134840  0.63888318  1
  In  In64  1  0.49240154  0.66061803  0.12584721  1
  In  In65  1  0.51034922  0.65387073  0.63333645  1
  In  In66  1  0.81544600  -0.00587033  0.12529728  1
  In  In67  1  0.82947438  -0.00902974  0.61994625  1
  In  In68  1  0.81879411  0.33467636  0.10659197  1
  In  In69  1  0.82167866  0.34351865  0.63507898  1
  In  In70  1  0.84881006  0.66844332  0.12546382  1
  In  In71  1  0.82837935  0.66058776  0.61959738  1
  In  In72  1  -0.00159888  -0.00510615  0.24284863  1
  In  In73  1  -0.00925109  0.34364679  0.24300728  1
  In  In74  1  0.83685392  0.83246492  0.01103829  1
  In  In75  1  0.49188610  0.82941615  0.00444123  1
  In  In76  1  0.66229444  0.66968324  0.24797890  1
  In  In77  1  0.16371408  0.81950647  0.49234833  1
  In  In78  1  -0.00065349  0.00269689  0.75337581  1
  In  In79  1  0.16974368  0.16913366  -0.00051632  1
  In  In80  1  0.82568561  0.17393019  0.50901454  1
  In  In81  1  0.49829707  0.83049454  0.49186508  1
  In  In82  1  0.00431450  0.66754687  0.75829864  1
  In  In83  1  0.33829922  0.32915736  0.24619238  1
  In  In84  1  0.16635532  0.17416225  0.51162933  1
  In  In85  1  0.49969167  0.16780906  0.50900211  1
  Cu  Cu86  1  0.16512805  0.16607851  0.75547725  1
  Cu  Cu87  1  0.33000544  0.34257005  0.51117605  1
  Cu  Cu88  1  0.49747521  0.83274584  0.75234602  1
  Cu  Cu89  1  0.82907515  0.17077129  0.75416312  1
  Cu  Cu90  1  0.51008392  0.16800683  0.24126941  1
  Cu  Cu91  1  0.49662443  0.49113991  0.24049353  1
  Cu  Cu92  1  0.81901957  0.16926807  0.24002979  1
  Cu  Cu93  1  0.67171404  0.66407697  0.50428260  1
  Cu  Cu94  1  0.00260412  0.34456743  0.50536763  1
  Cu  Cu95  1  0.16395433  0.50891017  0.24492143  1
  Cu  Cu96  1  0.82824193  0.49865140  0.74985647  1
  Cu  Cu97  1  0.83339786  0.50082690  0.24546098  1
  Cu  Cu98  1  0.67137202  0.34432676  0.50059233  1
  Cu  Cu99  1  0.34188042  0.00113392  -0.00465578  1
  Cu  Cu100  1  0.33515417  0.33573726  -0.00645270  1
  Cu  Cu101  1  0.17220455  0.15976424  0.24955924  1
  Cu  Cu102  1  -0.01652756  -0.00586402  0.49310419  1
  Cu  Cu103  1  0.33989677  0.65901659  0.50116351  1
  Cu  Cu104  1  0.50018506  0.50156146  0.75517172  1
  Cu  Cu105  1  0.83254817  0.83496469  0.74964881  1
  Cu  Cu106  1  0.17155323  0.82675080  0.75678241  1
  Cu  Cu107  1  0.66154625  0.66228630  0.00144268  1
  Cu  Cu108  1  0.66100268  0.00051946  0.49699793  1
  Cu  Cu109  1  0.33118616  -0.00556989  0.49638312  1
  Cu  Cu110  1  -0.00828483  0.33453439  -0.00664259  1
  Cu  Cu111  1  0.66848088  0.00460402  -0.00466454  1
  Cu  Cu112  1  0.00276501  -0.00303499  0.00724592  1
  Cu  Cu113  1  0.00264984  0.66112172  0.49866517  1
  Cu  Cu114  1  0.17668791  0.50414259  0.76039218  1
  Se  Se115  1  0.08460044  0.08035058  0.06585328  1
  Se  Se116  1  0.06859827  0.06906653  0.55502877  1
  Se  Se117  1  0.07884038  0.41700769  0.04398943  1
  Se  Se118  1  0.08901243  0.41966973  0.56162378  1
  Se  Se119  1  0.07513750  0.74135600  0.05167732  1
  Se  Se120  1  0.07528296  0.74233428  0.56501005  1
  Se  Se121  1  0.42796711  0.08458851  0.04470743  1
  Se  Se122  1  0.40192049  0.07554953  0.56249463  1
  Se  Se123  1  0.41595444  0.41954125  0.04932678  1
  Se  Se124  1  0.42049881  0.41919857  0.56242533  1
  Se  Se125  1  0.39895879  0.73740042  0.05675163  1
  Se  Se126  1  0.41563526  0.74330758  0.56025637  1
  Se  Se127  1  0.75520560  0.08249561  0.04973060  1
  Se  Se128  1  0.73131394  0.08188873  0.56322195  1
  Se  Se129  1  0.73750308  0.41732126  0.03793769  1
  Se  Se130  1  0.75783038  0.42228973  0.55449562  1
  Se  Se131  1  0.73689336  0.74378614  0.06419802  1
  Se  Se132  1  0.74889677  0.75351763  0.55601650  1
  Se  Se133  1  0.25749026  0.26076784  0.06201620  1
  Se  Se134  1  0.26187655  0.25341513  0.57430651  1
  Se  Se135  1  0.23134598  0.56799481  0.05471473  1
  Se  Se136  1  0.25229139  0.58079006  0.55524234  1
  Se  Se137  1  0.25971026  0.91776084  0.04934905  1
  Se  Se138  1  0.24880487  0.91521945  0.55650963  1
  Se  Se139  1  0.58730339  0.24803938  0.03974242  1
  Se  Se140  1  0.59174088  0.26285497  0.56159030  1
  Se  Se141  1  0.57335887  0.58344707  0.05353892  1
  Se  Se142  1  0.58508300  0.58238113  0.55489981  1
  Se  Se143  1  0.59305694  0.91995607  0.05601020  1
  Se  Se144  1  0.58025427  0.92056724  0.55812687  1
  Se  Se145  1  0.91206720  0.24888282  0.04633452  1
  Se  Se146  1  0.92565139  0.25913065  0.56464317  1
  Se  Se147  1  0.89526898  0.57681943  0.04854735  1
  Se  Se148  1  0.91848686  0.58177866  0.55457272  1
  Se  Se149  1  0.92771226  0.91957161  0.07191014  1
  Se  Se150  1  0.90464678  0.90854520  0.54634286  1
  Se  Se151  1  0.07824703  0.26037345  0.44283088  1
  Se  Se152  1  0.08230700  0.25713757  0.93630056  1
  Se  Se153  1  0.09079370  0.58558520  0.44397946  1
  Se  Se154  1  0.06610373  0.60356046  0.95182434  1
  Se  Se155  1  0.07076136  0.91432149  0.43734787  1
  Se  Se156  1  0.08798799  0.91610891  0.95642226  1
  Se  Se157  1  0.40733813  0.26084426  0.44836119  1
  Se  Se158  1  0.41849291  0.24884634  0.94551455  1
  Se  Se159  1  0.42272912  0.57467725  0.44881028  1
  Se  Se160  1  0.41109692  0.58899193  0.95381615  1
  Se  Se161  1  0.40463950  0.91659713  0.43226667  1
  Se  Se162  1  0.42037832  0.92041472  0.93395097  1
  Se  Se163  1  0.74100518  0.25552028  0.43776838  1
  Se  Se164  1  0.76875561  0.23277100  0.93668344  1
  Se  Se165  1  0.75073551  0.57800576  0.44788732  1
  Se  Se166  1  0.74706312  0.58447933  0.94657228  1
  Se  Se167  1  0.74560368  0.91430863  0.44927030  1
  Se  Se168  1  0.74788353  0.91637167  0.94155531  1
  Se  Se169  1  0.24799805  0.08127152  0.44290685  1
  Se  Se170  1  0.26211265  0.08676926  0.93747215  1
  Se  Se171  1  0.24408269  0.42136649  0.45672819  1
  Se  Se172  1  0.24676471  0.41890151  0.94705058  1
  Se  Se173  1  0.26651986  0.74102205  0.43574986  1
  Se  Se174  1  0.24235630  0.77053664  0.95014245  1
  Se  Se175  1  0.57422918  0.07490000  0.43808179  1
  Se  Se176  1  0.58282157  0.08360100  0.94240754  1
  Se  Se177  1  0.58274106  0.41930470  0.44516668  1
  Se  Se178  1  0.58928914  0.41348017  0.95081945  1
  Se  Se179  1  0.59251699  0.73709033  0.43755024  1
  Se  Se180  1  0.58612209  0.74566246  0.94131294  1
  Se  Se181  1  0.90935527  0.08542403  0.43891507  1
  Se  Se182  1  0.91997977  0.07865151  0.95407013  1
  Se  Se183  1  0.91855997  0.42058359  0.44611550  1
  Se  Se184  1  0.91451732  0.41977747  0.93851065  1
  Se  Se185  1  0.91788737  0.74181187  0.44483289  1
  Se  Se186  1  0.91472893  0.74773466  0.94043584  1
  Se  Se187  1  0.24917375  0.23997836  0.31299333  1
  Se  Se188  1  0.25414426  0.25492576  0.79769543  1
  Se  Se189  1  0.25324879  0.57817453  0.30414890  1
  Se  Se190  1  0.25122575  0.58667079  0.82005600  1
  Se  Se191  1  0.26554521  0.93513144  0.29322175  1
  Se  Se192  1  0.25095095  0.91983439  0.80343569  1
  Se  Se193  1  0.58432987  0.25689130  0.29698081  1
  Se  Se194  1  0.56849802  0.24339051  0.80528854  1
  Se  Se195  1  0.57716152  0.56953753  0.30538495  1
  Se  Se196  1  0.58365954  0.58550497  0.80906502  1
  Se  Se197  1  0.59787758  0.92231967  0.29351983  1
  Se  Se198  1  0.58755185  0.91526495  0.79916675  1
  Se  Se199  1  0.90229238  0.24576085  0.30268975  1
  Se  Se200  1  0.91918428  0.25131480  0.80215108  1
  Se  Se201  1  0.91789414  0.58176244  0.29945690  1
  Se  Se202  1  0.90839055  0.57722152  0.81132509  1
  Se  Se203  1  0.91830317  0.91625627  0.31689792  1
  Se  Se204  1  0.91107350  0.91109718  0.81388806  1
  Se  Se205  1  0.08786296  0.08465186  0.30954037  1
  Se  Se206  1  0.08723952  0.08689073  0.81825012  1
  Se  Se207  1  0.08810179  0.42358188  0.30722572  1
  Se  Se208  1  0.08393500  0.42194598  0.80527066  1
  Se  Se209  1  0.11074587  0.76954919  0.30045770  1
  Se  Se210  1  0.09627646  0.74937035  0.81980174  1
  Se  Se211  1  0.42333394  0.08865089  0.29663670  1
  Se  Se212  1  0.39435079  0.06177628  0.80729183  1
  Se  Se213  1  0.41903003  0.41983575  0.31153764  1
  Se  Se214  1  0.41871068  0.41672380  0.80871229  1
  Se  Se215  1  0.43817967  0.75641676  0.30041013  1
  Se  Se216  1  0.41622867  0.74767822  0.80528234  1
  Se  Se217  1  0.74229948  0.08752468  0.29981390  1
  Se  Se218  1  0.74839416  0.08280725  0.80497662  1
  Se  Se219  1  0.74900870  0.41693382  0.29726945  1
  Se  Se220  1  0.74358259  0.41694751  0.80343755  1
  Se  Se221  1  0.75212426  0.74871342  0.31467997  1
  Se  Se222  1  0.74741149  0.74907166  0.79804553  1
  Se  Se223  1  0.26186687  0.08802333  0.19520837  1
  Se  Se224  1  0.24657898  0.08246597  0.70064225  1
  Se  Se225  1  0.24375601  0.42155837  0.19075529  1
  Se  Se226  1  0.25574389  0.41997501  0.70221625  1
  Se  Se227  1  0.24988008  0.74240059  0.19399872  1
  Se  Se228  1  0.25452388  0.74224632  0.70381038  1
  Se  Se229  1  0.58883754  0.08312976  0.18599756  1
  Se  Se230  1  0.58998031  0.06875792  0.70217325  1
  Se  Se231  1  0.58465429  0.41241255  0.19018509  1
  Se  Se232  1  0.58673826  0.42345593  0.69848393  1
  Se  Se233  1  0.57575940  0.76002037  0.18571511  1
  Se  Se234  1  0.58191957  0.75079015  0.69730947  1
  Se  Se235  1  0.91099060  0.09489765  0.18613343  1
  Se  Se236  1  0.90658295  0.08933472  0.68997700  1
  Se  Se237  1  0.90729374  0.42601178  0.17557079  1
  Se  Se238  1  0.91809054  0.41756630  0.69953868  1
  Se  Se239  1  0.89778124  0.76228727  0.20132607  1
  Se  Se240  1  0.91515643  0.75491628  0.69227112  1
  Se  Se241  1  0.09249600  0.24609756  0.19559797  1
  Se  Se242  1  0.08031661  0.25133979  0.70536343  1
  Se  Se243  1  0.07548902  0.58468364  0.19053860  1
  Se  Se244  1  0.09305594  0.57796315  0.69543297  1
  Se  Se245  1  0.09401058  0.91118189  0.18550643  1
  Se  Se246  1  0.09080561  0.90593185  0.69597456  1
  Se  Se247  1  0.42931026  0.24970595  0.18145574  1
  Se  Se248  1  0.44953265  0.23557701  0.71018246  1
  Se  Se249  1  0.41122795  0.57977859  0.19729731  1
  Se  Se250  1  0.41572361  0.58593542  0.70163958  1
  Se  Se251  1  0.41452057  0.91882758  0.19069560  1
  Se  Se252  1  0.41125411  0.91354753  0.69805660  1
  Se  Se253  1  0.74519233  0.25623823  0.18371608  1
  Se  Se254  1  0.74456754  0.25575086  0.70307949  1
  Se  Se255  1  0.74909308  0.57847050  0.18550473  1
  Se  Se256  1  0.75099623  0.58609995  0.69535557  1
  Se  Se257  1  0.76385999  0.91301564  0.20845635  1
  Se  Se258  1  0.75076319  0.91887441  0.69582590  1
