# generated using pymatgen
data_In86Cu29Se144
_symmetry_space_group_name_H-M   'P 1'
_cell_length_a   17.57649547
_cell_length_b   17.57521407
_cell_length_c   23.43857878
_cell_angle_alpha   90.00576562
_cell_angle_beta   90.00384221
_cell_angle_gamma   90.02166098
_symmetry_Int_Tables_number   1
_chemical_formula_structural   In86Cu29Se144
_chemical_formula_sum   'In86 Cu29 Se144'
_cell_volume   7240.42651405
_cell_formula_units_Z   1
loop_
 _symmetry_equiv_pos_site_id
 _symmetry_equiv_pos_as_xyz
  1  'x, y, z'
loop_
 _atom_site_type_symbol
 _atom_site_label
 _atom_site_symmetry_multiplicity
 _atom_site_fract_x
 _atom_site_fract_y
 _atom_site_fract_z
 _atom_site_occupancy
  In  In0  1  0.00374425  0.16775794  0.12439561  1
  In  In1  1  0.00308825  0.15925198  0.62489465  1
  In  In2  1  0.00610217  0.47978371  0.12881039  1
  In  In3  1  -0.01262703  0.49241307  0.62986511  1
  In  In4  1  0.01379093  0.84182267  0.12563019  1
  In  In5  1  0.00210199  0.86440131  0.63038381  1
  In  In6  1  0.32669550  0.17698541  0.13214964  1
  In  In7  1  0.31035078  0.15455617  0.59907926  1
  In  In8  1  0.33256595  0.49525969  0.11977797  1
  In  In9  1  0.34107900  0.49786023  0.62801547  1
  In  In10  1  0.34048389  0.82621165  0.12963487  1
  In  In11  1  0.31792358  0.83468644  0.64281972  1
  In  In12  1  0.66333326  0.15092052  0.12488560  1
  In  In13  1  0.67341695  0.16971296  0.62168372  1
  In  In14  1  0.66639917  0.51588087  0.12631506  1
  In  In15  1  0.66266002  0.49710999  0.63416104  1
  In  In16  1  0.65210590  0.84574494  0.12925835  1
  In  In17  1  0.66414055  0.82305839  0.62463295  1
  In  In18  1  0.18454687  0.02358678  0.36453210  1
  In  In19  1  0.18169819  0.01183005  0.86737146  1
  In  In20  1  0.16029991  0.32800710  0.37025012  1
  In  In21  1  0.15636988  0.34188214  0.87734427  1
  In  In22  1  0.18025375  0.65926162  0.36915666  1
  In  In23  1  0.17407988  0.64813819  0.87569733  1
  In  In24  1  0.50004396  0.00323978  0.37349079  1
  In  In25  1  0.47838085  -0.00091566  0.87941932  1
  In  In26  1  0.47903683  0.32539925  0.38005503  1
  In  In27  1  0.51272450  0.33566903  0.87788065  1
  In  In28  1  0.49211369  0.65973261  0.36634658  1
  In  In29  1  0.49867548  0.66906947  0.87937329  1
  In  In30  1  0.83223679  0.00274765  0.37275966  1
  In  In31  1  0.85118590  0.00973651  0.86573310  1
  In  In32  1  0.83597452  0.31640804  0.37717864  1
  In  In33  1  0.83007790  0.32288300  0.86758597  1
  In  In34  1  0.83273815  0.68345778  0.37425545  1
  In  In35  1  0.82776086  0.67696111  0.86900910  1
  In  In36  1  0.00126230  0.16658506  0.37265651  1
  In  In37  1  0.00364430  0.17098379  0.87348105  1
  In  In38  1  0.01469686  0.48871857  0.36822126  1
  In  In39  1  0.02008876  0.48741738  0.87429783  1
  In  In40  1  -0.01692117  0.84126749  0.37823685  1
  In  In41  1  -0.00474384  0.83839190  0.87025393  1
  In  In42  1  0.32994278  0.16142724  0.38326892  1
  In  In43  1  0.32553434  0.14634216  0.87658624  1
  In  In44  1  0.31465059  0.49230379  0.35199401  1
  In  In45  1  0.32141712  0.51212042  0.88345208  1
  In  In46  1  0.33637464  0.83857085  0.37048217  1
  In  In47  1  0.34455483  0.85078308  0.86809721  1
  In  In48  1  0.67937772  0.16063708  0.38205590  1
  In  In49  1  0.66969513  0.18012450  0.86962092  1
  In  In50  1  0.64972323  0.50153643  0.37099472  1
  In  In51  1  0.65915404  0.49697892  0.87533324  1
  In  In52  1  0.67004620  0.84398768  0.36862444  1
  In  In53  1  0.66780566  0.82200445  0.87210903  1
  In  In54  1  0.15948475  0.00857014  0.13318268  1
  In  In55  1  0.16141958  0.00253934  0.63177815  1
  In  In56  1  0.17270693  0.33131615  0.12363255  1
  In  In57  1  0.17455938  0.31380527  0.62427790  1
  In  In58  1  0.18307733  0.66602650  0.12504211  1
  In  In59  1  0.17250687  0.67552904  0.63211931  1
  In  In60  1  0.50232353  -0.00438890  0.13017350  1
  In  In61  1  0.47840775  0.00590037  0.62089702  1
  In  In62  1  0.48158999  0.32900276  0.12489191  1
  In  In63  1  0.50270886  0.32794057  0.62724436  1
  In  In64  1  0.49933879  0.66870979  0.12168239  1
  In  In65  1  0.49688335  0.66877028  0.63290055  1
  In  In66  1  0.82500316  0.01042646  0.12835871  1
  In  In67  1  0.84745917  0.01511531  0.61444030  1
  In  In68  1  0.85281099  0.33087923  0.12924420  1
  In  In69  1  0.85335731  0.29967920  0.65099852  1
  In  In70  1  0.82457100  0.66110983  0.12653146  1
  In  In71  1  0.82026142  0.66521633  0.62497967  1
  In  In72  1  0.33321478  0.33373835  0.74861176  1
  In  In73  1  0.49786935  0.16633217  0.00069630  1
  In  In74  1  0.16670273  0.49310492  0.49439694  1
  In  In75  1  0.17574652  0.83797779  -0.00309786  1
  In  In76  1  0.49585005  0.49409392  0.50442094  1
  In  In77  1  0.83408462  0.49596982  0.00124828  1
  In  In78  1  0.82531563  0.49379100  0.50532782  1
  In  In79  1  0.00072813  0.66268302  0.75256558  1
  In  In80  1  0.49907952  0.83766747  0.49649161  1
  In  In81  1  -0.00055418  0.67361333  0.24944183  1
  In  In82  1  0.83270677  0.84007836  -0.00692715  1
  In  In83  1  0.16219588  0.84370072  0.50522410  1
  In  In84  1  0.67004068  0.00367103  0.74955718  1
  In  In85  1  0.66562939  0.33102027  0.25509793  1
  Cu  Cu86  1  0.49756376  0.50463055  0.24320142  1
  Cu  Cu87  1  0.65862956  0.67256178  0.00145542  1
  Cu  Cu88  1  -0.00386935  0.32503587  0.50254193  1
  Cu  Cu89  1  0.82538923  0.49633291  0.75369570  1
  Cu  Cu90  1  0.66675468  0.00211535  0.00048559  1
  Cu  Cu91  1  0.00202199  0.01039869  -0.00116972  1
  Cu  Cu92  1  0.49773879  0.50721208  0.75585495  1
  Cu  Cu93  1  0.82644755  0.83989613  0.25055908  1
  Cu  Cu94  1  0.49837336  0.82776699  0.24945498  1
  Cu  Cu95  1  0.00632095  0.32393934  0.00161745  1
  Cu  Cu96  1  -0.00039557  0.00595994  0.49554058  1
  Cu  Cu97  1  0.49502261  0.16195453  0.25274519  1
  Cu  Cu98  1  0.66860240  0.67217433  0.49897620  1
  Cu  Cu99  1  0.34013432  0.66674908  0.00216085  1
  Cu  Cu100  1  0.16564421  0.17187707  0.24986313  1
  Cu  Cu101  1  0.83456734  0.50052316  0.24792049  1
  Cu  Cu102  1  0.16466772  0.16434306  0.74822052  1
  Cu  Cu103  1  0.67267587  -0.00401295  0.49716080  1
  Cu  Cu104  1  0.83444191  0.83700381  0.74633541  1
  Cu  Cu105  1  0.33796252  0.66719149  0.50028822  1
  Cu  Cu106  1  0.66893184  0.32793054  0.50758462  1
  Cu  Cu107  1  -0.00015452  0.67584263  0.49808645  1
  Cu  Cu108  1  0.50103384  0.83197974  0.75042798  1
  Cu  Cu109  1  0.49300682  0.16640593  0.75154444  1
  Cu  Cu110  1  0.16519375  0.84101973  0.25176791  1
  Cu  Cu111  1  0.67269742  0.33398915  -0.00258545  1
  Cu  Cu112  1  0.33023912  0.33112310  0.00130897  1
  Cu  Cu113  1  0.00843339  0.65606374  -0.00167982  1
  Cu  Cu114  1  0.83845512  0.16467334  0.25149528  1
  Se  Se115  1  0.08828766  0.08619630  0.05484442  1
  Se  Se116  1  0.08652888  0.07897849  0.55434541  1
  Se  Se117  1  0.08708512  0.41302814  0.05248354  1
  Se  Se118  1  0.07475076  0.41032974  0.56003020  1
  Se  Se119  1  0.08227146  0.74361586  0.05645300  1
  Se  Se120  1  0.07481288  0.74936386  0.56482485  1
  Se  Se121  1  0.41172318  0.08292198  0.06541959  1
  Se  Se122  1  0.42784003  0.09993423  0.54574696  1
  Se  Se123  1  0.41867422  0.41459827  0.04886592  1
  Se  Se124  1  0.40312800  0.39988852  0.55686015  1
  Se  Se125  1  0.42008852  0.75539761  0.05240337  1
  Se  Se126  1  0.41032702  0.75122515  0.56202349  1
  Se  Se127  1  0.75148920  0.08642972  0.04986742  1
  Se  Se128  1  0.75045281  0.08566238  0.55050280  1
  Se  Se129  1  0.74634961  0.40937026  0.06670684  1
  Se  Se130  1  0.74725909  0.40387167  0.57114807  1
  Se  Se131  1  0.74481228  0.75194187  0.05806364  1
  Se  Se132  1  0.75221689  0.75376078  0.55151200  1
  Se  Se133  1  0.24921165  0.24417458  0.05211262  1
  Se  Se134  1  0.23950072  0.25407931  0.53828606  1
  Se  Se135  1  0.25188946  0.58284060  0.05028211  1
  Se  Se136  1  0.25343498  0.58704896  0.55760075  1
  Se  Se137  1  0.25274507  0.92177369  0.06816095  1
  Se  Se138  1  0.26099319  0.92405269  0.56254218  1
  Se  Se139  1  0.59028626  0.25654027  0.06116801  1
  Se  Se140  1  0.58028914  0.24576926  0.55570253  1
  Se  Se141  1  0.58113122  0.58210837  0.05198762  1
  Se  Se142  1  0.58854865  0.59100666  0.55839670  1
  Se  Se143  1  0.58015560  0.92185420  0.05147671  1
  Se  Se144  1  0.58775562  0.92531647  0.56101267  1
  Se  Se145  1  0.91603325  0.24639238  0.05315506  1
  Se  Se146  1  0.91408061  0.24502037  0.55933536  1
  Se  Se147  1  0.92559741  0.58588430  0.06264285  1
  Se  Se148  1  0.92203774  0.59028910  0.55675066  1
  Se  Se149  1  0.92334373  0.92436483  0.05725747  1
  Se  Se150  1  0.91954879  0.91765861  0.54870763  1
  Se  Se151  1  0.08127934  0.25027250  0.44402129  1
  Se  Se152  1  0.09092368  0.24487409  0.94587003  1
  Se  Se153  1  0.07704361  0.59387828  0.43928406  1
  Se  Se154  1  0.09078531  0.57209859  0.94822064  1
  Se  Se155  1  0.08176381  0.92772813  0.43479864  1
  Se  Se156  1  0.07616295  0.92288373  0.94068470  1
  Se  Se157  1  0.42597943  0.23111868  0.45292909  1
  Se  Se158  1  0.40863615  0.25320892  0.93645265  1
  Se  Se159  1  0.40728797  0.58007320  0.43956488  1
  Se  Se160  1  0.42067854  0.58050209  0.94780616  1
  Se  Se161  1  0.40351431  0.92908273  0.44549429  1
  Se  Se162  1  0.41020898  0.91638911  0.95314094  1
  Se  Se163  1  0.75476704  0.24824355  0.45290088  1
  Se  Se164  1  0.75297679  0.24879382  0.94581038  1
  Se  Se165  1  0.74208527  0.58496242  0.43887371  1
  Se  Se166  1  0.74680484  0.59469309  0.94421248  1
  Se  Se167  1  0.75435795  0.91331265  0.44299887  1
  Se  Se168  1  0.74514637  0.93051887  0.93153320  1
  Se  Se169  1  0.24066874  0.08560285  0.45317928  1
  Se  Se170  1  0.24806813  0.07550512  0.95238851  1
  Se  Se171  1  0.26176219  0.40909419  0.43657384  1
  Se  Se172  1  0.24790887  0.41476963  0.94638486  1
  Se  Se173  1  0.25304889  0.74870863  0.44447090  1
  Se  Se174  1  0.26057893  0.74341288  0.93777703  1
  Se  Se175  1  0.58827554  0.07754213  0.44377646  1
  Se  Se176  1  0.58804551  0.08118286  0.93531020  1
  Se  Se177  1  0.58933520  0.40404373  0.44416648  1
  Se  Se178  1  0.58501904  0.41910328  0.95220499  1
  Se  Se179  1  0.58375910  0.74273835  0.43620738  1
  Se  Se180  1  0.58062178  0.75864573  0.94681091  1
  Se  Se181  1  0.91426175  0.08719702  0.44162638  1
  Se  Se182  1  0.91662909  0.08942228  0.94400472  1
  Se  Se183  1  0.92388314  0.41357808  0.44248636  1
  Se  Se184  1  0.92428419  0.40708525  0.94197888  1
  Se  Se185  1  0.91011518  0.75602965  0.45078272  1
  Se  Se186  1  0.92680006  0.73906883  0.94288979  1
  Se  Se187  1  0.25229784  0.24470834  0.30960151  1
  Se  Se188  1  0.24510524  0.24336175  0.81081964  1
  Se  Se189  1  0.25146747  0.59266200  0.28890372  1
  Se  Se190  1  0.25024143  0.57491639  0.79942614  1
  Se  Se191  1  0.25358036  0.92154474  0.30286248  1
  Se  Se192  1  0.24419614  0.91201667  0.80195296  1
  Se  Se193  1  0.57631065  0.24171224  0.31475065  1
  Se  Se194  1  0.57770740  0.25121806  0.80086072  1
  Se  Se195  1  0.58271802  0.58627562  0.29680802  1
  Se  Se196  1  0.58416802  0.58840255  0.80880325  1
  Se  Se197  1  0.57722775  0.91666086  0.30302897  1
  Se  Se198  1  0.57790063  0.91645800  0.81108067  1
  Se  Se199  1  0.92046899  0.25243692  0.30148566  1
  Se  Se200  1  0.92808072  0.25765651  0.80308823  1
  Se  Se201  1  0.91308389  0.57957229  0.31289798  1
  Se  Se202  1  0.90984787  0.57266630  0.81518221  1
  Se  Se203  1  0.91461600  0.92077415  0.30091580  1
  Se  Se204  1  0.92168073  0.91889730  0.79564572  1
  Se  Se205  1  0.08066043  0.08503320  0.30061936  1
  Se  Se206  1  0.08257516  0.08191712  0.80403568  1
  Se  Se207  1  0.10695847  0.42835438  0.29869412  1
  Se  Se208  1  0.08375188  0.40927370  0.79563087  1
  Se  Se209  1  0.08767183  0.76043110  0.31509638  1
  Se  Se210  1  0.09020483  0.74890671  0.81451310  1
  Se  Se211  1  0.40996022  0.08206196  0.30776098  1
  Se  Se212  1  0.41106798  0.07893320  0.80105881  1
  Se  Se213  1  0.42618304  0.41933103  0.30436304  1
  Se  Se214  1  0.41961144  0.42160798  0.81425964  1
  Se  Se215  1  0.41046141  0.74820009  0.30254669  1
  Se  Se216  1  0.41877325  0.75122246  0.80748454  1
  Se  Se217  1  0.74856982  0.08484959  0.30224830  1
  Se  Se218  1  0.76200234  0.09862886  0.80160670  1
  Se  Se219  1  0.75789474  0.42276071  0.31453387  1
  Se  Se220  1  0.74287656  0.41385164  0.80833638  1
  Se  Se221  1  0.74616924  0.75109610  0.30128438  1
  Se  Se222  1  0.74877815  0.75203453  0.79498600  1
  Se  Se223  1  0.25047619  0.08590627  0.19970408  1
  Se  Se224  1  0.25348724  0.09138834  0.68985938  1
  Se  Se225  1  0.26553051  0.40390735  0.19054758  1
  Se  Se226  1  0.23991582  0.42082518  0.68866827  1
  Se  Se227  1  0.24623805  0.75562145  0.19857468  1
  Se  Se228  1  0.26477751  0.72787784  0.70646270  1
  Se  Se229  1  0.58216687  0.08158522  0.20028494  1
  Se  Se230  1  0.57321815  0.08643895  0.68942094  1
  Se  Se231  1  0.57973863  0.41778248  0.18810136  1
  Se  Se232  1  0.57135851  0.41882618  0.69849503  1
  Se  Se233  1  0.58329289  0.74768608  0.19410350  1
  Se  Se234  1  0.58543158  0.74826972  0.69933418  1
  Se  Se235  1  0.91939092  0.08363892  0.19361036  1
  Se  Se236  1  0.92525414  0.07364617  0.69500273  1
  Se  Se237  1  0.92164194  0.41367176  0.20498117  1
  Se  Se238  1  0.91392513  0.41442731  0.70464309  1
  Se  Se239  1  0.90722628  0.76264122  0.18661521  1
  Se  Se240  1  0.91560951  0.75374811  0.68673739  1
  Se  Se241  1  0.08382625  0.25325299  0.19325891  1
  Se  Se242  1  0.08277025  0.24770624  0.69422358  1
  Se  Se243  1  0.08518464  0.58369975  0.18813995  1
  Se  Se244  1  0.08700649  0.57426518  0.68884939  1
  Se  Se245  1  0.07766437  0.92323136  0.20284028  1
  Se  Se246  1  0.11049688  0.89544879  0.69825729  1
  Se  Se247  1  0.41452568  0.25174279  0.20359839  1
  Se  Se248  1  0.41035225  0.23683234  0.68606458  1
  Se  Se249  1  0.41430193  0.58396370  0.18757987  1
  Se  Se250  1  0.41354161  0.58420745  0.69890548  1
  Se  Se251  1  0.41645009  0.91559962  0.19854891  1
  Se  Se252  1  0.41898152  0.91577136  0.69651131  1
  Se  Se253  1  0.75392580  0.24398287  0.19088813  1
  Se  Se254  1  0.73118559  0.25526012  0.70015776  1
  Se  Se255  1  0.74827950  0.58625009  0.20251289  1
  Se  Se256  1  0.74779196  0.58317011  0.69898278  1
  Se  Se257  1  0.74439188  0.92259813  0.19430412  1
  Se  Se258  1  0.75549124  0.91634167  0.68387200  1
