# generated using pymatgen
data_In86Cu29Se144
_symmetry_space_group_name_H-M   'P 1'
_cell_length_a   17.57903995
_cell_length_b   17.57409656
_cell_length_c   23.42099319
_cell_angle_alpha   90.00545562
_cell_angle_beta   89.99186610
_cell_angle_gamma   89.99940508
_symmetry_Int_Tables_number   1
_chemical_formula_structural   In86Cu29Se144
_chemical_formula_sum   'In86 Cu29 Se144'
_cell_volume   7235.58188886
_cell_formula_units_Z   1
loop_
 _symmetry_equiv_pos_site_id
 _symmetry_equiv_pos_as_xyz
  1  'x, y, z'
loop_
 _atom_site_type_symbol
 _atom_site_label
 _atom_site_symmetry_multiplicity
 _atom_site_fract_x
 _atom_site_fract_y
 _atom_site_fract_z
 _atom_site_occupancy
  In  In0  1  -0.01095769  0.18306685  0.14064317  1
  In  In1  1  0.01185155  0.18293069  0.60612626  1
  In  In2  1  0.00062894  0.50113809  0.12819976  1
  In  In3  1  -0.01095858  0.48841428  0.60849404  1
  In  In4  1  -0.00074432  0.83096690  0.12838168  1
  In  In5  1  -0.00231038  0.84199281  0.62436464  1
  In  In6  1  0.34110538  0.18169561  0.13311204  1
  In  In7  1  0.34511920  0.19238706  0.58903360  1
  In  In8  1  0.33115353  0.50122622  0.12769488  1
  In  In9  1  0.33381914  0.49996246  0.61012596  1
  In  In10  1  0.31666204  0.82331292  0.12038635  1
  In  In11  1  0.32330257  0.82222077  0.63032063  1
  In  In12  1  0.67172325  0.16635549  0.13317448  1
  In  In13  1  0.67324996  0.16886475  0.61360174  1
  In  In14  1  0.67025915  0.49769178  0.12902953  1
  In  In15  1  0.66227923  0.49503731  0.61328711  1
  In  In16  1  0.67106476  0.81880705  0.12822503  1
  In  In17  1  0.67425155  0.82706235  0.62232908  1
  In  In18  1  0.16324716  0.02145749  0.37961309  1
  In  In19  1  0.15207791  0.00013442  0.87754788  1
  In  In20  1  0.16143425  0.33820644  0.37909241  1
  In  In21  1  0.16961217  0.35157724  0.87415352  1
  In  In22  1  0.15816367  0.65190522  0.36442779  1
  In  In23  1  0.17687791  0.65613956  0.88999610  1
  In  In24  1  0.49337411  0.01245904  0.38051891  1
  In  In25  1  0.49099435  0.00100365  0.87153005  1
  In  In26  1  0.50224305  0.32988272  0.37436033  1
  In  In27  1  0.50676904  0.33931082  0.87618333  1
  In  In28  1  0.48521769  0.65086159  0.36056839  1
  In  In29  1  0.49015022  0.66211366  0.87676592  1
  In  In30  1  0.84036944  -0.00828703  0.37798502  1
  In  In31  1  0.84330694  -0.00003913  0.88386119  1
  In  In32  1  0.84142190  0.34015063  0.37755090  1
  In  In33  1  0.83713359  0.32576738  0.88119357  1
  In  In34  1  0.83349757  0.66423954  0.37078164  1
  In  In35  1  0.83413673  0.66570124  0.88562939  1
  In  In36  1  0.00370706  0.17263843  0.37591313  1
  In  In37  1  -0.00964775  0.16629274  0.87304381  1
  In  In38  1  -0.00392306  0.49628517  0.37677393  1
  In  In39  1  0.00462573  0.49402263  0.87995326  1
  In  In40  1  -0.00727169  0.82055768  0.36496387  1
  In  In41  1  0.00071519  0.83414301  0.88727174  1
  In  In42  1  0.31958047  0.18713636  0.39351028  1
  In  In43  1  0.33565757  0.16664423  0.86944513  1
  In  In44  1  0.33042536  0.49337167  0.38011701  1
  In  In45  1  0.32548966  0.51396237  0.89153533  1
  In  In46  1  0.33802975  0.82898812  0.37000418  1
  In  In47  1  0.34137694  0.81081334  0.88075764  1
  In  In48  1  0.65517415  0.18656260  0.37968573  1
  In  In49  1  0.67123562  0.18038249  0.87386515  1
  In  In50  1  0.66891842  0.49938011  0.37012926  1
  In  In51  1  0.66433106  0.50035262  0.88596663  1
  In  In52  1  0.67872038  0.83255457  0.37090823  1
  In  In53  1  0.67914057  0.84006634  0.87795879  1
  In  In54  1  0.16533971  -0.01397322  0.12798281  1
  In  In55  1  0.16137359  0.00279650  0.62398032  1
  In  In56  1  0.15657881  0.34829342  0.13655126  1
  In  In57  1  0.15603530  0.33216520  0.60630455  1
  In  In58  1  0.16671064  0.65827925  0.12847768  1
  In  In59  1  0.17626959  0.66657114  0.62776935  1
  In  In60  1  0.50554148  0.00665664  0.12875385  1
  In  In61  1  0.49557426  0.01851410  0.62132784  1
  In  In62  1  0.48316040  0.34679686  0.14675533  1
  In  In63  1  0.49572164  0.33549546  0.60663978  1
  In  In64  1  0.50794353  0.65694072  0.13297144  1
  In  In65  1  0.49237468  0.65101059  0.62252256  1
  In  In66  1  0.84161181  0.01333103  0.12432956  1
  In  In67  1  0.83404312  0.00071749  0.61620686  1
  In  In68  1  0.83426263  0.33441694  0.12872320  1
  In  In69  1  0.84408906  0.34012288  0.60925567  1
  In  In70  1  0.83558526  0.66357773  0.12726269  1
  In  In71  1  0.83500477  0.66709731  0.61632669  1
  In  In72  1  0.66739095  0.66411752  0.75788848  1
  In  In73  1  0.66513972  0.33403071  0.74751753  1
  In  In74  1  0.00171352  0.66475843  0.75006159  1
  In  In75  1  0.15850202  0.16762363  0.00346269  1
  In  In76  1  0.66430810  0.00415353  0.25426659  1
  In  In77  1  0.16424970  0.83351190  0.50355230  1
  In  In78  1  0.33293102  0.33728921  0.73370425  1
  In  In79  1  0.50979362  0.83302401  0.49178852  1
  In  In80  1  0.50799102  0.17063623  -0.00055204  1
  In  In81  1  -0.00065593  0.00354731  0.75057824  1
  In  In82  1  0.67222939  0.00033279  0.74132892  1
  In  In83  1  0.50550080  0.81888642  0.00993097  1
  In  In84  1  0.32515693  0.00212806  0.74235902  1
  In  In85  1  0.32787990  0.00068002  0.25315761  1
  Cu  Cu86  1  0.83738686  0.49928066  0.25039612  1
  Cu  Cu87  1  0.50178082  0.49671170  0.25293350  1
  Cu  Cu88  1  0.00006674  0.66576339  0.00805811  1
  Cu  Cu89  1  0.49698198  0.82758704  0.75123169  1
  Cu  Cu90  1  0.33117890  0.34155334  0.00685439  1
  Cu  Cu91  1  0.66957657  0.33272358  0.00702323  1
  Cu  Cu92  1  0.49679372  0.83147348  0.24734577  1
  Cu  Cu93  1  -0.00383306  0.33513465  0.00738219  1
  Cu  Cu94  1  0.33198207  0.66376453  0.49447832  1
  Cu  Cu95  1  0.83976256  0.17048567  0.74886708  1
  Cu  Cu96  1  0.33201325  -0.00401163  0.00271877  1
  Cu  Cu97  1  0.83359515  0.49624548  0.74373662  1
  Cu  Cu98  1  -0.00734456  0.66657154  0.49079433  1
  Cu  Cu99  1  -0.00380739  0.00040225  0.00718908  1
  Cu  Cu100  1  0.16266688  0.49992821  0.75377423  1
  Cu  Cu101  1  0.67855518  0.00172876  0.00136627  1
  Cu  Cu102  1  0.83403535  0.17086712  0.25649078  1
  Cu  Cu103  1  0.16881020  0.17907928  0.73353871  1
  Cu  Cu104  1  0.67123150  0.33931084  0.49156464  1
  Cu  Cu105  1  0.66909333  0.66121141  0.49441276  1
  Cu  Cu106  1  0.67055596  0.00169483  0.49366211  1
  Cu  Cu107  1  0.16787450  0.17248880  0.25936618  1
  Cu  Cu108  1  0.83592727  0.82995929  0.24917560  1
  Cu  Cu109  1  0.48217731  0.49639892  0.74566357  1
  Cu  Cu110  1  -0.00286831  -0.00143656  0.49634420  1
  Cu  Cu111  1  0.67307277  0.66160971  0.00711185  1
  Cu  Cu112  1  0.17224689  0.49689642  0.25301677  1
  Cu  Cu113  1  0.17542574  0.82567330  0.76062712  1
  Cu  Cu114  1  0.16134503  0.82848876  0.24668518  1
  Se  Se115  1  0.07394941  0.08167723  0.06897419  1
  Se  Se116  1  0.08470700  0.07762333  0.54952297  1
  Se  Se117  1  0.08322557  0.41799468  0.05632665  1
  Se  Se118  1  0.08527894  0.42650840  0.53957900  1
  Se  Se119  1  0.08447610  0.74772379  0.06140615  1
  Se  Se120  1  0.07129202  0.73932246  0.56003032  1
  Se  Se121  1  0.40992864  0.08145606  0.05861359  1
  Se  Se122  1  0.41719580  0.08051631  0.54337054  1
  Se  Se123  1  0.42060789  0.41567106  0.06152319  1
  Se  Se124  1  0.41280186  0.41781938  0.54181351  1
  Se  Se125  1  0.40901114  0.73167789  0.06173017  1
  Se  Se126  1  0.41192419  0.74735837  0.55415985  1
  Se  Se127  1  0.75024629  0.09088412  0.05773917  1
  Se  Se128  1  0.75531422  0.08438321  0.54688492  1
  Se  Se129  1  0.75392570  0.41742313  0.05776745  1
  Se  Se130  1  0.75358655  0.42289789  0.54655275  1
  Se  Se131  1  0.75583518  0.74994719  0.05491789  1
  Se  Se132  1  0.74880443  0.74858112  0.54843903  1
  Se  Se133  1  0.25047047  0.25705248  0.06260396  1
  Se  Se134  1  0.23128401  0.24720939  0.53433020  1
  Se  Se135  1  0.24277668  0.57349556  0.05762419  1
  Se  Se136  1  0.24391118  0.58796570  0.54987427  1
  Se  Se137  1  0.24469476  0.91418804  0.05142436  1
  Se  Se138  1  0.26003061  0.92125240  0.56102022  1
  Se  Se139  1  0.58447047  0.25837241  0.06792591  1
  Se  Se140  1  0.59091794  0.25417905  0.54784640  1
  Se  Se141  1  0.58666237  0.58045577  0.05833199  1
  Se  Se142  1  0.58078248  0.58511065  0.54962472  1
  Se  Se143  1  0.59398650  0.92405520  0.06035074  1
  Se  Se144  1  0.59116124  0.92550287  0.55988414  1
  Se  Se145  1  0.91527010  0.24765923  0.05790313  1
  Se  Se146  1  0.90310304  0.23598330  0.54566017  1
  Se  Se147  1  0.91571995  0.57953203  0.05725180  1
  Se  Se148  1  0.90998041  0.58280476  0.54624623  1
  Se  Se149  1  0.91397238  0.91599213  0.06038868  1
  Se  Se150  1  0.91638333  0.91299430  0.55005694  1
  Se  Se151  1  0.10494197  0.23060001  0.44604919  1
  Se  Se152  1  0.07626695  0.26056774  0.93988335  1
  Se  Se153  1  0.08145187  0.58473639  0.44350894  1
  Se  Se154  1  0.07860408  0.58119110  0.95004872  1
  Se  Se155  1  0.07712121  0.91636769  0.43637965  1
  Se  Se156  1  0.08325045  0.92035166  0.95381501  1
  Se  Se157  1  0.42784279  0.25015705  0.45075112  1
  Se  Se158  1  0.40639187  0.25893468  0.94351501  1
  Se  Se159  1  0.41937248  0.58205561  0.44456582  1
  Se  Se160  1  0.43188129  0.57483188  0.95158614  1
  Se  Se161  1  0.40645526  0.91973426  0.44385742  1
  Se  Se162  1  0.41886490  0.91692604  0.94744924  1
  Se  Se163  1  0.75594063  0.25222109  0.44383446  1
  Se  Se164  1  0.74987999  0.24786472  0.95100006  1
  Se  Se165  1  0.75393421  0.57979390  0.44107883  1
  Se  Se166  1  0.75432597  0.57752184  0.95138533  1
  Se  Se167  1  0.75162770  0.91196740  0.44608665  1
  Se  Se168  1  0.75985633  0.91469387  0.95057084  1
  Se  Se169  1  0.26503930  0.07000588  0.44769505  1
  Se  Se170  1  0.25594320  0.07976424  0.94177440  1
  Se  Se171  1  0.23578924  0.42730804  0.44919228  1
  Se  Se172  1  0.24420402  0.42064635  0.95337944  1
  Se  Se173  1  0.24927383  0.74485652  0.43775578  1
  Se  Se174  1  0.24655505  0.75657083  0.95155167  1
  Se  Se175  1  0.58550214  0.08695519  0.44555965  1
  Se  Se176  1  0.59384227  0.07342199  0.93749840  1
  Se  Se177  1  0.58408432  0.42090340  0.44068969  1
  Se  Se178  1  0.58298450  0.41256907  0.95206232  1
  Se  Se179  1  0.58829358  0.73685129  0.43049708  1
  Se  Se180  1  0.59687024  0.74053483  0.93968763  1
  Se  Se181  1  0.91848863  0.08444541  0.44188052  1
  Se  Se182  1  0.92037583  0.08896272  0.95110270  1
  Se  Se183  1  0.93207069  0.40585982  0.45064240  1
  Se  Se184  1  0.91517366  0.41569863  0.94716840  1
  Se  Se185  1  0.91033467  0.75376372  0.44192414  1
  Se  Se186  1  0.91711853  0.74944725  0.95259599  1
  Se  Se187  1  0.25101418  0.25628924  0.31069692  1
  Se  Se188  1  0.24497198  0.25007684  0.80371363  1
  Se  Se189  1  0.25904054  0.58037085  0.30428770  1
  Se  Se190  1  0.24637794  0.57835435  0.81032375  1
  Se  Se191  1  0.23505728  0.91069986  0.31213810  1
  Se  Se192  1  0.25077132  0.91483073  0.81700372  1
  Se  Se193  1  0.58858698  0.25890154  0.29994863  1
  Se  Se194  1  0.57035817  0.24157119  0.80354669  1
  Se  Se195  1  0.58900146  0.58499660  0.29944328  1
  Se  Se196  1  0.57230525  0.56655578  0.80660448  1
  Se  Se197  1  0.57027068  0.91189845  0.31237646  1
  Se  Se198  1  0.57856227  0.90964285  0.80673124  1
  Se  Se199  1  0.92109237  0.25457682  0.30620980  1
  Se  Se200  1  0.91882504  0.25607109  0.80333711  1
  Se  Se201  1  0.92090890  0.58261072  0.30439924  1
  Se  Se202  1  0.90747379  0.57652146  0.80855508  1
  Se  Se203  1  0.91707046  0.91689874  0.30115862  1
  Se  Se204  1  0.91456151  0.90909490  0.80965972  1
  Se  Se205  1  0.08013421  0.08482867  0.30250319  1
  Se  Se206  1  0.09589011  0.10001647  0.80209651  1
  Se  Se207  1  0.08289461  0.41804308  0.30534868  1
  Se  Se208  1  0.07711733  0.41469638  0.80214118  1
  Se  Se209  1  0.07963752  0.74154001  0.29822886  1
  Se  Se210  1  0.08779905  0.75017239  0.81691178  1
  Se  Se211  1  0.40849970  0.09429200  0.31328971  1
  Se  Se212  1  0.42506642  0.09306082  0.79747882  1
  Se  Se213  1  0.41712816  0.41732953  0.30865680  1
  Se  Se214  1  0.40953653  0.41727824  0.81104683  1
  Se  Se215  1  0.41009365  0.74741108  0.29650052  1
  Se  Se216  1  0.41556398  0.74058837  0.80095480  1
  Se  Se217  1  0.75321129  0.09011803  0.31653452  1
  Se  Se218  1  0.76040061  0.08902416  0.80878553  1
  Se  Se219  1  0.75565285  0.41503772  0.30482922  1
  Se  Se220  1  0.75259041  0.42348992  0.80947335  1
  Se  Se221  1  0.74986652  0.74649555  0.29915059  1
  Se  Se222  1  0.76382116  0.75615430  0.80788650  1
  Se  Se223  1  0.23974468  0.09365733  0.19000376  1
  Se  Se224  1  0.25259927  0.10054649  0.67744213  1
  Se  Se225  1  0.25785783  0.41313131  0.20075905  1
  Se  Se226  1  0.23469489  0.42525054  0.68233105  1
  Se  Se227  1  0.24938171  0.74550050  0.19847560  1
  Se  Se228  1  0.25324463  0.74049063  0.70550423  1
  Se  Se229  1  0.56885066  0.09830333  0.20220214  1
  Se  Se230  1  0.58277770  0.09851086  0.69142027  1
  Se  Se231  1  0.59098907  0.41528256  0.20196497  1
  Se  Se232  1  0.56918270  0.42147246  0.68779004  1
  Se  Se233  1  0.58550864  0.74861722  0.19991101  1
  Se  Se234  1  0.57740408  0.74920477  0.68941439  1
  Se  Se235  1  0.91570186  0.08426499  0.20382380  1
  Se  Se236  1  0.91670506  0.09172810  0.68502651  1
  Se  Se237  1  0.92045758  0.41463527  0.19712991  1
  Se  Se238  1  0.91604986  0.41559281  0.68871542  1
  Se  Se239  1  0.91922728  0.74506133  0.19721376  1
  Se  Se240  1  0.91086603  0.75516935  0.69136048  1
  Se  Se241  1  0.08442735  0.25589143  0.20429148  1
  Se  Se242  1  0.07971237  0.25982005  0.68588355  1
  Se  Se243  1  0.08482273  0.57880763  0.20031888  1
  Se  Se244  1  0.08368345  0.57369428  0.68663318  1
  Se  Se245  1  0.07803772  0.91776265  0.20008631  1
  Se  Se246  1  0.09675487  0.90538453  0.69896699  1
  Se  Se247  1  0.41758103  0.24696140  0.21081526  1
  Se  Se248  1  0.42316808  0.24262714  0.68026697  1
  Se  Se249  1  0.41754492  0.57968812  0.19874682  1
  Se  Se250  1  0.40166104  0.57970009  0.69142396  1
  Se  Se251  1  0.41737918  0.91148449  0.18666472  1
  Se  Se252  1  0.42509162  0.91087506  0.68741833  1
  Se  Se253  1  0.75200496  0.25166795  0.20019490  1
  Se  Se254  1  0.75907085  0.24876544  0.68772846  1
  Se  Se255  1  0.75227424  0.58270919  0.19743667  1
  Se  Se256  1  0.75006571  0.57690696  0.68803660  1
  Se  Se257  1  0.75418427  0.91551505  0.19199648  1
  Se  Se258  1  0.76571537  0.90577336  0.69183981  1
