# generated using pymatgen
data_In86Cu29Se144
_symmetry_space_group_name_H-M   'P 1'
_cell_length_a   17.62924594
_cell_length_b   17.63279236
_cell_length_c   23.49412664
_cell_angle_alpha   90.02150898
_cell_angle_beta   89.97366377
_cell_angle_gamma   90.01190003
_symmetry_Int_Tables_number   1
_chemical_formula_structural   In86Cu29Se144
_chemical_formula_sum   'In86 Cu29 Se144'
_cell_volume   7303.21438505
_cell_formula_units_Z   1
loop_
 _symmetry_equiv_pos_site_id
 _symmetry_equiv_pos_as_xyz
  1  'x, y, z'
loop_
 _atom_site_type_symbol
 _atom_site_label
 _atom_site_symmetry_multiplicity
 _atom_site_fract_x
 _atom_site_fract_y
 _atom_site_fract_z
 _atom_site_occupancy
  In  In0  1  0.00398095  0.15359964  0.11998304  1
  In  In1  1  -0.00359274  0.15744016  0.62857725  1
  In  In2  1  -0.00332234  0.51773628  0.12256361  1
  In  In3  1  -0.00683404  0.50536071  0.62994001  1
  In  In4  1  -0.00217897  0.83541504  0.11571526  1
  In  In5  1  -0.00149087  0.83192003  0.62724496  1
  In  In6  1  0.33490828  0.16860107  0.11014816  1
  In  In7  1  0.33811039  0.16756723  0.61712805  1
  In  In8  1  0.33739233  0.50128053  0.12497824  1
  In  In9  1  0.34572637  0.50073860  0.62509883  1
  In  In10  1  0.32796436  0.84265013  0.12134720  1
  In  In11  1  0.32302099  0.82969307  0.62285392  1
  In  In12  1  0.65912073  0.17986737  0.13302209  1
  In  In13  1  0.67230557  0.16784855  0.62923914  1
  In  In14  1  0.67404456  0.48877239  0.12883684  1
  In  In15  1  0.67381547  0.49507626  0.62633775  1
  In  In16  1  0.68073644  0.83224045  0.12515779  1
  In  In17  1  0.67177499  0.82894971  0.62604813  1
  In  In18  1  0.15871468  0.00027007  0.38182020  1
  In  In19  1  0.15887297  0.00828294  0.87466803  1
  In  In20  1  0.15176760  0.32563367  0.38167443  1
  In  In21  1  0.16225338  0.33641746  0.87535043  1
  In  In22  1  0.14894250  0.69908284  0.38410493  1
  In  In23  1  0.16530938  0.66928158  0.86889997  1
  In  In24  1  0.52024564  0.00226288  0.37997383  1
  In  In25  1  0.51583532  0.00647683  0.86980279  1
  In  In26  1  0.51096943  0.32195122  0.38533270  1
  In  In27  1  0.50626845  0.31750220  0.87925901  1
  In  In28  1  0.48138851  0.66313147  0.38794724  1
  In  In29  1  0.49656230  0.66065894  0.86433250  1
  In  In30  1  0.81234597  0.01014184  0.38900724  1
  In  In31  1  0.82782792  -0.01123576  0.86611565  1
  In  In32  1  0.82642319  0.34750578  0.38194378  1
  In  In33  1  0.83598637  0.33709412  0.86854247  1
  In  In34  1  0.83579957  0.66283450  0.38415362  1
  In  In35  1  0.83893076  0.67014589  0.87075162  1
  In  In36  1  -0.00163086  0.17730049  0.39216681  1
  In  In37  1  0.00305220  0.17312787  0.86581406  1
  In  In38  1  -0.02239956  0.50642775  0.38141973  1
  In  In39  1  -0.00539184  0.49501917  0.86717208  1
  In  In40  1  -0.00294737  0.82829339  0.38011641  1
  In  In41  1  -0.00450070  0.83075546  0.87079146  1
  In  In42  1  0.32913819  0.16900866  0.38255565  1
  In  In43  1  0.33507840  0.16993158  0.88266209  1
  In  In44  1  0.33737540  0.51809459  0.38491242  1
  In  In45  1  0.32259042  0.50145484  0.87264448  1
  In  In46  1  0.31514202  0.83359047  0.37856250  1
  In  In47  1  0.32953290  0.81867352  0.87065726  1
  In  In48  1  0.66289852  0.17057541  0.37601050  1
  In  In49  1  0.66801128  0.16527633  0.87047315  1
  In  In50  1  0.67376382  0.49038651  0.38518376  1
  In  In51  1  0.67481117  0.50795063  0.86589915  1
  In  In52  1  0.66886329  0.84579438  0.37949448  1
  In  In53  1  0.67872272  0.83808385  0.86628750  1
  In  In54  1  0.16485977  0.00116911  0.11293985  1
  In  In55  1  0.15997586  -0.01663383  0.61620177  1
  In  In56  1  0.17554775  0.32843693  0.12144275  1
  In  In57  1  0.16049085  0.32005447  0.62323765  1
  In  In58  1  0.14696297  0.67479994  0.12762968  1
  In  In59  1  0.15749270  0.67219998  0.63226417  1
  In  In60  1  0.50166300  0.01502535  0.12613089  1
  In  In61  1  0.51021261  0.01188632  0.61940814  1
  In  In62  1  0.51927449  0.33387756  0.12423296  1
  In  In63  1  0.51547860  0.33990930  0.62069015  1
  In  In64  1  0.49256501  0.66466751  0.12396968  1
  In  In65  1  0.50920551  0.65942737  0.63095148  1
  In  In66  1  0.83424140  -0.01125834  0.12564243  1
  In  In67  1  0.83564531  -0.00076180  0.62802555  1
  In  In68  1  0.81701152  0.33595982  0.12131799  1
  In  In69  1  0.83192715  0.32948031  0.62937335  1
  In  In70  1  0.85290808  0.68291360  0.10353600  1
  In  In71  1  0.83440621  0.66510431  0.62493199  1
  In  In72  1  -0.00689092  0.33709352  0.25572276  1
  In  In73  1  0.33672113  -0.00246308  0.73946885  1
  In  In74  1  0.33327596  0.00319997  0.25740410  1
  In  In75  1  0.33780365  0.33602712  0.24794304  1
  In  In76  1  0.83549760  0.16610020  -0.00092807  1
  In  In77  1  0.50458632  0.83980926  -0.01053858  1
  In  In78  1  0.50424532  0.49464645  0.00459130  1
  In  In79  1  0.32897190  0.66798814  0.24985467  1
  In  In80  1  -0.00324838  -0.00443645  0.25261137  1
  In  In81  1  0.16183155  0.49861832  -0.00716063  1
  In  In82  1  0.33269078  0.33739601  0.75302377  1
  In  In83  1  0.66800094  0.66259445  0.25017785  1
  In  In84  1  0.16496823  0.49597240  0.50959874  1
  In  In85  1  0.50725230  0.83474792  0.50595391  1
  Cu  Cu86  1  0.15857555  0.16080865  0.74551741  1
  Cu  Cu87  1  0.83348936  0.50058214  0.74717160  1
  Cu  Cu88  1  0.67465852  0.66466611  -0.00651722  1
  Cu  Cu89  1  0.66606713  0.00781546  -0.00406706  1
  Cu  Cu90  1  0.32924843  -0.00286855  -0.00413260  1
  Cu  Cu91  1  0.50508293  0.83791494  0.25639729  1
  Cu  Cu92  1  0.82303045  0.16589742  0.25531481  1
  Cu  Cu93  1  0.33338531  -0.00329125  0.50026930  1
  Cu  Cu94  1  0.50945777  0.49184319  0.26310013  1
  Cu  Cu95  1  0.16321161  0.83301826  0.74725033  1
  Cu  Cu96  1  0.51029850  0.17115630  0.25137289  1
  Cu  Cu97  1  0.50524711  0.83060043  0.74981937  1
  Cu  Cu98  1  0.66935355  0.32873554  0.50580011  1
  Cu  Cu99  1  0.50648206  0.49853139  0.74652412  1
  Cu  Cu100  1  -0.00019279  -0.00768832  0.50567065  1
  Cu  Cu101  1  0.16414435  0.50218332  0.75022855  1
  Cu  Cu102  1  0.66999710  0.65995754  0.50630224  1
  Cu  Cu103  1  0.00092057  -0.00437903  -0.00665711  1
  Cu  Cu104  1  0.83250690  0.16464431  0.74863379  1
  Cu  Cu105  1  0.15824315  0.51094580  0.25229691  1
  Cu  Cu106  1  0.00064036  0.33350492  -0.00799281  1
  Cu  Cu107  1  -0.00013055  0.66896482  0.50779013  1
  Cu  Cu108  1  0.50666647  0.16768876  0.74663522  1
  Cu  Cu109  1  0.83203408  0.50759959  0.25247418  1
  Cu  Cu110  1  0.83414742  0.83416891  0.24767963  1
  Cu  Cu111  1  0.33508063  0.33565763  0.50166833  1
  Cu  Cu112  1  0.32425805  0.66671620  -0.00310715  1
  Cu  Cu113  1  0.16491310  0.16250603  0.24721408  1
  Cu  Cu114  1  0.83478248  0.82985175  0.74527319  1
  Se  Se115  1  0.08275544  0.08359246  0.04421721  1
  Se  Se116  1  0.08170727  0.07970024  0.55687730  1
  Se  Se117  1  0.07542372  0.41081763  0.06048524  1
  Se  Se118  1  0.06884285  0.40665974  0.56125493  1
  Se  Se119  1  0.08165020  0.75073570  0.05014286  1
  Se  Se120  1  0.08598136  0.75278103  0.55660805  1
  Se  Se121  1  0.41641229  0.07594477  0.04945479  1
  Se  Se122  1  0.41790902  0.08035560  0.55078150  1
  Se  Se123  1  0.40989121  0.40390020  0.06143824  1
  Se  Se124  1  0.41977439  0.41379006  0.55632630  1
  Se  Se125  1  0.41145207  0.74808905  0.05187778  1
  Se  Se126  1  0.41744656  0.74324967  0.56203456  1
  Se  Se127  1  0.74567418  0.08053386  0.06230835  1
  Se  Se128  1  0.77808887  0.10816746  0.56218355  1
  Se  Se129  1  0.74521001  0.41853201  0.04999014  1
  Se  Se130  1  0.75538342  0.41278641  0.55593811  1
  Se  Se131  1  0.74877404  0.75627462  0.04686790  1
  Se  Se132  1  0.75147139  0.74775485  0.55519457  1
  Se  Se133  1  0.23942249  0.24201787  0.04933888  1
  Se  Se134  1  0.25188343  0.25182830  0.55357911  1
  Se  Se135  1  0.24993958  0.58743118  0.06085429  1
  Se  Se136  1  0.25291486  0.58952668  0.56498279  1
  Se  Se137  1  0.24671487  0.91302408  0.04745332  1
  Se  Se138  1  0.25001817  0.90868708  0.54762912  1
  Se  Se139  1  0.58519849  0.24595371  0.05309241  1
  Se  Se140  1  0.58592358  0.24275576  0.55671934  1
  Se  Se141  1  0.59343718  0.59397380  0.06015697  1
  Se  Se142  1  0.58655044  0.57774154  0.55897240  1
  Se  Se143  1  0.58939100  0.92329525  0.05849254  1
  Se  Se144  1  0.60218972  0.92876744  0.55466921  1
  Se  Se145  1  0.92558723  0.25750640  0.06081637  1
  Se  Se146  1  0.89040827  0.22048452  0.56331374  1
  Se  Se147  1  0.90842367  0.57146942  0.04663520  1
  Se  Se148  1  0.91588662  0.58091112  0.55436199  1
  Se  Se149  1  0.91402055  0.92052774  0.04924174  1
  Se  Se150  1  0.91406077  0.91221713  0.55834512  1
  Se  Se151  1  0.09561251  0.24079287  0.45853302  1
  Se  Se152  1  0.08258064  0.24829732  0.94148036  1
  Se  Se153  1  0.07830841  0.58801649  0.44430035  1
  Se  Se154  1  0.07276294  0.58941953  0.93727491  1
  Se  Se155  1  0.08199338  0.91115009  0.44794597  1
  Se  Se156  1  0.08331286  0.91411749  0.93823352  1
  Se  Se157  1  0.41571439  0.24799261  0.44912781  1
  Se  Se158  1  0.41651703  0.25172896  0.94886862  1
  Se  Se159  1  0.42542854  0.57194020  0.46145171  1
  Se  Se160  1  0.41079686  0.58614789  0.94334658  1
  Se  Se161  1  0.41445872  0.91866933  0.43815792  1
  Se  Se162  1  0.40967358  0.92531127  0.92999896  1
  Se  Se163  1  0.74923968  0.25296162  0.44336342  1
  Se  Se164  1  0.74801677  0.25570650  0.94009575  1
  Se  Se165  1  0.75425069  0.57783184  0.45096414  1
  Se  Se166  1  0.75562343  0.58328209  0.93911057  1
  Se  Se167  1  0.75484112  0.90655525  0.45399801  1
  Se  Se168  1  0.74557485  0.92090059  0.94354388  1
  Se  Se169  1  0.24875637  0.07966093  0.44646465  1
  Se  Se170  1  0.24792501  0.08287598  0.94321828  1
  Se  Se171  1  0.25356035  0.41169743  0.44011571  1
  Se  Se172  1  0.26141154  0.40546159  0.94538875  1
  Se  Se173  1  0.27032547  0.72421665  0.44154076  1
  Se  Se174  1  0.24356829  0.74973200  0.94352152  1
  Se  Se175  1  0.58431679  0.09164258  0.44966498  1
  Se  Se176  1  0.58302683  0.09050391  0.94455907  1
  Se  Se177  1  0.58514377  0.41342225  0.45246789  1
  Se  Se178  1  0.59148900  0.41688158  0.93667608  1
  Se  Se179  1  0.59189282  0.73972340  0.44230422  1
  Se  Se180  1  0.58868965  0.74057136  0.93459634  1
  Se  Se181  1  0.92307945  0.07326997  0.44531609  1
  Se  Se182  1  0.91990581  0.07785083  0.93434376  1
  Se  Se183  1  0.93877026  0.39456181  0.44362906  1
  Se  Se184  1  0.91690855  0.41584304  0.94118469  1
  Se  Se185  1  0.91520087  0.74938599  0.45157680  1
  Se  Se186  1  0.90437040  0.76301179  0.94134472  1
  Se  Se187  1  0.24169559  0.24727599  0.30643187  1
  Se  Se188  1  0.24233211  0.23881354  0.80538869  1
  Se  Se189  1  0.24032438  0.58439638  0.31445045  1
  Se  Se190  1  0.25017254  0.58479708  0.80135900  1
  Se  Se191  1  0.23324682  0.91278781  0.30479118  1
  Se  Se192  1  0.24736592  0.91429134  0.80527235  1
  Se  Se193  1  0.58807116  0.25875285  0.30407322  1
  Se  Se194  1  0.58693198  0.25139014  0.80162466  1
  Se  Se195  1  0.57869914  0.58375536  0.31920770  1
  Se  Se196  1  0.58722139  0.58646550  0.79820114  1
  Se  Se197  1  0.59032078  0.92088418  0.30433986  1
  Se  Se198  1  0.58634390  0.91660009  0.80135617  1
  Se  Se199  1  0.90819124  0.24207329  0.31391486  1
  Se  Se200  1  0.91540932  0.25184012  0.79988880  1
  Se  Se201  1  0.91374090  0.59118329  0.30524889  1
  Se  Se202  1  0.91736906  0.58376702  0.80027658  1
  Se  Se203  1  0.90335229  0.91557899  0.31484749  1
  Se  Se204  1  0.91767821  0.91489189  0.79833989  1
  Se  Se205  1  0.08166778  0.09404071  0.31114487  1
  Se  Se206  1  0.07673803  0.07826405  0.79956246  1
  Se  Se207  1  0.08579674  0.42732800  0.31376093  1
  Se  Se208  1  0.08528866  0.41386439  0.80239236  1
  Se  Se209  1  0.07431128  0.75674473  0.30244517  1
  Se  Se210  1  0.08069935  0.74958789  0.80108943  1
  Se  Se211  1  0.42632303  0.09477171  0.31196989  1
  Se  Se212  1  0.41938424  0.09062003  0.80416002  1
  Se  Se213  1  0.41824139  0.42014226  0.31847836  1
  Se  Se214  1  0.42697400  0.42345662  0.81250982  1
  Se  Se215  1  0.42039700  0.75950139  0.31126624  1
  Se  Se216  1  0.41642422  0.74935471  0.79882057  1
  Se  Se217  1  0.74253467  0.08107648  0.30761601  1
  Se  Se218  1  0.74866302  0.08109242  0.80265444  1
  Se  Se219  1  0.75050470  0.42267916  0.30503164  1
  Se  Se220  1  0.75034468  0.41613910  0.79973752  1
  Se  Se221  1  0.75397565  0.75554957  0.31006070  1
  Se  Se222  1  0.75123473  0.74653878  0.79941636  1
  Se  Se223  1  0.24752592  0.08717530  0.18815269  1
  Se  Se224  1  0.24287560  0.08762626  0.68427035  1
  Se  Se225  1  0.23881787  0.42973383  0.19450247  1
  Se  Se226  1  0.24199856  0.42111914  0.68808130  1
  Se  Se227  1  0.24305740  0.76075079  0.19118507  1
  Se  Se228  1  0.25078710  0.75012331  0.69807077  1
  Se  Se229  1  0.58843794  0.08234847  0.19894769  1
  Se  Se230  1  0.58864436  0.08031584  0.69709555  1
  Se  Se231  1  0.58694123  0.41674900  0.20063474  1
  Se  Se232  1  0.59020492  0.41300931  0.69763406  1
  Se  Se233  1  0.57461258  0.75569790  0.19069710  1
  Se  Se234  1  0.58916530  0.74824417  0.69609006  1
  Se  Se235  1  0.90672638  0.09207077  0.19397285  1
  Se  Se236  1  0.91707508  0.07760113  0.70151188  1
  Se  Se237  1  0.90907666  0.42429482  0.19024061  1
  Se  Se238  1  0.91684452  0.41433261  0.69652935  1
  Se  Se239  1  0.91430163  0.75707784  0.18765245  1
  Se  Se240  1  0.91898578  0.74482799  0.69483716  1
  Se  Se241  1  0.08345250  0.24659835  0.19168326  1
  Se  Se242  1  0.07682395  0.24859122  0.69601699  1
  Se  Se243  1  0.07359375  0.59055853  0.19975935  1
  Se  Se244  1  0.07891064  0.58443320  0.69862060  1
  Se  Se245  1  0.08802907  0.91687433  0.18719401  1
  Se  Se246  1  0.08154458  0.91823503  0.69549094  1
  Se  Se247  1  0.42232059  0.24057169  0.18929374  1
  Se  Se248  1  0.42189596  0.24840558  0.69103712  1
  Se  Se249  1  0.42941311  0.57036654  0.20081917  1
  Se  Se250  1  0.41835121  0.58199589  0.69928854  1
  Se  Se251  1  0.42345650  0.91290013  0.19327756  1
  Se  Se252  1  0.43076593  0.90790424  0.68299987  1
  Se  Se253  1  0.75086211  0.25543872  0.19940707  1
  Se  Se254  1  0.74784982  0.25195726  0.70163329  1
  Se  Se255  1  0.76164939  0.58742725  0.18490599  1
  Se  Se256  1  0.75032506  0.58423445  0.69451612  1
  Se  Se257  1  0.74808808  0.91860035  0.19895779  1
  Se  Se258  1  0.74987436  0.91536746  0.69521401  1
