# generated using pymatgen
data_In86Cu29Se144
_symmetry_space_group_name_H-M   'P 1'
_cell_length_a   17.58256359
_cell_length_b   17.58145346
_cell_length_c   23.44591345
_cell_angle_alpha   89.98447251
_cell_angle_beta   90.03112348
_cell_angle_gamma   90.03349182
_symmetry_Int_Tables_number   1
_chemical_formula_structural   In86Cu29Se144
_chemical_formula_sum   'In86 Cu29 Se144'
_cell_volume   7247.76286123
_cell_formula_units_Z   1
loop_
 _symmetry_equiv_pos_site_id
 _symmetry_equiv_pos_as_xyz
  1  'x, y, z'
loop_
 _atom_site_type_symbol
 _atom_site_label
 _atom_site_symmetry_multiplicity
 _atom_site_fract_x
 _atom_site_fract_y
 _atom_site_fract_z
 _atom_site_occupancy
  In  In0  1  -0.00009220  0.16470376  0.12410152  1
  In  In1  1  0.00829116  0.18507738  0.62490381  1
  In  In2  1  -0.00658684  0.50617963  0.13042469  1
  In  In3  1  -0.00362519  0.50143970  0.62278427  1
  In  In4  1  0.01572300  0.81925521  0.12925907  1
  In  In5  1  -0.00328171  0.82111715  0.61590292  1
  In  In6  1  0.32094601  0.17767766  0.13541482  1
  In  In7  1  0.33302997  0.14267391  0.62083898  1
  In  In8  1  0.32641634  0.50568777  0.13951235  1
  In  In9  1  0.33171548  0.50478776  0.61460102  1
  In  In10  1  0.33274039  0.83705624  0.12650943  1
  In  In11  1  0.32430523  0.84657606  0.61990525  1
  In  In12  1  0.67421889  0.15144598  0.11445469  1
  In  In13  1  0.65415991  0.17574151  0.63340854  1
  In  In14  1  0.66756360  0.49244142  0.11759257  1
  In  In15  1  0.66467723  0.50020204  0.62835394  1
  In  In16  1  0.65997088  0.84388122  0.11181111  1
  In  In17  1  0.67278748  0.82350423  0.63982604  1
  In  In18  1  0.16199346  -0.01064629  0.37114783  1
  In  In19  1  0.17707973  -0.00561385  0.88293636  1
  In  In20  1  0.16806056  0.33655092  0.37303744  1
  In  In21  1  0.15331055  0.33856452  0.87753751  1
  In  In22  1  0.16224560  0.66233197  0.37595097  1
  In  In23  1  0.16411246  0.67908848  0.87534437  1
  In  In24  1  0.49316207  0.01386927  0.38237479  1
  In  In25  1  0.49165167  -0.00536766  0.86939547  1
  In  In26  1  0.49119479  0.34289956  0.38727356  1
  In  In27  1  0.50611783  0.32494136  0.87103516  1
  In  In28  1  0.48688278  0.66911826  0.37835526  1
  In  In29  1  0.53392463  0.67218695  0.87608680  1
  In  In30  1  0.84267493  -0.01032524  0.37377908  1
  In  In31  1  0.83372622  0.01548184  0.87960748  1
  In  In32  1  0.84563517  0.33714628  0.37259303  1
  In  In33  1  0.83470590  0.33617560  0.87175577  1
  In  In34  1  0.84320403  0.64957652  0.38031960  1
  In  In35  1  0.82662037  0.65723406  0.86608276  1
  In  In36  1  0.00377579  0.16657603  0.36800921  1
  In  In37  1  -0.00619345  0.17214494  0.88608885  1
  In  In38  1  0.00306575  0.50045867  0.37640023  1
  In  In39  1  -0.02206478  0.48681978  0.85338889  1
  In  In40  1  0.01625479  0.84084043  0.36986277  1
  In  In41  1  0.01587193  0.83132945  0.87508188  1
  In  In42  1  0.33425737  0.17372213  0.36947200  1
  In  In43  1  0.34253105  0.15367354  0.87892889  1
  In  In44  1  0.32769005  0.49877868  0.37932901  1
  In  In45  1  0.33875916  0.50010650  0.87296521  1
  In  In46  1  0.32292729  0.82276183  0.36562054  1
  In  In47  1  0.32814228  0.84201871  0.88102406  1
  In  In48  1  0.65989636  0.15655888  0.37936143  1
  In  In49  1  0.67542357  0.17874538  0.86378816  1
  In  In50  1  0.66908193  0.49682080  0.38774970  1
  In  In51  1  0.69222131  0.51742236  0.84231379  1
  In  In52  1  0.66803067  0.83210287  0.37443065  1
  In  In53  1  0.65639780  0.82800747  0.87275738  1
  In  In54  1  0.16762265  0.00011992  0.12725592  1
  In  In55  1  0.17513351  0.00178161  0.61792397  1
  In  In56  1  0.16737492  0.32917278  0.13420255  1
  In  In57  1  0.15176281  0.33551722  0.62631495  1
  In  In58  1  0.16601983  0.67095739  0.12947517  1
  In  In59  1  0.14667688  0.65933360  0.60162051  1
  In  In60  1  0.50073840  -0.00807313  0.12400849  1
  In  In61  1  0.49060327  0.00333224  0.63152513  1
  In  In62  1  0.49368243  0.32768283  0.12551559  1
  In  In63  1  0.50562571  0.34026032  0.61758422  1
  In  In64  1  0.48762678  0.66569253  0.12573411  1
  In  In65  1  0.50877299  0.66075425  0.62881696  1
  In  In66  1  0.83169624  0.00935077  0.11929009  1
  In  In67  1  0.82994085  -0.00872119  0.63063232  1
  In  In68  1  0.84213604  0.34219716  0.11649747  1
  In  In69  1  0.81222145  0.36369321  0.64936319  1
  In  In70  1  0.84557850  0.67153917  0.11979135  1
  In  In71  1  0.85641856  0.63519085  0.65900756  1
  In  In72  1  0.15831165  0.50839013  0.00561952  1
  In  In73  1  0.66903923  -0.00224014  0.24147780  1
  In  In74  1  0.16605732  0.16642173  0.49540910  1
  In  In75  1  0.00065729  -0.00085190  0.75220290  1
  In  In76  1  0.50416371  0.16436380  -0.00121549  1
  In  In77  1  0.66928949  0.66800855  0.24899927  1
  In  In78  1  0.49813041  0.82997392  0.50375150  1
  In  In79  1  0.33573205  0.67462968  0.74304709  1
  In  In80  1  0.66458229  0.32961361  0.24207363  1
  In  In81  1  0.83387831  0.83232310  -0.00209398  1
  In  In82  1  0.33353400  0.32456758  0.74948319  1
  In  In83  1  0.83353087  0.17337825  0.49897547  1
  In  In84  1  0.50723795  0.50388768  -0.00710774  1
  In  In85  1  0.83469740  0.82612059  0.50344411  1
  Cu  Cu86  1  0.32733180  0.33804761  0.01009165  1
  Cu  Cu87  1  0.33995740  0.68105065  -0.00005993  1
  Cu  Cu88  1  0.67089851  0.65863714  0.51005933  1
  Cu  Cu89  1  0.16513668  0.49648152  0.25668758  1
  Cu  Cu90  1  -0.01010563  0.34692496  0.50330118  1
  Cu  Cu91  1  0.83969382  0.49849915  0.24977636  1
  Cu  Cu92  1  0.66850931  0.33520437  0.51046622  1
  Cu  Cu93  1  0.16709443  0.83298669  0.74867578  1
  Cu  Cu94  1  -0.00044711  0.65642331  -0.00063712  1
  Cu  Cu95  1  0.16647022  0.16366180  0.75009471  1
  Cu  Cu96  1  -0.00527558  0.33026165  -0.00300437  1
  Cu  Cu97  1  0.67886941  0.33435366  -0.00827628  1
  Cu  Cu98  1  0.33017686  0.66273372  0.49490482  1
  Cu  Cu99  1  0.66042883  0.00239636  0.50775553  1
  Cu  Cu100  1  0.49888097  0.15925216  0.74929093  1
  Cu  Cu101  1  0.49046441  0.50189279  0.26021448  1
  Cu  Cu102  1  0.84947481  0.82851453  0.24789797  1
  Cu  Cu103  1  0.82742710  0.83452504  0.75330406  1
  Cu  Cu104  1  0.49443789  0.83692757  0.24973031  1
  Cu  Cu105  1  0.00917632  -0.00333796  0.00348525  1
  Cu  Cu106  1  0.49553898  0.83314276  0.75125733  1
  Cu  Cu107  1  0.16415154  0.50877301  0.74377296  1
  Cu  Cu108  1  0.16267125  0.16026964  0.25029516  1
  Cu  Cu109  1  0.84157752  0.16361127  0.24599558  1
  Cu  Cu110  1  0.17164204  0.83214063  0.24847410  1
  Cu  Cu111  1  0.49110949  0.17237833  0.25341456  1
  Cu  Cu112  1  0.84171902  0.17036176  0.75604885  1
  Cu  Cu113  1  0.33189883  0.32652992  0.49805076  1
  Cu  Cu114  1  0.32722109  0.00340161  0.00483491  1
  Se  Se115  1  0.08789533  0.08464886  0.05668705  1
  Se  Se116  1  0.07220537  0.08324079  0.55833057  1
  Se  Se117  1  0.07433961  0.40903975  0.06103943  1
  Se  Se118  1  0.08441561  0.42171559  0.55291971  1
  Se  Se119  1  0.08514009  0.73941566  0.05125439  1
  Se  Se120  1  0.09645965  0.77423967  0.54390893  1
  Se  Se121  1  0.40827413  0.08651187  0.06385218  1
  Se  Se122  1  0.41554290  0.06793558  0.55039441  1
  Se  Se123  1  0.41171859  0.42284510  0.06106390  1
  Se  Se124  1  0.41271079  0.41404833  0.55126509  1
  Se  Se125  1  0.42274556  0.75997765  0.05642252  1
  Se  Se126  1  0.40701982  0.73812373  0.56254048  1
  Se  Se127  1  0.75086779  0.07487173  0.04242511  1
  Se  Se128  1  0.74621199  0.08246132  0.56288881  1
  Se  Se129  1  0.75530163  0.42092936  0.04805434  1
  Se  Se130  1  0.75342705  0.42169287  0.55824958  1
  Se  Se131  1  0.74176090  0.74050567  0.05590122  1
  Se  Se132  1  0.75088637  0.73900438  0.56814383  1
  Se  Se133  1  0.24461598  0.25178904  0.05815311  1
  Se  Se134  1  0.25240951  0.25258559  0.56393040  1
  Se  Se135  1  0.26365859  0.59223728  0.05772185  1
  Se  Se136  1  0.24431338  0.57802426  0.54481455  1
  Se  Se137  1  0.24713931  0.91506794  0.05647342  1
  Se  Se138  1  0.24881664  0.92108795  0.54509501  1
  Se  Se139  1  0.59556534  0.26145520  0.05655867  1
  Se  Se140  1  0.58178435  0.24529879  0.55228974  1
  Se  Se141  1  0.58929093  0.59451198  0.05906535  1
  Se  Se142  1  0.57866352  0.57709972  0.55491594  1
  Se  Se143  1  0.59225283  0.94078613  0.04838600  1
  Se  Se144  1  0.59128442  0.91260939  0.56668157  1
  Se  Se145  1  0.91491982  0.24530310  0.05314340  1
  Se  Se146  1  0.91152776  0.26641424  0.56416237  1
  Se  Se147  1  0.91401612  0.57619413  0.05189479  1
  Se  Se148  1  0.91594129  0.59776767  0.56338081  1
  Se  Se149  1  0.92758606  0.91376509  0.06257838  1
  Se  Se150  1  0.92132547  0.92869348  0.55610201  1
  Se  Se151  1  0.06834352  0.26090215  0.44454547  1
  Se  Se152  1  0.08770393  0.25038521  0.95058634  1
  Se  Se153  1  0.08608986  0.57813827  0.44688490  1
  Se  Se154  1  0.07413168  0.58057746  0.93111525  1
  Se  Se155  1  0.08217778  0.92008331  0.44835701  1
  Se  Se156  1  0.08919032  0.91216048  0.94914324  1
  Se  Se157  1  0.41613022  0.24251125  0.44703159  1
  Se  Se158  1  0.40903485  0.26181654  0.94653890  1
  Se  Se159  1  0.41839604  0.57835202  0.44760273  1
  Se  Se160  1  0.41316261  0.59811609  0.93761188  1
  Se  Se161  1  0.41163427  0.91082797  0.43668974  1
  Se  Se162  1  0.41287975  0.92550922  0.94837778  1
  Se  Se163  1  0.73973720  0.26176265  0.43768023  1
  Se  Se164  1  0.75790056  0.24569711  0.94121510  1
  Se  Se165  1  0.75451628  0.58121260  0.45192281  1
  Se  Se166  1  0.74120698  0.58022249  0.93451709  1
  Se  Se167  1  0.74070287  0.92511409  0.44562756  1
  Se  Se168  1  0.74608509  0.92039415  0.93723683  1
  Se  Se169  1  0.25411325  0.07834867  0.43592462  1
  Se  Se170  1  0.24924618  0.08984206  0.94994243  1
  Se  Se171  1  0.24694505  0.41145760  0.44782873  1
  Se  Se172  1  0.25391573  0.41844509  0.94514175  1
  Se  Se173  1  0.24917773  0.74802601  0.44252806  1
  Se  Se174  1  0.24659315  0.75400236  0.94782087  1
  Se  Se175  1  0.57880010  0.08637272  0.45488186  1
  Se  Se176  1  0.58710032  0.08556517  0.92912159  1
  Se  Se177  1  0.58342697  0.41646942  0.45404818  1
  Se  Se178  1  0.59375821  0.41163913  0.93455022  1
  Se  Se179  1  0.59505618  0.73910894  0.44514054  1
  Se  Se180  1  0.57570617  0.76508771  0.95278985  1
  Se  Se181  1  0.92275957  0.08031297  0.44161087  1
  Se  Se182  1  0.92189802  0.07948714  0.95390236  1
  Se  Se183  1  0.90815084  0.42626751  0.44585948  1
  Se  Se184  1  0.91904873  0.41886239  0.94135542  1
  Se  Se185  1  0.92579332  0.74905404  0.43715488  1
  Se  Se186  1  0.92356340  0.74139097  0.93780204  1
  Se  Se187  1  0.24323060  0.24864883  0.30307412  1
  Se  Se188  1  0.24437130  0.24185613  0.81542769  1
  Se  Se189  1  0.24988714  0.58165296  0.30740038  1
  Se  Se190  1  0.24594920  0.58148448  0.80711860  1
  Se  Se191  1  0.25290866  0.91959016  0.29993470  1
  Se  Se192  1  0.24770570  0.91534221  0.80467645  1
  Se  Se193  1  0.57804134  0.24820501  0.31167400  1
  Se  Se194  1  0.58164358  0.24932577  0.79544061  1
  Se  Se195  1  0.58218495  0.57799757  0.31331152  1
  Se  Se196  1  0.56535713  0.57036715  0.80340724  1
  Se  Se197  1  0.57758007  0.91566897  0.30964672  1
  Se  Se198  1  0.58101514  0.91680693  0.80252911  1
  Se  Se199  1  0.91731073  0.24979134  0.30217246  1
  Se  Se200  1  0.92663624  0.25151669  0.80814095  1
  Se  Se201  1  0.92219379  0.58247595  0.30242923  1
  Se  Se202  1  0.92062840  0.59577431  0.79413189  1
  Se  Se203  1  0.92503683  0.91843571  0.30070371  1
  Se  Se204  1  0.91078837  0.91091114  0.81498432  1
  Se  Se205  1  0.08022413  0.07601398  0.30285427  1
  Se  Se206  1  0.08848629  0.08643767  0.81536432  1
  Se  Se207  1  0.07803159  0.41246613  0.30554461  1
  Se  Se208  1  0.08929471  0.41996556  0.79965699  1
  Se  Se209  1  0.08781228  0.74844714  0.30205209  1
  Se  Se210  1  0.08248370  0.74807619  0.79819825  1
  Se  Se211  1  0.41455370  0.08100921  0.30386440  1
  Se  Se212  1  0.40973072  0.07878294  0.79923006  1
  Se  Se213  1  0.41143053  0.41269210  0.31027275  1
  Se  Se214  1  0.42405228  0.41932520  0.80450438  1
  Se  Se215  1  0.41770349  0.74615201  0.30073183  1
  Se  Se216  1  0.41933707  0.75333708  0.81540657  1
  Se  Se217  1  0.75731396  0.08753797  0.30725785  1
  Se  Se218  1  0.75509262  0.08314301  0.80131911  1
  Se  Se219  1  0.74987727  0.42232858  0.30549218  1
  Se  Se220  1  0.75216156  0.40236463  0.79393529  1
  Se  Se221  1  0.76411951  0.75494219  0.30959482  1
  Se  Se222  1  0.74410213  0.75013507  0.80468825  1
  Se  Se223  1  0.25099081  0.07982833  0.19908174  1
  Se  Se224  1  0.24601204  0.07867272  0.69697304  1
  Se  Se225  1  0.24959702  0.41340545  0.20240835  1
  Se  Se226  1  0.24755698  0.42267294  0.69028393  1
  Se  Se227  1  0.25602309  0.74819235  0.19576031  1
  Se  Se228  1  0.23785971  0.75179962  0.68228222  1
  Se  Se229  1  0.57511307  0.09739538  0.19149132  1
  Se  Se230  1  0.58501716  0.07591742  0.69765154  1
  Se  Se231  1  0.56945121  0.42954642  0.19265616  1
  Se  Se232  1  0.59092098  0.40265270  0.69231875  1
  Se  Se233  1  0.58097247  0.76224203  0.19029578  1
  Se  Se234  1  0.57853553  0.74531551  0.70254962  1
  Se  Se235  1  0.91896891  0.07585077  0.19282723  1
  Se  Se236  1  0.91678227  0.09262161  0.68927770  1
  Se  Se237  1  0.91844283  0.41083174  0.19628043  1
  Se  Se238  1  0.93450954  0.41030012  0.69727099  1
  Se  Se239  1  0.92645613  0.73872971  0.19641471  1
  Se  Se240  1  0.91612483  0.76152685  0.69692763  1
  Se  Se241  1  0.07908984  0.24571371  0.19753880  1
  Se  Se242  1  0.08444102  0.25369944  0.70423497  1
  Se  Se243  1  0.08905254  0.57873890  0.19475961  1
  Se  Se244  1  0.08476552  0.59040352  0.68777688  1
  Se  Se245  1  0.08550324  0.91439112  0.19581872  1
  Se  Se246  1  0.08621106  0.91287946  0.68702275  1
  Se  Se247  1  0.41154536  0.25952230  0.20036501  1
  Se  Se248  1  0.41919386  0.23746704  0.68514498  1
  Se  Se249  1  0.41552996  0.58885980  0.20294564  1
  Se  Se250  1  0.41955510  0.57055137  0.69281503  1
  Se  Se251  1  0.41463649  0.92262987  0.19663826  1
  Se  Se252  1  0.41042281  0.91154934  0.69597443  1
  Se  Se253  1  0.75695516  0.23905423  0.18530074  1
  Se  Se254  1  0.75544317  0.24310047  0.69667220  1
  Se  Se255  1  0.75638426  0.57508684  0.18873903  1
  Se  Se256  1  0.73059341  0.59089636  0.70207931  1
  Se  Se257  1  0.76177974  0.90232177  0.18747073  1
  Se  Se258  1  0.74523966  0.92190629  0.70368311  1
