# generated using pymatgen
data_In86Cu29Se144
_symmetry_space_group_name_H-M   'P 1'
_cell_length_a   17.58462772
_cell_length_b   17.58359069
_cell_length_c   23.43869278
_cell_angle_alpha   90.00750809
_cell_angle_beta   90.00042274
_cell_angle_gamma   89.99742990
_symmetry_Int_Tables_number   1
_chemical_formula_structural   In86Cu29Se144
_chemical_formula_sum   'In86 Cu29 Se144'
_cell_volume   7247.26474123
_cell_formula_units_Z   1
loop_
 _symmetry_equiv_pos_site_id
 _symmetry_equiv_pos_as_xyz
  1  'x, y, z'
loop_
 _atom_site_type_symbol
 _atom_site_label
 _atom_site_symmetry_multiplicity
 _atom_site_fract_x
 _atom_site_fract_y
 _atom_site_fract_z
 _atom_site_occupancy
  In  In0  1  -0.01172637  0.15306512  0.11352936  1
  In  In1  1  0.00033784  0.15010155  0.62391298  1
  In  In2  1  -0.00114476  0.50474692  0.11132973  1
  In  In3  1  0.01888763  0.51789554  0.61328902  1
  In  In4  1  0.00734687  0.83477850  0.12436460  1
  In  In5  1  -0.00448004  0.83588025  0.63696868  1
  In  In6  1  0.32585057  0.17209437  0.12863548  1
  In  In7  1  0.32722168  0.17495355  0.63481481  1
  In  In8  1  0.31446214  0.49627834  0.12132204  1
  In  In9  1  0.32176785  0.50448784  0.63620068  1
  In  In10  1  0.33588077  0.84510293  0.11727400  1
  In  In11  1  0.34203276  0.82245850  0.62718947  1
  In  In12  1  0.66916064  0.15433494  0.12525304  1
  In  In13  1  0.66799754  0.15198530  0.64360904  1
  In  In14  1  0.67727341  0.49136680  0.12287708  1
  In  In15  1  0.67079670  0.49295736  0.62610090  1
  In  In16  1  0.66960151  0.85331186  0.12277933  1
  In  In17  1  0.67721746  0.83948526  0.62098370  1
  In  In18  1  0.17625496  0.00336255  0.36850595  1
  In  In19  1  0.16723227  -0.00461658  0.87317700  1
  In  In20  1  0.16817674  0.32767504  0.38276438  1
  In  In21  1  0.17483590  0.32761502  0.88223799  1
  In  In22  1  0.15044102  0.66405587  0.38405898  1
  In  In23  1  0.16534646  0.66860684  0.87458566  1
  In  In24  1  0.49608900  -0.00350071  0.37396466  1
  In  In25  1  0.48848493  -0.00381445  0.86490549  1
  In  In26  1  0.48696920  0.33989397  0.37626147  1
  In  In27  1  0.49387576  0.31678670  0.85490491  1
  In  In28  1  0.50856150  0.66919446  0.38217977  1
  In  In29  1  0.49979667  0.68360462  0.87727966  1
  In  In30  1  0.81781151  -0.00994543  0.35303046  1
  In  In31  1  0.84709094  0.00056718  0.86747807  1
  In  In32  1  0.84482873  0.33278086  0.37436835  1
  In  In33  1  0.82991434  0.33618449  0.87457395  1
  In  In34  1  0.83797932  0.67509367  0.38880416  1
  In  In35  1  0.83182401  0.66435290  0.87068901  1
  In  In36  1  0.00550789  0.16222091  0.37393386  1
  In  In37  1  0.01351297  0.15466198  0.88465916  1
  In  In38  1  -0.00099386  0.50975210  0.39116651  1
  In  In39  1  -0.00369752  0.51553558  0.88478095  1
  In  In40  1  -0.01566517  0.83746232  0.37612082  1
  In  In41  1  0.00491662  0.84417343  0.86461961  1
  In  In42  1  0.32360192  0.16125837  0.37061265  1
  In  In43  1  0.32953671  0.15298502  0.86275581  1
  In  In44  1  0.33066976  0.48818598  0.37805012  1
  In  In45  1  0.32160874  0.49225131  0.86929064  1
  In  In46  1  0.32861192  0.84616947  0.37793900  1
  In  In47  1  0.33150653  0.83448033  0.87106570  1
  In  In48  1  0.67556031  0.14748337  0.37366523  1
  In  In49  1  0.67379071  0.17243336  0.86742402  1
  In  In50  1  0.67266067  0.50871151  0.37844653  1
  In  In51  1  0.67954098  0.49496512  0.87186328  1
  In  In52  1  0.66589163  0.84002229  0.38191449  1
  In  In53  1  0.65399195  0.83045533  0.87489140  1
  In  In54  1  0.16665259  0.00291636  0.12088560  1
  In  In55  1  0.15877900  0.00645391  0.62785997  1
  In  In56  1  0.16720986  0.33504673  0.11815387  1
  In  In57  1  0.17497777  0.33791403  0.62464187  1
  In  In58  1  0.15372664  0.66724528  0.11012350  1
  In  In59  1  0.17655400  0.65925668  0.63203232  1
  In  In60  1  0.50384388  -0.00269734  0.12747831  1
  In  In61  1  0.51241495  -0.01069611  0.63445471  1
  In  In62  1  0.49452793  0.31538323  0.12499918  1
  In  In63  1  0.50286124  0.32551403  0.64173448  1
  In  In64  1  0.48643823  0.67341392  0.12059377  1
  In  In65  1  0.47768345  0.67354519  0.62337088  1
  In  In66  1  0.82444013  0.00860041  0.13902969  1
  In  In67  1  0.83973360  -0.01517064  0.63864169  1
  In  In68  1  0.83814398  0.33907443  0.11272473  1
  In  In69  1  0.82204366  0.33750007  0.62836753  1
  In  In70  1  0.85385508  0.66625171  0.12069594  1
  In  In71  1  0.85264704  0.68303135  0.61328702  1
  In  In72  1  0.66681144  0.67110056  0.25829155  1
  In  In73  1  0.83735955  0.83221429  -0.00080106  1
  In  In74  1  0.50478197  0.50281416  -0.00976755  1
  In  In75  1  0.00284022  0.32534112  0.25453325  1
  In  In76  1  -0.00107076  0.67417544  0.24785968  1
  In  In77  1  0.00075324  0.33467511  0.75247307  1
  In  In78  1  0.16916024  0.82744759  0.50325690  1
  In  In79  1  0.50053614  0.16097020  -0.00261652  1
  In  In80  1  0.66848967  0.66728428  0.75183964  1
  In  In81  1  0.66060238  0.32028183  0.24645206  1
  In  In82  1  0.83849224  0.16442475  0.49818288  1
  In  In83  1  0.49808257  0.16712148  0.51587992  1
  In  In84  1  0.49350272  0.50364405  0.51071438  1
  In  In85  1  0.32734535  0.67294972  0.25135326  1
  Cu  Cu86  1  0.67385294  -0.00347806  0.50344565  1
  Cu  Cu87  1  0.16824621  0.16369863  0.24784483  1
  Cu  Cu88  1  0.32686575  -0.00257585  -0.00706348  1
  Cu  Cu89  1  0.48573582  0.49012389  0.25050703  1
  Cu  Cu90  1  0.32809622  0.67703881  -0.00258694  1
  Cu  Cu91  1  0.33549100  0.33396202  -0.00115529  1
  Cu  Cu92  1  0.17275392  0.83671737  0.74942382  1
  Cu  Cu93  1  0.83760072  0.16053920  0.75186169  1
  Cu  Cu94  1  0.49771295  0.50157183  0.74858018  1
  Cu  Cu95  1  0.49611197  0.83169486  0.74957725  1
  Cu  Cu96  1  0.16663372  0.49329156  0.24936253  1
  Cu  Cu97  1  0.83747267  0.49813556  0.25029635  1
  Cu  Cu98  1  0.16336674  0.50234746  0.75257114  1
  Cu  Cu99  1  0.16375614  0.16141890  0.75533371  1
  Cu  Cu100  1  0.83983869  0.50215487  0.75023096  1
  Cu  Cu101  1  0.50447268  0.83940375  0.25017318  1
  Cu  Cu102  1  0.00017260  0.33693121  0.50029563  1
  Cu  Cu103  1  0.67626156  0.33352981  -0.00814297  1
  Cu  Cu104  1  0.66826019  0.00091602  0.00110496  1
  Cu  Cu105  1  0.66864320  0.66791699  -0.00439993  1
  Cu  Cu106  1  0.66754187  0.33594663  0.50327284  1
  Cu  Cu107  1  0.00180875  0.33446151  -0.00601555  1
  Cu  Cu108  1  0.33244433  0.00291534  0.49746352  1
  Cu  Cu109  1  0.32684904  0.33143167  0.50644016  1
  Cu  Cu110  1  0.67203167  0.67257957  0.50209590  1
  Cu  Cu111  1  0.00252403  -0.00181848  -0.00291021  1
  Cu  Cu112  1  -0.00032562  -0.00525106  0.50283129  1
  Cu  Cu113  1  0.49108402  0.16309418  0.25188702  1
  Cu  Cu114  1  0.16993824  0.84146271  0.24466119  1
  Se  Se115  1  0.08675619  0.08475734  0.04867663  1
  Se  Se116  1  0.08488739  0.08253684  0.54874422  1
  Se  Se117  1  0.08459943  0.41742244  0.04982344  1
  Se  Se118  1  0.08839425  0.41397302  0.55450071  1
  Se  Se119  1  0.05997128  0.74305895  0.04904555  1
  Se  Se120  1  0.08154466  0.74659437  0.56912395  1
  Se  Se121  1  0.40667543  0.07573564  0.05726793  1
  Se  Se122  1  0.40780358  0.07283541  0.56827183  1
  Se  Se123  1  0.41827550  0.41357910  0.05773613  1
  Se  Se124  1  0.41202074  0.40467674  0.56820419  1
  Se  Se125  1  0.41577650  0.75768736  0.04869406  1
  Se  Se126  1  0.41616431  0.75574075  0.54600700  1
  Se  Se127  1  0.75432296  0.07934258  0.05484465  1
  Se  Se128  1  0.74997271  0.07997601  0.56400621  1
  Se  Se129  1  0.75381649  0.42226907  0.04502383  1
  Se  Se130  1  0.75350643  0.41995211  0.55126417  1
  Se  Se131  1  0.74455950  0.74421592  0.06272593  1
  Se  Se132  1  0.75788744  0.75930244  0.54985876  1
  Se  Se133  1  0.25279061  0.24962246  0.05225991  1
  Se  Se134  1  0.24561147  0.24275203  0.55662535  1
  Se  Se135  1  0.25045809  0.58800823  0.05053845  1
  Se  Se136  1  0.25943090  0.58591654  0.55857683  1
  Se  Se137  1  0.24351428  0.91571755  0.04926027  1
  Se  Se138  1  0.25483095  0.92251098  0.56213005  1
  Se  Se139  1  0.59574588  0.25522467  0.05404725  1
  Se  Se140  1  0.59841324  0.25497099  0.56768489  1
  Se  Se141  1  0.58976428  0.58845141  0.06074551  1
  Se  Se142  1  0.59032491  0.59536403  0.56424510  1
  Se  Se143  1  0.57942892  0.91948397  0.05085442  1
  Se  Se144  1  0.58455579  0.91671169  0.55422761  1
  Se  Se145  1  0.91833950  0.25085863  0.04808720  1
  Se  Se146  1  0.92258367  0.25644134  0.56282407  1
  Se  Se147  1  0.90784568  0.57792788  0.04512098  1
  Se  Se148  1  0.90106052  0.56552342  0.55903132  1
  Se  Se149  1  0.91777139  0.92725246  0.06125852  1
  Se  Se150  1  0.91844594  0.91498764  0.56028704  1
  Se  Se151  1  0.07684065  0.24797911  0.44663178  1
  Se  Se152  1  0.08900983  0.24716615  0.94975245  1
  Se  Se153  1  0.08892454  0.57948864  0.45962225  1
  Se  Se154  1  0.09846228  0.57824581  0.94731157  1
  Se  Se155  1  0.08425310  0.92012024  0.44018432  1
  Se  Se156  1  0.08345004  0.91417820  0.94324823  1
  Se  Se157  1  0.40998329  0.25169305  0.44772732  1
  Se  Se158  1  0.41129183  0.25188109  0.93765231  1
  Se  Se159  1  0.40953551  0.58723085  0.44174908  1
  Se  Se160  1  0.40670182  0.59215719  0.93813039  1
  Se  Se161  1  0.41788107  0.91824688  0.44822425  1
  Se  Se162  1  0.41582559  0.91804829  0.94116522  1
  Se  Se163  1  0.74136387  0.25462893  0.43938276  1
  Se  Se164  1  0.75667202  0.24346477  0.94328288  1
  Se  Se165  1  0.75235047  0.58509430  0.44976049  1
  Se  Se166  1  0.74956416  0.58481385  0.94235536  1
  Se  Se167  1  0.75901265  0.92405282  0.44252236  1
  Se  Se168  1  0.74601928  0.91994083  0.93843093  1
  Se  Se169  1  0.24671209  0.08430080  0.44606127  1
  Se  Se170  1  0.24876496  0.08526594  0.94035243  1
  Se  Se171  1  0.24703424  0.41577021  0.45094555  1
  Se  Se172  1  0.25081147  0.41993701  0.94977745  1
  Se  Se173  1  0.25872180  0.74085324  0.43913395  1
  Se  Se174  1  0.24585585  0.75851022  0.94226609  1
  Se  Se175  1  0.58756394  0.07939374  0.44968476  1
  Se  Se176  1  0.59027180  0.07591041  0.93517200  1
  Se  Se177  1  0.58543377  0.41455259  0.44387194  1
  Se  Se178  1  0.58569759  0.40300371  0.93254267  1
  Se  Se179  1  0.58563297  0.75394076  0.45018596  1
  Se  Se180  1  0.58086260  0.75472883  0.95303341  1
  Se  Se181  1  0.91877943  0.06911043  0.43736098  1
  Se  Se182  1  0.91420915  0.07993456  0.94648399  1
  Se  Se183  1  0.91208593  0.41638156  0.44857933  1
  Se  Se184  1  0.91602467  0.41676343  0.94214074  1
  Se  Se185  1  0.94420655  0.73591789  0.44859390  1
  Se  Se186  1  0.92395416  0.74842987  0.93457858  1
  Se  Se187  1  0.24324455  0.25141695  0.30564710  1
  Se  Se188  1  0.24630699  0.24928220  0.80493528  1
  Se  Se189  1  0.23935553  0.57923287  0.31094738  1
  Se  Se190  1  0.24983190  0.58697053  0.80344425  1
  Se  Se191  1  0.25737464  0.91876110  0.29876767  1
  Se  Se192  1  0.25578217  0.92306883  0.80113587  1
  Se  Se193  1  0.57149196  0.23995067  0.31657338  1
  Se  Se194  1  0.60449210  0.26331884  0.79742168  1
  Se  Se195  1  0.57005136  0.57011907  0.30686803  1
  Se  Se196  1  0.57578235  0.57835231  0.81347960  1
  Se  Se197  1  0.58681171  0.91841577  0.30775550  1
  Se  Se198  1  0.58056331  0.91407118  0.80223835  1
  Se  Se199  1  0.90423993  0.23342668  0.30446980  1
  Se  Se200  1  0.91838793  0.23933324  0.81351849  1
  Se  Se201  1  0.91260921  0.58074936  0.31127722  1
  Se  Se202  1  0.92074229  0.58510212  0.80412762  1
  Se  Se203  1  0.93050417  0.92731380  0.30088015  1
  Se  Se204  1  0.91241197  0.91152435  0.79527201  1
  Se  Se205  1  0.08569279  0.08218296  0.30282630  1
  Se  Se206  1  0.07895483  0.07668058  0.80474856  1
  Se  Se207  1  0.08217499  0.42529738  0.31443156  1
  Se  Se208  1  0.08757148  0.42189800  0.81601907  1
  Se  Se209  1  0.09309118  0.76112435  0.30825131  1
  Se  Se210  1  0.08831779  0.75294589  0.80216508  1
  Se  Se211  1  0.41132652  0.07825016  0.30654312  1
  Se  Se212  1  0.43836567  0.10262819  0.79789189  1
  Se  Se213  1  0.40237015  0.40770494  0.30149610  1
  Se  Se214  1  0.41373203  0.41837087  0.80167954  1
  Se  Se215  1  0.42613330  0.75623749  0.31005476  1
  Se  Se216  1  0.41356121  0.74719628  0.80208799  1
  Se  Se217  1  0.74559013  0.08759018  0.29069544  1
  Se  Se218  1  0.75145086  0.07830516  0.80395993  1
  Se  Se219  1  0.75100020  0.41819590  0.30558651  1
  Se  Se220  1  0.75528220  0.41517232  0.79782597  1
  Se  Se221  1  0.76154094  0.75827199  0.31331238  1
  Se  Se222  1  0.75551156  0.76390721  0.80699803  1
  Se  Se223  1  0.25140756  0.07956661  0.19421959  1
  Se  Se224  1  0.24716106  0.08173685  0.69779849  1
  Se  Se225  1  0.24715448  0.41012121  0.19528321  1
  Se  Se226  1  0.24646236  0.41325060  0.70348439  1
  Se  Se227  1  0.23923279  0.75318558  0.18345352  1
  Se  Se228  1  0.25480624  0.74912552  0.69847300  1
  Se  Se229  1  0.57854733  0.08719571  0.19633176  1
  Se  Se230  1  0.55623942  0.09904945  0.70236251  1
  Se  Se231  1  0.57316727  0.42028534  0.18856447  1
  Se  Se232  1  0.58660211  0.42118605  0.69911980  1
  Se  Se233  1  0.57790070  0.75329938  0.18974465  1
  Se  Se234  1  0.57799371  0.75272086  0.68795329  1
  Se  Se235  1  0.92510729  0.08324275  0.19675276  1
  Se  Se236  1  0.92220059  0.07827644  0.69946536  1
  Se  Se237  1  0.91863776  0.42117856  0.19040813  1
  Se  Se238  1  0.91900755  0.42391135  0.68706528  1
  Se  Se239  1  0.90462657  0.76604485  0.19455440  1
  Se  Se240  1  0.91093691  0.74833636  0.70039508  1
  Se  Se241  1  0.08669249  0.24180813  0.18667046  1
  Se  Se242  1  0.08669388  0.24177355  0.69089977  1
  Se  Se243  1  0.08696961  0.57572891  0.19066144  1
  Se  Se244  1  0.08114092  0.58606029  0.69908964  1
  Se  Se245  1  0.08389416  0.92162945  0.19251483  1
  Se  Se246  1  0.08516945  0.91964176  0.69900928  1
  Se  Se247  1  0.41088960  0.25045044  0.20040325  1
  Se  Se248  1  0.40778674  0.25513149  0.70466373  1
  Se  Se249  1  0.41429221  0.57613176  0.19013877  1
  Se  Se250  1  0.41411685  0.58668505  0.69880523  1
  Se  Se251  1  0.41684289  0.91493342  0.19418404  1
  Se  Se252  1  0.41309045  0.91541679  0.69619170  1
  Se  Se253  1  0.76084608  0.24860521  0.18486269  1
  Se  Se254  1  0.75594711  0.24568455  0.69930496  1
  Se  Se255  1  0.75685870  0.58204966  0.19315076  1
  Se  Se256  1  0.75883833  0.58263270  0.68930587  1
  Se  Se257  1  0.74625584  0.91529175  0.20190089  1
  Se  Se258  1  0.72653630  0.93349859  0.69684062  1
