# generated using pymatgen
data_In86Cu29Se144
_symmetry_space_group_name_H-M   'P 1'
_cell_length_a   17.53525501
_cell_length_b   17.53799034
_cell_length_c   23.38922477
_cell_angle_alpha   90.00037269
_cell_angle_beta   89.99468965
_cell_angle_gamma   89.99227911
_symmetry_Int_Tables_number   1
_chemical_formula_structural   In86Cu29Se144
_chemical_formula_sum   'In86 Cu29 Se144'
_cell_volume   7192.96147106
_cell_formula_units_Z   1
loop_
 _symmetry_equiv_pos_site_id
 _symmetry_equiv_pos_as_xyz
  1  'x, y, z'
loop_
 _atom_site_type_symbol
 _atom_site_label
 _atom_site_symmetry_multiplicity
 _atom_site_fract_x
 _atom_site_fract_y
 _atom_site_fract_z
 _atom_site_occupancy
  In  In0  1  0.00826163  0.18535592  0.10720177  1
  In  In1  1  -0.02678937  0.17231556  0.62394686  1
  In  In2  1  -0.00316095  0.49975393  0.12077805  1
  In  In3  1  0.00129144  0.51030339  0.62439939  1
  In  In4  1  0.00122863  0.81829121  0.12885760  1
  In  In5  1  -0.01293965  0.82095458  0.61590879  1
  In  In6  1  0.31696357  0.17765254  0.12630847  1
  In  In7  1  0.34701758  0.14855633  0.62590920  1
  In  In8  1  0.33688468  0.51011625  0.12561523  1
  In  In9  1  0.34487147  0.49193403  0.62562669  1
  In  In10  1  0.32625026  0.82375255  0.12085996  1
  In  In11  1  0.33924116  0.85621844  0.60690664  1
  In  In12  1  0.68458684  0.17389897  0.12000182  1
  In  In13  1  0.67350342  0.17211447  0.62318175  1
  In  In14  1  0.67679170  0.49387677  0.13632349  1
  In  In15  1  0.67069282  0.50314907  0.62180897  1
  In  In16  1  0.65630507  0.83207179  0.12529355  1
  In  In17  1  0.67066522  0.82986762  0.62130875  1
  In  In18  1  0.16030524  -0.00692151  0.37305942  1
  In  In19  1  0.15108824  0.00259752  0.89290671  1
  In  In20  1  0.16223272  0.34463948  0.36670828  1
  In  In21  1  0.14254845  0.34940683  0.90900341  1
  In  In22  1  0.17497546  0.66839815  0.36356964  1
  In  In23  1  0.15406800  0.68034231  0.88054608  1
  In  In24  1  0.52767207  -0.02718720  0.40470965  1
  In  In25  1  0.49565020  -0.01049714  0.87031067  1
  In  In26  1  0.51706028  0.32120938  0.38354627  1
  In  In27  1  0.50533054  0.32598224  0.86989552  1
  In  In28  1  0.50438361  0.66404760  0.38194945  1
  In  In29  1  0.51729653  0.66653659  0.87282686  1
  In  In30  1  0.81988266  0.00616168  0.39163292  1
  In  In31  1  0.82749702  0.01163542  0.87184551  1
  In  In32  1  0.83712641  0.34248157  0.37690517  1
  In  In33  1  0.83337411  0.33840086  0.88441568  1
  In  In34  1  0.82860195  0.65956081  0.37901951  1
  In  In35  1  0.82539470  0.65829499  0.86737793  1
  In  In36  1  -0.01138923  0.17757994  0.37778425  1
  In  In37  1  -0.01748661  0.17643542  0.89955014  1
  In  In38  1  -0.01827905  0.49025685  0.36440716  1
  In  In39  1  -0.01529549  0.50544628  0.88846500  1
  In  In40  1  0.00640401  0.82372793  0.37725590  1
  In  In41  1  0.01105862  0.83542793  0.87483356  1
  In  In42  1  0.34487098  0.16893700  0.37285278  1
  In  In43  1  0.33004870  0.16408917  0.87354212  1
  In  In44  1  0.32609055  0.50828946  0.37154952  1
  In  In45  1  0.32627945  0.49050980  0.87756095  1
  In  In46  1  0.35412017  0.81717337  0.39360148  1
  In  In47  1  0.33091862  0.83992390  0.88062182  1
  In  In48  1  0.66262640  0.16903690  0.38078697  1
  In  In49  1  0.67311991  0.17715138  0.86213577  1
  In  In50  1  0.67504912  0.50418591  0.38196980  1
  In  In51  1  0.67608188  0.50287065  0.86754870  1
  In  In52  1  0.69130561  0.80480222  0.41404807  1
  In  In53  1  0.65702086  0.82247503  0.86700517  1
  In  In54  1  0.15989411  0.00326710  0.11371822  1
  In  In55  1  0.17879117  -0.00437145  0.62510510  1
  In  In56  1  0.15471728  0.32337410  0.10649084  1
  In  In57  1  0.16090586  0.34021086  0.62701135  1
  In  In58  1  0.16688454  0.66332518  0.12322986  1
  In  In59  1  0.15041902  0.67202370  0.62833517  1
  In  In60  1  0.51359752  -0.01294547  0.12553294  1
  In  In61  1  0.53341550  0.02447057  0.58919424  1
  In  In62  1  0.50260528  0.34572410  0.13277959  1
  In  In63  1  0.52301751  0.35551079  0.60960225  1
  In  In64  1  0.49262011  0.66728461  0.13443204  1
  In  In65  1  0.53120897  0.69014127  0.59757086  1
  In  In66  1  0.82878823  0.01316570  0.12142989  1
  In  In67  1  0.80657367  -0.02062348  0.60191008  1
  In  In68  1  0.83319606  0.33805987  0.12275088  1
  In  In69  1  0.82461534  0.31258063  0.60451398  1
  In  In70  1  0.84431506  0.65907348  0.13741714  1
  In  In71  1  0.83293259  0.66583802  0.62040541  1
  In  In72  1  0.16219647  0.50525982  0.49780609  1
  In  In73  1  0.16846529  0.16156764  0.50318963  1
  In  In74  1  0.33943295  -0.00257755  0.26270211  1
  In  In75  1  0.49168636  0.16382408  -0.00367487  1
  In  In76  1  0.49531848  0.50682545  0.00528358  1
  In  In77  1  -0.00938629  0.33830419  0.75606147  1
  In  In78  1  0.66718689  -0.00593210  0.26104089  1
  In  In79  1  0.34257866  0.67145725  0.74293509  1
  In  In80  1  -0.00327600  -0.00306854  0.75380423  1
  In  In81  1  0.33768146  0.32533348  0.75583738  1
  In  In82  1  0.33001260  0.34618883  0.24576261  1
  In  In83  1  0.34098755  -0.00703953  0.75119087  1
  In  In84  1  0.83955099  0.83615861  0.00241289  1
  In  In85  1  -0.00647837  -0.00194730  0.24962348  1
  Cu  Cu86  1  0.67391249  0.33587171  0.49727891  1
  Cu  Cu87  1  0.50893474  0.83581595  0.74007730  1
  Cu  Cu88  1  0.32547783  0.65996252  0.49505334  1
  Cu  Cu89  1  0.15668777  0.17360580  0.23939909  1
  Cu  Cu90  1  -0.00146873  0.66550089  0.00440896  1
  Cu  Cu91  1  0.33837084  -0.00134911  0.00168246  1
  Cu  Cu92  1  0.66735941  0.33702434  -0.00015652  1
  Cu  Cu93  1  0.16051917  0.17333959  0.76215241  1
  Cu  Cu94  1  0.82925019  0.50481105  0.25078918  1
  Cu  Cu95  1  0.66285748  -0.00426505  -0.00339740  1
  Cu  Cu96  1  0.34077436  0.32423684  0.49910725  1
  Cu  Cu97  1  0.50838728  0.16434333  0.25594919  1
  Cu  Cu98  1  0.67286655  0.66441110  -0.00198480  1
  Cu  Cu99  1  0.33525987  0.67422766  0.00435356  1
  Cu  Cu100  1  0.82528289  0.15954292  0.74491370  1
  Cu  Cu101  1  0.50861973  0.49951098  0.25932355  1
  Cu  Cu102  1  0.00268251  -0.00086316  0.49851275  1
  Cu  Cu103  1  0.49960006  0.82126127  0.25732088  1
  Cu  Cu104  1  0.16460704  0.82825316  0.75026160  1
  Cu  Cu105  1  -0.00273393  0.66687100  0.49540868  1
  Cu  Cu106  1  0.51242663  0.50619583  0.74062283  1
  Cu  Cu107  1  0.16281804  0.50955889  0.75699030  1
  Cu  Cu108  1  0.51252409  0.17316877  0.73530953  1
  Cu  Cu109  1  0.83548463  0.18674168  0.24910198  1
  Cu  Cu110  1  0.83376266  0.49443007  0.74672959  1
  Cu  Cu111  1  0.82966313  0.82797125  0.74074411  1
  Cu  Cu112  1  0.82607440  0.83250265  0.26153066  1
  Cu  Cu113  1  0.17250875  0.81997286  0.24883318  1
  Cu  Cu114  1  0.15174870  0.50148272  0.24246611  1
  Se  Se115  1  0.08060637  0.08588198  0.04615810  1
  Se  Se116  1  0.07312155  0.07922129  0.56758464  1
  Se  Se117  1  0.07639758  0.42062057  0.04803296  1
  Se  Se118  1  0.07341852  0.40991925  0.55371714  1
  Se  Se119  1  0.08524522  0.74941908  0.05379489  1
  Se  Se120  1  0.08368922  0.74928738  0.54868245  1
  Se  Se121  1  0.41285803  0.07642939  0.06851190  1
  Se  Se122  1  0.40403714  0.06817493  0.54648934  1
  Se  Se123  1  0.40824070  0.40650781  0.05863353  1
  Se  Se124  1  0.41812030  0.41969755  0.54662404  1
  Se  Se125  1  0.42522343  0.75074076  0.05700383  1
  Se  Se126  1  0.40282761  0.74095323  0.55629777  1
  Se  Se127  1  0.74613859  0.08279412  0.04543452  1
  Se  Se128  1  0.77639486  0.10957948  0.55751083  1
  Se  Se129  1  0.74690403  0.42265423  0.05464271  1
  Se  Se130  1  0.75556820  0.42163804  0.55086130  1
  Se  Se131  1  0.75004872  0.74438201  0.06237955  1
  Se  Se132  1  0.75223856  0.74874832  0.55048597  1
  Se  Se133  1  0.25540907  0.25055601  0.04540197  1
  Se  Se134  1  0.25925273  0.25418812  0.56572235  1
  Se  Se135  1  0.25350830  0.58462970  0.05297272  1
  Se  Se136  1  0.25165301  0.58626547  0.56551453  1
  Se  Se137  1  0.25200019  0.91668344  0.05513502  1
  Se  Se138  1  0.23360284  0.91523033  0.54407306  1
  Se  Se139  1  0.58239314  0.25701955  0.05759699  1
  Se  Se140  1  0.58870142  0.25010125  0.55002997  1
  Se  Se141  1  0.59273503  0.58884800  0.06430898  1
  Se  Se142  1  0.56888976  0.56247279  0.55354545  1
  Se  Se143  1  0.58226757  0.90886099  0.04728379  1
  Se  Se144  1  0.56541596  0.89026324  0.55347651  1
  Se  Se145  1  0.88737590  0.23169759  0.05655989  1
  Se  Se146  1  0.93304132  0.25823248  0.54187661  1
  Se  Se147  1  0.90877974  0.58562720  0.05458915  1
  Se  Se148  1  0.91772795  0.58229969  0.55105761  1
  Se  Se149  1  0.92623517  0.92320407  0.06645342  1
  Se  Se150  1  0.91572933  0.91188465  0.54677574  1
  Se  Se151  1  0.08746503  0.25834232  0.44198734  1
  Se  Se152  1  0.09222655  0.23020661  0.96034564  1
  Se  Se153  1  0.07594083  0.58820911  0.43110382  1
  Se  Se154  1  0.08302642  0.58566104  0.94722747  1
  Se  Se155  1  0.08365478  0.91362183  0.44578593  1
  Se  Se156  1  0.08505264  0.90118099  0.95476680  1
  Se  Se157  1  0.42498158  0.24049558  0.44836553  1
  Se  Se158  1  0.40661089  0.26342195  0.94074507  1
  Se  Se159  1  0.41153203  0.57789908  0.44421072  1
  Se  Se160  1  0.41081148  0.59507447  0.93785541  1
  Se  Se161  1  0.39875995  0.93473488  0.44950162  1
  Se  Se162  1  0.42182182  0.91538846  0.94842346  1
  Se  Se163  1  0.75535183  0.25137362  0.44218637  1
  Se  Se164  1  0.74279768  0.24842558  0.94371317  1
  Se  Se165  1  0.74019956  0.59589242  0.45439480  1
  Se  Se166  1  0.75249724  0.57877056  0.94445348  1
  Se  Se167  1  0.73187965  0.93245794  0.46013241  1
  Se  Se168  1  0.74351449  0.91369715  0.93759391  1
  Se  Se169  1  0.25449263  0.07862355  0.43591020  1
  Se  Se170  1  0.25649082  0.08061509  0.94575089  1
  Se  Se171  1  0.25629260  0.40689753  0.44344780  1
  Se  Se172  1  0.25352123  0.42224678  0.95591994  1
  Se  Se173  1  0.24222789  0.74515661  0.44403104  1
  Se  Se174  1  0.25003327  0.75266676  0.94624385  1
  Se  Se175  1  0.59233669  0.08467348  0.45628877  1
  Se  Se176  1  0.58656202  0.08032022  0.93504053  1
  Se  Se177  1  0.58580230  0.41910569  0.44760106  1
  Se  Se178  1  0.58446343  0.41660440  0.94098676  1
  Se  Se179  1  0.56135767  0.76180014  0.45487005  1
  Se  Se180  1  0.58636374  0.74857090  0.94879958  1
  Se  Se181  1  0.92066354  0.08576209  0.44769505  1
  Se  Se182  1  0.92288743  0.05791088  0.94626162  1
  Se  Se183  1  0.91488193  0.42629293  0.44838587  1
  Se  Se184  1  0.93615769  0.39419223  0.95116438  1
  Se  Se185  1  0.91271506  0.75152758  0.44355177  1
  Se  Se186  1  0.91928512  0.74155139  0.93812123  1
  Se  Se187  1  0.24475353  0.24402228  0.30364748  1
  Se  Se188  1  0.23396734  0.25957612  0.82056598  1
  Se  Se189  1  0.24586232  0.57567442  0.29386546  1
  Se  Se190  1  0.25125362  0.58859144  0.81028992  1
  Se  Se191  1  0.24822815  0.89895629  0.31318030  1
  Se  Se192  1  0.23596156  0.91703088  0.81105536  1
  Se  Se193  1  0.59259429  0.25148973  0.30360085  1
  Se  Se194  1  0.58793950  0.25884036  0.79390672  1
  Se  Se195  1  0.58912126  0.58606511  0.31166342  1
  Se  Se196  1  0.59303679  0.58755194  0.79959214  1
  Se  Se197  1  0.58378186  0.89716727  0.31783502  1
  Se  Se198  1  0.58599224  0.91948880  0.79998938  1
  Se  Se199  1  0.92298267  0.26398168  0.30340257  1
  Se  Se200  1  0.90670327  0.23559344  0.81009614  1
  Se  Se201  1  0.91278761  0.59119849  0.30157980  1
  Se  Se202  1  0.91680598  0.57508547  0.80445586  1
  Se  Se203  1  0.90407333  0.91859425  0.31869475  1
  Se  Se204  1  0.90357578  0.90341641  0.81009819  1
  Se  Se205  1  0.08547391  0.09324026  0.30677616  1
  Se  Se206  1  0.07663938  0.09255878  0.81811156  1
  Se  Se207  1  0.07399593  0.41462799  0.29644876  1
  Se  Se208  1  0.08725024  0.42323974  0.81621522  1
  Se  Se209  1  0.07845486  0.74531136  0.29987306  1
  Se  Se210  1  0.07635134  0.74670719  0.79971184  1
  Se  Se211  1  0.44213116  0.07773164  0.31855368  1
  Se  Se212  1  0.43046689  0.09886888  0.80187748  1
  Se  Se213  1  0.42572843  0.41581408  0.31581844  1
  Se  Se214  1  0.42969754  0.43055166  0.80485908  1
  Se  Se215  1  0.41325980  0.74044986  0.31042962  1
  Se  Se216  1  0.42692612  0.76391443  0.80703533  1
  Se  Se217  1  0.76184544  0.09502183  0.30742051  1
  Se  Se218  1  0.73986578  0.07649309  0.79705781  1
  Se  Se219  1  0.74986356  0.42065764  0.30765108  1
  Se  Se220  1  0.75682371  0.40975099  0.80520633  1
  Se  Se221  1  0.74198089  0.75371686  0.31727527  1
  Se  Se222  1  0.74756638  0.74638606  0.79985500  1
  Se  Se223  1  0.24304273  0.08131065  0.19523500  1
  Se  Se224  1  0.24289657  0.09284231  0.70122887  1
  Se  Se225  1  0.23397560  0.42150827  0.18107207  1
  Se  Se226  1  0.24462979  0.42555480  0.69906340  1
  Se  Se227  1  0.25702820  0.73863291  0.19481071  1
  Se  Se228  1  0.25066693  0.76257551  0.68453763  1
  Se  Se229  1  0.58714043  0.08659646  0.19149214  1
  Se  Se230  1  0.58680574  0.07967351  0.68383964  1
  Se  Se231  1  0.58894812  0.41413545  0.20503981  1
  Se  Se232  1  0.59445777  0.41443277  0.69489606  1
  Se  Se233  1  0.58618370  0.74669331  0.19867254  1
  Se  Se234  1  0.58837820  0.74412191  0.69138644  1
  Se  Se235  1  0.91285187  0.09819237  0.19118303  1
  Se  Se236  1  0.90109785  0.07239997  0.68794079  1
  Se  Se237  1  0.91172678  0.42266908  0.19321600  1
  Se  Se238  1  0.90905897  0.41513448  0.68241685  1
  Se  Se239  1  0.91353631  0.75629401  0.20459071  1
  Se  Se240  1  0.91789324  0.74356262  0.69441231  1
  Se  Se241  1  0.07623239  0.25920882  0.18874288  1
  Se  Se242  1  0.08107476  0.24407474  0.69426498  1
  Se  Se243  1  0.07287486  0.59049223  0.19046157  1
  Se  Se244  1  0.07809061  0.58644694  0.70086381  1
  Se  Se245  1  0.09437103  0.91086145  0.19386373  1
  Se  Se246  1  0.08448967  0.90982800  0.68874844  1
  Se  Se247  1  0.42224705  0.24166563  0.19576677  1
  Se  Se248  1  0.42579250  0.25424370  0.68129170  1
  Se  Se249  1  0.42012062  0.57537215  0.20338642  1
  Se  Se250  1  0.43443952  0.58732083  0.68104281  1
  Se  Se251  1  0.42369149  0.90682584  0.19594093  1
  Se  Se252  1  0.43170209  0.92081019  0.68181662  1
  Se  Se253  1  0.74467073  0.26144916  0.19585045  1
  Se  Se254  1  0.75489633  0.25702663  0.69338592  1
  Se  Se255  1  0.74328694  0.59316579  0.20258840  1
  Se  Se256  1  0.75418350  0.58227948  0.69298246  1
  Se  Se257  1  0.75782638  0.91255902  0.19194381  1
  Se  Se258  1  0.74807996  0.91705952  0.69207364  1
