# generated using pymatgen
data_In86Cu29Se144
_symmetry_space_group_name_H-M   'P 1'
_cell_length_a   17.58448029
_cell_length_b   17.58386460
_cell_length_c   23.43661090
_cell_angle_alpha   90.00664180
_cell_angle_beta   90.02444506
_cell_angle_gamma   89.97914057
_symmetry_Int_Tables_number   1
_chemical_formula_structural   In86Cu29Se144
_chemical_formula_sum   'In86 Cu29 Se144'
_cell_volume   7246.67203906
_cell_formula_units_Z   1
loop_
 _symmetry_equiv_pos_site_id
 _symmetry_equiv_pos_as_xyz
  1  'x, y, z'
loop_
 _atom_site_type_symbol
 _atom_site_label
 _atom_site_symmetry_multiplicity
 _atom_site_fract_x
 _atom_site_fract_y
 _atom_site_fract_z
 _atom_site_occupancy
  In  In0  1  -0.01133311  0.16975505  0.13595333  1
  In  In1  1  -0.00763193  0.15823220  0.61373794  1
  In  In2  1  0.02811978  0.48860096  0.14295123  1
  In  In3  1  0.01886066  0.49461930  0.62479727  1
  In  In4  1  0.00759303  0.82673762  0.13375426  1
  In  In5  1  -0.00046424  0.83630763  0.63112878  1
  In  In6  1  0.34128766  0.16955884  0.13317043  1
  In  In7  1  0.33002258  0.17817953  0.63604811  1
  In  In8  1  0.31878696  0.48311113  0.10872649  1
  In  In9  1  0.32361758  0.49377465  0.61848358  1
  In  In10  1  0.33086685  0.85088211  0.12157627  1
  In  In11  1  0.34607529  0.83680146  0.62198700  1
  In  In12  1  0.66836843  0.17189035  0.13342419  1
  In  In13  1  0.66664871  0.15307527  0.62286430  1
  In  In14  1  0.64056737  0.48751059  0.11897477  1
  In  In15  1  0.66031169  0.50489452  0.62279333  1
  In  In16  1  0.66784956  0.83187147  0.12273133  1
  In  In17  1  0.66601867  0.85210780  0.62479896  1
  In  In18  1  0.18161046  0.01264666  0.36825692  1
  In  In19  1  0.16353405  0.00177781  0.87400385  1
  In  In20  1  0.16562326  0.33277604  0.36960212  1
  In  In21  1  0.18935051  0.32695137  0.88545645  1
  In  In22  1  0.15157735  0.65999528  0.37364196  1
  In  In23  1  0.16753426  0.67402335  0.88680946  1
  In  In24  1  0.49657453  0.00048727  0.36777064  1
  In  In25  1  0.51205763  0.01775686  0.86189447  1
  In  In26  1  0.50096831  0.33599938  0.36749668  1
  In  In27  1  0.49040783  0.33163594  0.88593769  1
  In  In28  1  0.49317747  0.66704045  0.38073855  1
  In  In29  1  0.48676867  0.66704780  0.88329779  1
  In  In30  1  0.84465916  0.02926891  0.35057517  1
  In  In31  1  0.83780069  0.00283905  0.87440514  1
  In  In32  1  0.83068049  0.31531733  0.35923986  1
  In  In33  1  0.82138356  0.32947701  0.88268961  1
  In  In34  1  0.83900760  0.65582932  0.37226650  1
  In  In35  1  0.84465321  0.66010512  0.87343477  1
  In  In36  1  0.00401088  0.17023995  0.36732910  1
  In  In37  1  0.00071674  0.15348748  0.87988242  1
  In  In38  1  0.00972440  0.49808880  0.36296694  1
  In  In39  1  0.00342679  0.51166898  0.87695938  1
  In  In40  1  -0.00638899  0.83454981  0.37088356  1
  In  In41  1  0.01154824  0.84042871  0.87244787  1
  In  In42  1  0.33027398  0.15771924  0.36502183  1
  In  In43  1  0.34617790  0.17988678  0.85675114  1
  In  In44  1  0.33086377  0.49703323  0.37637138  1
  In  In45  1  0.34070184  0.48869359  0.89521038  1
  In  In46  1  0.33926377  0.84815097  0.37402681  1
  In  In47  1  0.32103004  0.84063501  0.87994542  1
  In  In48  1  0.66815409  0.18238658  0.35141352  1
  In  In49  1  0.67141864  0.15862750  0.88510127  1
  In  In50  1  0.66315052  0.48432059  0.37115413  1
  In  In51  1  0.65735589  0.48984009  0.88285051  1
  In  In52  1  0.65662023  0.83737378  0.37955866  1
  In  In53  1  0.65627909  0.84981811  0.87493446  1
  In  In54  1  0.17155974  -0.00518888  0.12749496  1
  In  In55  1  0.15796864  0.00819244  0.62569807  1
  In  In56  1  0.17140462  0.33628053  0.13001493  1
  In  In57  1  0.17300442  0.33940912  0.61779197  1
  In  In58  1  0.16012515  0.65623839  0.11025004  1
  In  In59  1  0.17328315  0.65445633  0.62574719  1
  In  In60  1  0.49093754  0.02223023  0.14501083  1
  In  In61  1  0.51199524  0.00395595  0.62857911  1
  In  In62  1  0.50004634  0.33182227  0.13527806  1
  In  In63  1  0.47992957  0.32432074  0.62486027  1
  In  In64  1  0.49511092  0.64308248  0.10916034  1
  In  In65  1  0.49094990  0.66214784  0.61761463  1
  In  In66  1  0.81946576  0.01477902  0.13967507  1
  In  In67  1  0.83055714  0.00715347  0.62663656  1
  In  In68  1  0.84095967  0.31829627  0.13709961  1
  In  In69  1  0.84664359  0.32751809  0.61705315  1
  In  In70  1  0.83851933  0.67087141  0.12546287  1
  In  In71  1  0.83656247  0.68068701  0.62738353  1
  In  In72  1  0.83526044  0.49302244  0.49045421  1
  In  In73  1  0.66215823  0.33145352  0.75315790  1
  In  In74  1  0.66688982  0.67703017  0.76011780  1
  In  In75  1  0.49970628  0.83630519  -0.00196566  1
  In  In76  1  0.16891846  0.83083280  0.49342447  1
  In  In77  1  0.50071971  0.16668348  0.49875879  1
  In  In78  1  0.17322348  0.16843741  0.00984033  1
  In  In79  1  0.32795434  0.67068553  0.75960384  1
  In  In80  1  0.82509272  0.84038188  0.50188070  1
  In  In81  1  0.67027779  0.66555135  0.24128108  1
  In  In82  1  0.83320948  0.49696755  0.00359113  1
  In  In83  1  0.00673620  0.33150581  0.75139969  1
  In  In84  1  0.31947033  0.66106327  0.24223492  1
  In  In85  1  0.83567156  0.83826401  0.01003165  1
  Cu  Cu86  1  0.49778619  0.49434862  0.25170261  1
  Cu  Cu87  1  0.83897762  0.49932946  0.24790728  1
  Cu  Cu88  1  0.83961915  0.50895401  0.75173176  1
  Cu  Cu89  1  0.65979804  0.01070960  0.00923131  1
  Cu  Cu90  1  0.32752100  0.33367550  0.49787454  1
  Cu  Cu91  1  0.49686473  0.83033895  0.24506213  1
  Cu  Cu92  1  0.00083421  0.65841226  0.50168156  1
  Cu  Cu93  1  0.00113850  0.01069774  0.49233719  1
  Cu  Cu94  1  0.16215830  0.83430901  0.75410034  1
  Cu  Cu95  1  0.66863933  0.00439385  0.49658359  1
  Cu  Cu96  1  0.00309414  0.32349990  0.49277924  1
  Cu  Cu97  1  -0.00359260  -0.00150704  0.00070339  1
  Cu  Cu98  1  0.17219105  0.49930149  0.75074359  1
  Cu  Cu99  1  0.33736679  0.00390292  0.49488690  1
  Cu  Cu100  1  0.16506334  0.83714976  0.25322495  1
  Cu  Cu101  1  0.66178764  0.32153034  0.00659337  1
  Cu  Cu102  1  0.50475231  0.84261998  0.74546911  1
  Cu  Cu103  1  0.33235003  0.65990642  0.49883533  1
  Cu  Cu104  1  0.00310403  0.66763027  0.00560848  1
  Cu  Cu105  1  0.16670504  0.16739184  0.24748994  1
  Cu  Cu106  1  0.83284299  0.16309580  0.75044680  1
  Cu  Cu107  1  0.84568248  0.83930198  0.74980409  1
  Cu  Cu108  1  0.48888799  0.49579710  0.75579862  1
  Cu  Cu109  1  0.16351786  0.16277947  0.74950969  1
  Cu  Cu110  1  0.66517087  0.32971040  0.48858096  1
  Cu  Cu111  1  0.00253603  0.33293428  0.01248289  1
  Cu  Cu112  1  0.65027801  0.66331115  0.49915795  1
  Cu  Cu113  1  0.83572204  0.83106721  0.24938188  1
  Cu  Cu114  1  0.33554313  0.00993544  0.00258658  1
  Se  Se115  1  0.07474548  0.08026073  0.06302391  1
  Se  Se116  1  0.08888877  0.08737240  0.54748764  1
  Se  Se117  1  0.08949960  0.41741336  0.05769519  1
  Se  Se118  1  0.08110585  0.41125295  0.54772908  1
  Se  Se119  1  0.08407215  0.75973690  0.05298915  1
  Se  Se120  1  0.07911698  0.74428265  0.55896393  1
  Se  Se121  1  0.41926296  0.08592399  0.06044046  1
  Se  Se122  1  0.41123934  0.08174107  0.56220066  1
  Se  Se123  1  0.44414039  0.43423051  0.06593455  1
  Se  Se124  1  0.41368760  0.41401484  0.55283916  1
  Se  Se125  1  0.41070328  0.74978046  0.06024745  1
  Se  Se126  1  0.41322334  0.74890242  0.54895679  1
  Se  Se127  1  0.74994743  0.08930044  0.05980981  1
  Se  Se128  1  0.75479634  0.08479425  0.55043406  1
  Se  Se129  1  0.74712000  0.40392857  0.06378825  1
  Se  Se130  1  0.74264738  0.40827901  0.55544141  1
  Se  Se131  1  0.74158341  0.73683666  0.05329238  1
  Se  Se132  1  0.73353515  0.74267169  0.55805141  1
  Se  Se133  1  0.26754862  0.26154374  0.06049384  1
  Se  Se134  1  0.25319543  0.24611264  0.55556200  1
  Se  Se135  1  0.26364463  0.59353192  0.04943242  1
  Se  Se136  1  0.24390922  0.57860201  0.54831906  1
  Se  Se137  1  0.24766664  0.92372735  0.04752232  1
  Se  Se138  1  0.25476595  0.92241185  0.55529371  1
  Se  Se139  1  0.57773030  0.24445259  0.06373850  1
  Se  Se140  1  0.59078179  0.25851152  0.56025922  1
  Se  Se141  1  0.60206861  0.58978476  0.04662601  1
  Se  Se142  1  0.57325704  0.57468121  0.55180091  1
  Se  Se143  1  0.57954638  0.92692844  0.06550453  1
  Se  Se144  1  0.58363560  0.92311556  0.55056107  1
  Se  Se145  1  0.91639115  0.24712884  0.05748581  1
  Se  Se146  1  0.91364623  0.24378565  0.54295716  1
  Se  Se147  1  0.92772724  0.58086574  0.06386493  1
  Se  Se148  1  0.91585686  0.58263615  0.56155080  1
  Se  Se149  1  0.92123748  0.92742474  0.07103104  1
  Se  Se150  1  0.92748733  0.92569948  0.55476238  1
  Se  Se151  1  0.08964068  0.24351617  0.44022620  1
  Se  Se152  1  0.07809888  0.25376501  0.94497700  1
  Se  Se153  1  0.07767681  0.57430960  0.44532267  1
  Se  Se154  1  0.08476405  0.58333250  0.95116981  1
  Se  Se155  1  0.08014216  0.92506516  0.43616203  1
  Se  Se156  1  0.08446719  0.92096477  0.94768339  1
  Se  Se157  1  0.40926308  0.25401470  0.43834111  1
  Se  Se158  1  0.40299397  0.24369018  0.94529547  1
  Se  Se159  1  0.41644962  0.57647833  0.44606979  1
  Se  Se160  1  0.42594182  0.57815727  0.95522520  1
  Se  Se161  1  0.42397947  0.92028452  0.44640396  1
  Se  Se162  1  0.41500741  0.93126228  0.93866101  1
  Se  Se163  1  0.74410001  0.24597991  0.43416793  1
  Se  Se164  1  0.75157674  0.24423225  0.95443089  1
  Se  Se165  1  0.73666323  0.58884764  0.43985840  1
  Se  Se166  1  0.74714418  0.58789177  0.93925288  1
  Se  Se167  1  0.75231646  0.93125865  0.43289204  1
  Se  Se168  1  0.74062770  0.92701330  0.95023396  1
  Se  Se169  1  0.25338912  0.08926534  0.44589293  1
  Se  Se170  1  0.25522870  0.08701095  0.93906354  1
  Se  Se171  1  0.24431799  0.41547476  0.44330223  1
  Se  Se172  1  0.23779543  0.42407668  0.95763870  1
  Se  Se173  1  0.25888072  0.74041817  0.43306709  1
  Se  Se174  1  0.26721957  0.74259867  0.94933565  1
  Se  Se175  1  0.59063469  0.08484589  0.43425280  1
  Se  Se176  1  0.57463735  0.08472601  0.94925784  1
  Se  Se177  1  0.57712497  0.41475758  0.44383952  1
  Se  Se178  1  0.58148958  0.40880426  0.95336363  1
  Se  Se179  1  0.57474185  0.75389915  0.44706453  1
  Se  Se180  1  0.59426405  0.74557885  0.93955224  1
  Se  Se181  1  0.91555089  0.08839287  0.43693378  1
  Se  Se182  1  0.91149912  0.08296582  0.95054164  1
  Se  Se183  1  0.92084156  0.40182097  0.43054966  1
  Se  Se184  1  0.92665383  0.40783355  0.94243166  1
  Se  Se185  1  0.91807995  0.74244460  0.44690534  1
  Se  Se186  1  0.92331043  0.74851997  0.94502769  1
  Se  Se187  1  0.25126845  0.24973479  0.30133503  1
  Se  Se188  1  0.24307604  0.25390470  0.79844043  1
  Se  Se189  1  0.23491370  0.57226589  0.30584690  1
  Se  Se190  1  0.24734154  0.57415805  0.81826613  1
  Se  Se191  1  0.25490198  0.91854657  0.30135246  1
  Se  Se192  1  0.24680848  0.91820418  0.80442292  1
  Se  Se193  1  0.55546528  0.23913597  0.29382193  1
  Se  Se194  1  0.58022841  0.24510120  0.81783649  1
  Se  Se195  1  0.57809769  0.58247204  0.30751682  1
  Se  Se196  1  0.57389592  0.57724543  0.81060077  1
  Se  Se197  1  0.57878034  0.90863630  0.30282425  1
  Se  Se198  1  0.59111362  0.92627096  0.79546649  1
  Se  Se199  1  0.91139170  0.23181790  0.29276560  1
  Se  Se200  1  0.90933101  0.24671799  0.81134929  1
  Se  Se201  1  0.92111622  0.58464020  0.29977582  1
  Se  Se202  1  0.92857669  0.58904264  0.80004590  1
  Se  Se203  1  0.91676396  0.91813693  0.30033989  1
  Se  Se204  1  0.92429285  0.92282757  0.80702850  1
  Se  Se205  1  0.08671575  0.08091412  0.30127445  1
  Se  Se206  1  0.07897470  0.08279020  0.80358821  1
  Se  Se207  1  0.07448732  0.40104265  0.29785348  1
  Se  Se208  1  0.09352735  0.41926008  0.81440860  1
  Se  Se209  1  0.08202036  0.75345813  0.30617434  1
  Se  Se210  1  0.08775019  0.74504345  0.80883358  1
  Se  Se211  1  0.41860065  0.08193128  0.29798359  1
  Se  Se212  1  0.39742248  0.06360174  0.80343224  1
  Se  Se213  1  0.40918772  0.41683301  0.30390176  1
  Se  Se214  1  0.41110375  0.41540934  0.81394589  1
  Se  Se215  1  0.41529954  0.74933143  0.30384101  1
  Se  Se216  1  0.42612296  0.76571801  0.80936479  1
  Se  Se217  1  0.72084797  0.06482005  0.29663788  1
  Se  Se218  1  0.75021094  0.08458517  0.80813834  1
  Se  Se219  1  0.75398274  0.41789006  0.30156104  1
  Se  Se220  1  0.75768029  0.42783628  0.80870964  1
  Se  Se221  1  0.75340178  0.75278006  0.31143755  1
  Se  Se222  1  0.76376707  0.76709924  0.81586235  1
  Se  Se223  1  0.25034695  0.08442823  0.19367912  1
  Se  Se224  1  0.24797119  0.08185415  0.69471247  1
  Se  Se225  1  0.25522008  0.42197434  0.19512688  1
  Se  Se226  1  0.25059256  0.41465768  0.69471032  1
  Se  Se227  1  0.23978456  0.76189339  0.18540613  1
  Se  Se228  1  0.24487983  0.75939767  0.68997907  1
  Se  Se229  1  0.61060874  0.06479856  0.20035036  1
  Se  Se230  1  0.58346505  0.09254735  0.69886615  1
  Se  Se231  1  0.58897474  0.41286045  0.20477931  1
  Se  Se232  1  0.57265037  0.42337899  0.69262879  1
  Se  Se233  1  0.56880899  0.74635406  0.18313219  1
  Se  Se234  1  0.57772355  0.75236129  0.68791936  1
  Se  Se235  1  0.91754990  0.08001152  0.20571005  1
  Se  Se236  1  0.91926666  0.08611079  0.69397405  1
  Se  Se237  1  0.92279729  0.41413255  0.19695151  1
  Se  Se238  1  0.91241958  0.42329518  0.69123961  1
  Se  Se239  1  0.91834733  0.74501913  0.19935882  1
  Se  Se240  1  0.92310865  0.74789552  0.70008972  1
  Se  Se241  1  0.08504556  0.25148202  0.19420387  1
  Se  Se242  1  0.08642189  0.24268453  0.68455899  1
  Se  Se243  1  0.08557493  0.60252386  0.19565520  1
  Se  Se244  1  0.08731350  0.58194732  0.69825942  1
  Se  Se245  1  0.08299883  0.92119494  0.19830449  1
  Se  Se246  1  0.08421297  0.91911444  0.69620629  1
  Se  Se247  1  0.43320121  0.23708105  0.20618402  1
  Se  Se248  1  0.42226592  0.24684762  0.70527795  1
  Se  Se249  1  0.42092912  0.57511846  0.19141791  1
  Se  Se250  1  0.41389324  0.57981553  0.69446362  1
  Se  Se251  1  0.41216908  0.91836666  0.19835265  1
  Se  Se252  1  0.41869019  0.92247926  0.69228997  1
  Se  Se253  1  0.74939287  0.25050292  0.20585134  1
  Se  Se254  1  0.75901130  0.24941748  0.69023286  1
  Se  Se255  1  0.75449043  0.56905131  0.18328915  1
  Se  Se256  1  0.75252626  0.58367828  0.69370935  1
  Se  Se257  1  0.74811703  0.90694341  0.19536440  1
  Se  Se258  1  0.75692231  0.91694514  0.69614903  1
