# generated using pymatgen
data_In86Cu29Se144
_symmetry_space_group_name_H-M   'P 1'
_cell_length_a   17.58071133
_cell_length_b   17.57727297
_cell_length_c   23.44018164
_cell_angle_alpha   89.98374571
_cell_angle_beta   90.02862061
_cell_angle_gamma   90.00185160
_symmetry_Int_Tables_number   1
_chemical_formula_structural   In86Cu29Se144
_chemical_formula_sum   'In86 Cu29 Se144'
_cell_volume   7243.50628194
_cell_formula_units_Z   1
loop_
 _symmetry_equiv_pos_site_id
 _symmetry_equiv_pos_as_xyz
  1  'x, y, z'
loop_
 _atom_site_type_symbol
 _atom_site_label
 _atom_site_symmetry_multiplicity
 _atom_site_fract_x
 _atom_site_fract_y
 _atom_site_fract_z
 _atom_site_occupancy
  In  In0  1  -0.00729257  0.16722364  0.13629354  1
  In  In1  1  0.00824064  0.16019027  0.62888703  1
  In  In2  1  -0.00325718  0.48843081  0.12541605  1
  In  In3  1  -0.00821661  0.50961995  0.62662247  1
  In  In4  1  0.00965258  0.83504615  0.12723457  1
  In  In5  1  0.00098266  0.83406582  0.62247594  1
  In  In6  1  0.31501248  0.15867172  0.13007332  1
  In  In7  1  0.33119285  0.16634636  0.61446002  1
  In  In8  1  0.33321881  0.52120050  0.12706472  1
  In  In9  1  0.34755236  0.50609988  0.62332013  1
  In  In10  1  0.33190831  0.83015536  0.13121607  1
  In  In11  1  0.32914603  0.82772813  0.62159864  1
  In  In12  1  0.67437419  0.16005281  0.11912717  1
  In  In13  1  0.66143294  0.17180526  0.62762193  1
  In  In14  1  0.68706091  0.50681198  0.12975285  1
  In  In15  1  0.66266790  0.49338368  0.62036326  1
  In  In16  1  0.65179299  0.83479361  0.12441248  1
  In  In17  1  0.67039214  0.83925188  0.62103707  1
  In  In18  1  0.16887244  -0.00557623  0.37721377  1
  In  In19  1  0.14618779  -0.00401938  0.87726302  1
  In  In20  1  0.14747220  0.33279448  0.37221740  1
  In  In21  1  0.16689264  0.35217712  0.87624472  1
  In  In22  1  0.18389906  0.67250219  0.36939227  1
  In  In23  1  0.16799921  0.67180888  0.87337693  1
  In  In24  1  0.49306452  0.00055474  0.38295409  1
  In  In25  1  0.50117071  -0.02072052  0.87124967  1
  In  In26  1  0.50757319  0.32813781  0.38609076  1
  In  In27  1  0.51080550  0.32403489  0.86951792  1
  In  In28  1  0.49931123  0.67121211  0.38072091  1
  In  In29  1  0.49700963  0.68701136  0.87043790  1
  In  In30  1  0.83765090  -0.01578641  0.36406457  1
  In  In31  1  0.84665874  0.01163708  0.86967058  1
  In  In32  1  0.84845756  0.33584094  0.37329980  1
  In  In33  1  0.82468029  0.31810414  0.86717653  1
  In  In34  1  0.82338648  0.67671762  0.37880622  1
  In  In35  1  0.83865184  0.65308438  0.87446390  1
  In  In36  1  0.00127141  0.17553459  0.36995978  1
  In  In37  1  -0.01539348  0.15365109  0.86732800  1
  In  In38  1  -0.00329932  0.48942672  0.37297935  1
  In  In39  1  0.00682672  0.50901097  0.86758135  1
  In  In40  1  -0.00405004  0.84054176  0.37491248  1
  In  In41  1  0.01361483  0.84724470  0.87165741  1
  In  In42  1  0.34055266  0.14934726  0.38219109  1
  In  In43  1  0.33601255  0.16471848  0.87459276  1
  In  In44  1  0.33858568  0.51338848  0.37431449  1
  In  In45  1  0.31715524  0.50515222  0.87550803  1
  In  In46  1  0.33019603  0.83734475  0.37815288  1
  In  In47  1  0.34010482  0.82586041  0.87944970  1
  In  In48  1  0.66393496  0.15423497  0.37763210  1
  In  In49  1  0.68555655  0.17531899  0.86644432  1
  In  In50  1  0.65853404  0.50896271  0.38519686  1
  In  In51  1  0.67823185  0.49067868  0.87214718  1
  In  In52  1  0.67767459  0.82061235  0.38419856  1
  In  In53  1  0.65094612  0.83272758  0.87410489  1
  In  In54  1  0.16719545  -0.01767610  0.14323321  1
  In  In55  1  0.16035378  -0.00784581  0.61908437  1
  In  In56  1  0.14749896  0.32570072  0.12116349  1
  In  In57  1  0.16936988  0.32213472  0.62301835  1
  In  In58  1  0.17521886  0.68142864  0.12150540  1
  In  In59  1  0.15759314  0.67905659  0.62915335  1
  In  In60  1  0.50375780  -0.01913266  0.12562722  1
  In  In61  1  0.50445197  0.00356219  0.61951647  1
  In  In62  1  0.50226645  0.32306121  0.12713535  1
  In  In63  1  0.50547374  0.34294013  0.61870164  1
  In  In64  1  0.48570319  0.67784678  0.13673124  1
  In  In65  1  0.49772273  0.66503989  0.62373566  1
  In  In66  1  0.83877762  0.01083534  0.12457931  1
  In  In67  1  0.84247211  -0.00873453  0.62866778  1
  In  In68  1  0.84444820  0.33404057  0.12537183  1
  In  In69  1  0.82739944  0.34085643  0.62816255  1
  In  In70  1  0.82744859  0.64671214  0.13592348  1
  In  In71  1  0.84178659  0.67725512  0.61663105  1
  In  In72  1  0.67288786  0.66607744  0.74973931  1
  In  In73  1  0.83241677  0.16430611  0.49752067  1
  In  In74  1  0.15666743  0.16104768  -0.00003895  1
  In  In75  1  0.67272033  0.33815977  0.24601432  1
  In  In76  1  0.66988897  -0.00675846  0.25129793  1
  In  In77  1  0.83470350  0.83255631  0.00246461  1
  In  In78  1  0.33462369  0.33784423  0.74951826  1
  In  In79  1  0.50197887  0.50461005  -0.00521604  1
  In  In80  1  0.16734511  0.50197413  0.49301458  1
  In  In81  1  0.50385793  0.15868928  -0.00101757  1
  In  In82  1  0.83672727  0.49338014  0.00283286  1
  In  In83  1  0.33063752  -0.00360512  0.74505677  1
  In  In84  1  0.32248180  0.33908098  0.25543580  1
  In  In85  1  -0.00105923  0.67094895  0.25409842  1
  Cu  Cu86  1  0.50850194  0.16436423  0.74407893  1
  Cu  Cu87  1  0.83500927  0.16435107  0.74354138  1
  Cu  Cu88  1  0.66842077  0.33707437  0.50433189  1
  Cu  Cu89  1  0.33287538  0.32864133  0.49729853  1
  Cu  Cu90  1  -0.00060724  0.33240929  0.49844887  1
  Cu  Cu91  1  0.66420094  -0.00341836  0.49766427  1
  Cu  Cu92  1  -0.00015543  0.67152528  0.49759945  1
  Cu  Cu93  1  0.16416266  0.50725625  0.74904186  1
  Cu  Cu94  1  0.83910049  0.49551524  0.74818348  1
  Cu  Cu95  1  0.50479984  0.50813407  0.25562301  1
  Cu  Cu96  1  0.16140384  0.50033302  0.24941004  1
  Cu  Cu97  1  0.66498484  0.66672171  0.50448223  1
  Cu  Cu98  1  0.83843257  0.83179121  0.74572315  1
  Cu  Cu99  1  0.65598692  0.66851965  0.00526541  1
  Cu  Cu100  1  0.00124461  -0.00313370  0.50004722  1
  Cu  Cu101  1  0.33698314  0.66835909  0.49855318  1
  Cu  Cu102  1  0.32874850  -0.00892754  0.00573250  1
  Cu  Cu103  1  -0.00199263  0.33152150  -0.00254357  1
  Cu  Cu104  1  0.33319001  0.34497751  0.00054304  1
  Cu  Cu105  1  0.33010912  -0.00573214  0.50093271  1
  Cu  Cu106  1  0.16381594  0.83300592  0.74781171  1
  Cu  Cu107  1  0.49665899  0.16029501  0.25417459  1
  Cu  Cu108  1  0.66994505  -0.00034153  -0.00308405  1
  Cu  Cu109  1  0.15634964  0.16956452  0.74948204  1
  Cu  Cu110  1  0.49691998  0.82954696  0.25598510  1
  Cu  Cu111  1  0.16168551  0.15994857  0.25329674  1
  Cu  Cu112  1  0.01071798  0.66839311  -0.00326860  1
  Cu  Cu113  1  0.50441888  0.50171001  0.74529796  1
  Cu  Cu114  1  0.32733248  0.67672148  0.00326370  1
  Se  Se115  1  0.08460779  0.07786226  0.07323710  1
  Se  Se116  1  0.08283869  0.08349870  0.55232521  1
  Se  Se117  1  0.07994279  0.41711226  0.05001300  1
  Se  Se118  1  0.08116685  0.41434618  0.55797162  1
  Se  Se119  1  0.08539799  0.75576192  0.05250464  1
  Se  Se120  1  0.08447316  0.75296151  0.55098006  1
  Se  Se121  1  0.40786560  0.07697832  0.06273804  1
  Se  Se122  1  0.41539005  0.08058767  0.55123158  1
  Se  Se123  1  0.41519550  0.41626022  0.06373675  1
  Se  Se124  1  0.41224859  0.41525060  0.55108173  1
  Se  Se125  1  0.41671233  0.75337511  0.05716900  1
  Se  Se126  1  0.41910545  0.75058207  0.55413067  1
  Se  Se127  1  0.75469599  0.08111564  0.04838200  1
  Se  Se128  1  0.74523491  0.07580567  0.56009724  1
  Se  Se129  1  0.74040820  0.40494947  0.05760109  1
  Se  Se130  1  0.75584028  0.42102666  0.55187465  1
  Se  Se131  1  0.74627517  0.73927078  0.06335481  1
  Se  Se132  1  0.75057544  0.75447357  0.55192843  1
  Se  Se133  1  0.25464278  0.25587547  0.05544560  1
  Se  Se134  1  0.24515682  0.24742787  0.54704950  1
  Se  Se135  1  0.24704403  0.58657014  0.05271118  1
  Se  Se136  1  0.25206712  0.58946660  0.55877280  1
  Se  Se137  1  0.24655624  0.91440903  0.06376361  1
  Se  Se138  1  0.24628395  0.91058939  0.55336855  1
  Se  Se139  1  0.59246325  0.25618444  0.05369435  1
  Se  Se140  1  0.58366699  0.25069984  0.55364884  1
  Se  Se141  1  0.58273453  0.58631631  0.06777005  1
  Se  Se142  1  0.58085371  0.58170000  0.55591150  1
  Se  Se143  1  0.58339453  0.91577668  0.04649667  1
  Se  Se144  1  0.58117095  0.91389148  0.55128058  1
  Se  Se145  1  0.92329531  0.24874192  0.05693140  1
  Se  Se146  1  0.92020677  0.25251968  0.56054479  1
  Se  Se147  1  0.92495089  0.59294138  0.05663275  1
  Se  Se148  1  0.91791905  0.58524937  0.54919964  1
  Se  Se149  1  0.92571438  0.92329649  0.05784197  1
  Se  Se150  1  0.91553792  0.91420434  0.55192587  1
  Se  Se151  1  0.08194952  0.24711481  0.44774546  1
  Se  Se152  1  0.07822567  0.25438731  0.93397677  1
  Se  Se153  1  0.07820891  0.59344865  0.43323927  1
  Se  Se154  1  0.08844976  0.58186656  0.94212046  1
  Se  Se155  1  0.08424608  0.91269323  0.44698827  1
  Se  Se156  1  0.08211286  0.91567044  0.95431362  1
  Se  Se157  1  0.41788585  0.24369700  0.44658633  1
  Se  Se158  1  0.41084748  0.26011884  0.94364887  1
  Se  Se159  1  0.42061422  0.58087022  0.45011571  1
  Se  Se160  1  0.40695353  0.59590053  0.94070054  1
  Se  Se161  1  0.41733484  0.91140287  0.45084213  1
  Se  Se162  1  0.41583480  0.91645754  0.94817446  1
  Se  Se163  1  0.74312852  0.25803557  0.43847907  1
  Se  Se164  1  0.75298201  0.24787549  0.94666225  1
  Se  Se165  1  0.75098940  0.58723657  0.44980960  1
  Se  Se166  1  0.73946550  0.58880002  0.94722436  1
  Se  Se167  1  0.75359587  0.92217845  0.44274667  1
  Se  Se168  1  0.74812273  0.91784578  0.93572059  1
  Se  Se169  1  0.24624936  0.08047137  0.44983043  1
  Se  Se170  1  0.25647962  0.07419690  0.94168457  1
  Se  Se171  1  0.25652083  0.40840271  0.43317638  1
  Se  Se172  1  0.24546310  0.42596476  0.95194029  1
  Se  Se173  1  0.24960332  0.75052645  0.44874873  1
  Se  Se174  1  0.24443669  0.75664115  0.94611483  1
  Se  Se175  1  0.57961421  0.08463335  0.45012585  1
  Se  Se176  1  0.58995694  0.07654105  0.93237822  1
  Se  Se177  1  0.58081225  0.41951353  0.45275427  1
  Se  Se178  1  0.59264526  0.40705840  0.94288687  1
  Se  Se179  1  0.58233701  0.75197517  0.45134514  1
  Se  Se180  1  0.57766018  0.75162652  0.94939442  1
  Se  Se181  1  0.92042739  0.07456236  0.43703446  1
  Se  Se182  1  0.92058281  0.08164701  0.94891749  1
  Se  Se183  1  0.91591097  0.41925082  0.45018252  1
  Se  Se184  1  0.92121575  0.41150107  0.93340121  1
  Se  Se185  1  0.91616753  0.75497980  0.44383781  1
  Se  Se186  1  0.92261490  0.74336014  0.93871551  1
  Se  Se187  1  0.24371676  0.23998483  0.31482231  1
  Se  Se188  1  0.24223957  0.24487761  0.80931870  1
  Se  Se189  1  0.25080821  0.57835758  0.29979317  1
  Se  Se190  1  0.25008045  0.58904015  0.80100653  1
  Se  Se191  1  0.26144392  0.92731025  0.30691650  1
  Se  Se192  1  0.24169202  0.91386989  0.81108814  1
  Se  Se193  1  0.58039300  0.24389604  0.30634079  1
  Se  Se194  1  0.59103756  0.24873520  0.79773881  1
  Se  Se195  1  0.58518589  0.59058369  0.31046009  1
  Se  Se196  1  0.57989247  0.57814832  0.81305891  1
  Se  Se197  1  0.57947738  0.90992766  0.31526566  1
  Se  Se198  1  0.58575153  0.91355022  0.79736520  1
  Se  Se199  1  0.91535546  0.25155842  0.30049645  1
  Se  Se200  1  0.91792478  0.24894410  0.79822135  1
  Se  Se201  1  0.90898943  0.58105584  0.31258003  1
  Se  Se202  1  0.91879190  0.58552602  0.79766014  1
  Se  Se203  1  0.93020147  0.91828363  0.29351127  1
  Se  Se204  1  0.91849526  0.91562495  0.80357427  1
  Se  Se205  1  0.08166349  0.07965217  0.31080074  1
  Se  Se206  1  0.07973714  0.07968221  0.80116980  1
  Se  Se207  1  0.07629641  0.41498912  0.29718336  1
  Se  Se208  1  0.08427775  0.41810031  0.79974378  1
  Se  Se209  1  0.09440080  0.76011439  0.30788530  1
  Se  Se210  1  0.08075453  0.75054101  0.80403801  1
  Se  Se211  1  0.41583412  0.07457276  0.30488825  1
  Se  Se212  1  0.42533169  0.08869049  0.80510053  1
  Se  Se213  1  0.42873878  0.41755843  0.31112968  1
  Se  Se214  1  0.42472533  0.42658668  0.81257919  1
  Se  Se215  1  0.41278470  0.74853659  0.31099045  1
  Se  Se216  1  0.41270233  0.75725496  0.79906884  1
  Se  Se217  1  0.75882879  0.09126328  0.30608440  1
  Se  Se218  1  0.75341127  0.07959073  0.79905572  1
  Se  Se219  1  0.74942416  0.42339630  0.31655694  1
  Se  Se220  1  0.75204755  0.41244515  0.79813095  1
  Se  Se221  1  0.75638578  0.76110324  0.30309013  1
  Se  Se222  1  0.76107642  0.75626566  0.81261157  1
  Se  Se223  1  0.24946696  0.07638776  0.20524345  1
  Se  Se224  1  0.24144709  0.09305060  0.68977080  1
  Se  Se225  1  0.23982132  0.42088708  0.18450943  1
  Se  Se226  1  0.24429859  0.42721762  0.68731994  1
  Se  Se227  1  0.25423853  0.74350316  0.20004075  1
  Se  Se228  1  0.25070384  0.75093481  0.69711329  1
  Se  Se229  1  0.57785256  0.08686756  0.18993422  1
  Se  Se230  1  0.58863199  0.07646476  0.69350143  1
  Se  Se231  1  0.57441504  0.42685860  0.18921215  1
  Se  Se232  1  0.58538595  0.41432947  0.69572893  1
  Se  Se233  1  0.58315215  0.75161712  0.20013114  1
  Se  Se234  1  0.58301815  0.75384819  0.69105131  1
  Se  Se235  1  0.91394450  0.07922935  0.20284465  1
  Se  Se236  1  0.92143498  0.07959263  0.69524689  1
  Se  Se237  1  0.89517328  0.43683272  0.19360497  1
  Se  Se238  1  0.92303450  0.41345286  0.69397598  1
  Se  Se239  1  0.90867501  0.75254330  0.18718073  1
  Se  Se240  1  0.92119808  0.74822061  0.69338179  1
  Se  Se241  1  0.08304289  0.24977057  0.20142868  1
  Se  Se242  1  0.07961212  0.25727012  0.69570815  1
  Se  Se243  1  0.08536512  0.58234206  0.18673121  1
  Se  Se244  1  0.07960492  0.58804704  0.69422879  1
  Se  Se245  1  0.06414764  0.91952948  0.20839523  1
  Se  Se246  1  0.08160954  0.91766666  0.69438850  1
  Se  Se247  1  0.41427995  0.24257952  0.19640772  1
  Se  Se248  1  0.42052816  0.24463797  0.68883918  1
  Se  Se249  1  0.41314672  0.58613735  0.20555224  1
  Se  Se250  1  0.41790131  0.58690760  0.69907318  1
  Se  Se251  1  0.41834517  0.91479054  0.19930103  1
  Se  Se252  1  0.42334012  0.91064383  0.68770475  1
  Se  Se253  1  0.75811445  0.23994191  0.19113524  1
  Se  Se254  1  0.75014356  0.25048942  0.69413515  1
  Se  Se255  1  0.73733243  0.58953964  0.21105032  1
  Se  Se256  1  0.75931786  0.57753790  0.68657659  1
  Se  Se257  1  0.75510322  0.90911652  0.18480441  1
  Se  Se258  1  0.75187353  0.91406124  0.69544220  1
