# generated using pymatgen
data_In86Cu29Se144
_symmetry_space_group_name_H-M   'P 1'
_cell_length_a   17.57748346
_cell_length_b   17.57619553
_cell_length_c   23.43841953
_cell_angle_alpha   90.01719170
_cell_angle_beta   90.01221668
_cell_angle_gamma   89.97637290
_symmetry_Int_Tables_number   1
_chemical_formula_structural   In86Cu29Se144
_chemical_formula_sum   'In86 Cu29 Se144'
_cell_volume   7241.18812521
_cell_formula_units_Z   1
loop_
 _symmetry_equiv_pos_site_id
 _symmetry_equiv_pos_as_xyz
  1  'x, y, z'
loop_
 _atom_site_type_symbol
 _atom_site_label
 _atom_site_symmetry_multiplicity
 _atom_site_fract_x
 _atom_site_fract_y
 _atom_site_fract_z
 _atom_site_occupancy
  In  In0  1  0.00357557  0.16281663  0.14166989  1
  In  In1  1  0.01421416  0.17101664  0.61675172  1
  In  In2  1  0.00777354  0.48904346  0.13625946  1
  In  In3  1  0.00317147  0.49820933  0.62483414  1
  In  In4  1  0.00472395  0.83047188  0.13307781  1
  In  In5  1  -0.01767254  0.83571788  0.62219089  1
  In  In6  1  0.33874634  0.15267313  0.12926382  1
  In  In7  1  0.33501379  0.17922334  0.62658826  1
  In  In8  1  0.33911132  0.51469560  0.11952063  1
  In  In9  1  0.31976079  0.49398693  0.61589588  1
  In  In10  1  0.33356805  0.83679094  0.12769204  1
  In  In11  1  0.33635004  0.81661725  0.62127430  1
  In  In12  1  0.65207344  0.16137160  0.11604214  1
  In  In13  1  0.65813310  0.15411274  0.62870363  1
  In  In14  1  0.65927920  0.50943817  0.12226946  1
  In  In15  1  0.67844175  0.51407146  0.61626768  1
  In  In16  1  0.65941162  0.83980555  0.12104337  1
  In  In17  1  0.66704438  0.83266953  0.62567547  1
  In  In18  1  0.17220031  0.00795260  0.37127877  1
  In  In19  1  0.15704229  -0.01582680  0.88661761  1
  In  In20  1  0.13956283  0.35293122  0.39564995  1
  In  In21  1  0.17825324  0.34081865  0.86745772  1
  In  In22  1  0.16158974  0.65761461  0.36623324  1
  In  In23  1  0.16026603  0.66643809  0.88248221  1
  In  In24  1  0.49436272  -0.01692030  0.35812203  1
  In  In25  1  0.52227867  -0.02125147  0.89653220  1
  In  In26  1  0.50784641  0.33944041  0.37657304  1
  In  In27  1  0.49037299  0.34324911  0.88014091  1
  In  In28  1  0.49362972  0.67422024  0.37538608  1
  In  In29  1  0.50816129  0.66719137  0.88530466  1
  In  In30  1  0.81938019  -0.00908538  0.36144811  1
  In  In31  1  0.83339021  0.00969344  0.87675665  1
  In  In32  1  0.85353012  0.34670089  0.36927506  1
  In  In33  1  0.84388536  0.32284071  0.86746704  1
  In  In34  1  0.84818203  0.65551845  0.38234922  1
  In  In35  1  0.82912214  0.66365716  0.86716079  1
  In  In36  1  0.00103972  0.17781710  0.36391260  1
  In  In37  1  -0.00527328  0.16861504  0.87354072  1
  In  In38  1  -0.00167601  0.50704564  0.37439522  1
  In  In39  1  0.00717431  0.50664423  0.86843669  1
  In  In40  1  -0.00997674  0.81983940  0.37044165  1
  In  In41  1  0.00907466  0.82851185  0.88369638  1
  In  In42  1  0.32947583  0.15251025  0.37126167  1
  In  In43  1  0.33404965  0.17932528  0.87447778  1
  In  In44  1  0.32446752  0.50819694  0.37770368  1
  In  In45  1  0.34064880  0.49445695  0.87744793  1
  In  In46  1  0.34780071  0.83680439  0.36175668  1
  In  In47  1  0.33376388  0.82647654  0.88444761  1
  In  In48  1  0.67791528  0.14859731  0.37190885  1
  In  In49  1  0.66893706  0.15205432  0.87417424  1
  In  In50  1  0.66719585  0.50166660  0.38676720  1
  In  In51  1  0.65415335  0.50606602  0.87285929  1
  In  In52  1  0.66104507  0.83778247  0.37751933  1
  In  In53  1  0.66220923  0.82557113  0.87207693  1
  In  In54  1  0.17525565  -0.00416119  0.13456917  1
  In  In55  1  0.15232345  -0.00101857  0.61861411  1
  In  In56  1  0.15377469  0.33388046  0.12872763  1
  In  In57  1  0.16678678  0.33623267  0.62355454  1
  In  In58  1  0.16648337  0.67038325  0.12590606  1
  In  In59  1  0.16693585  0.65005147  0.62488858  1
  In  In60  1  0.49761766  -0.00966255  0.12051650  1
  In  In61  1  0.51480087  0.00044121  0.62767826  1
  In  In62  1  0.50137802  0.34075678  0.11474849  1
  In  In63  1  0.48545844  0.33527902  0.62877311  1
  In  In64  1  0.49820788  0.66517072  0.11930192  1
  In  In65  1  0.50780006  0.67810388  0.61707866  1
  In  In66  1  0.83124035  0.00434038  0.13812474  1
  In  In67  1  0.82665838  -0.01182759  0.61953801  1
  In  In68  1  0.84688550  0.33633788  0.13333334  1
  In  In69  1  0.83752015  0.34903214  0.61974693  1
  In  In70  1  0.83354547  0.67311898  0.12930303  1
  In  In71  1  0.83344778  0.66818256  0.62680949  1
  In  In72  1  0.82819426  0.83467787  0.01103727  1
  In  In73  1  0.49819974  0.16820624  0.50213137  1
  In  In74  1  -0.00478545  0.00097503  0.75349194  1
  In  In75  1  0.83783769  0.17559956  0.48900350  1
  In  In76  1  0.67788405  0.32405444  0.25782144  1
  In  In77  1  0.83281487  0.16263769  0.00487907  1
  In  In78  1  0.33974884  0.00688134  0.75610541  1
  In  In79  1  0.16872703  0.83030353  0.49201728  1
  In  In80  1  0.33723996  0.65815024  0.75278308  1
  In  In81  1  0.82851442  0.50168129  -0.00303279  1
  In  In82  1  0.67178418  0.33759798  0.74647345  1
  In  In83  1  0.17077323  0.16469571  0.00974581  1
  In  In84  1  0.66713532  0.67021198  0.24502319  1
  In  In85  1  0.32621171  0.32590063  0.25169297  1
  Cu  Cu86  1  -0.00524680  0.00369548  0.49533029  1
  Cu  Cu87  1  0.83580098  0.82692187  0.25073142  1
  Cu  Cu88  1  0.50393765  0.16458908  0.75612308  1
  Cu  Cu89  1  0.66369689  0.33628658  -0.00178952  1
  Cu  Cu90  1  0.00038493  0.66425254  0.50123022  1
  Cu  Cu91  1  0.16300309  0.49153541  0.74473627  1
  Cu  Cu92  1  0.32773066  0.33289049  0.50177167  1
  Cu  Cu93  1  0.49733278  0.50436195  0.75045275  1
  Cu  Cu94  1  0.16921940  0.83379210  0.25089264  1
  Cu  Cu95  1  0.50741852  0.83716550  0.74995061  1
  Cu  Cu96  1  0.00064596  0.66348872  0.00389729  1
  Cu  Cu97  1  0.33737327  -0.00448060  0.49192599  1
  Cu  Cu98  1  0.33160912  0.33965189  -0.00105828  1
  Cu  Cu99  1  0.50353343  0.15428265  0.24458714  1
  Cu  Cu100  1  0.67092895  0.67298134  0.50009728  1
  Cu  Cu101  1  0.34170011  0.66597777  0.49489546  1
  Cu  Cu102  1  0.33141331  -0.00159099  0.00768172  1
  Cu  Cu103  1  0.16098079  0.17383252  0.25563765  1
  Cu  Cu104  1  0.82716845  0.83187776  0.74720637  1
  Cu  Cu105  1  0.16793377  0.17009756  0.74712113  1
  Cu  Cu106  1  0.83895578  0.16540533  0.74785445  1
  Cu  Cu107  1  0.00911617  0.33623076  0.00122704  1
  Cu  Cu108  1  0.66508391  -0.00752558  0.49599485  1
  Cu  Cu109  1  0.32404227  0.67050365  0.00260965  1
  Cu  Cu110  1  0.16853507  0.50469368  0.25311946  1
  Cu  Cu111  1  0.16077520  0.82588949  0.75874036  1
  Cu  Cu112  1  0.50109667  0.50080127  0.24621344  1
  Cu  Cu113  1  0.66672223  0.33847133  0.49886285  1
  Cu  Cu114  1  0.83722781  0.50493035  0.74336948  1
  Se  Se115  1  0.07745248  0.07808999  0.06652208  1
  Se  Se116  1  0.08432555  0.08304650  0.54437691  1
  Se  Se117  1  0.08670226  0.42234219  0.05540522  1
  Se  Se118  1  0.09869420  0.43173421  0.55694318  1
  Se  Se119  1  0.07919775  0.75136600  0.05688930  1
  Se  Se120  1  0.08079644  0.74822471  0.56085685  1
  Se  Se121  1  0.41871937  0.08481062  0.05280458  1
  Se  Se122  1  0.40987350  0.07360935  0.56204756  1
  Se  Se123  1  0.41585837  0.42489678  0.05118881  1
  Se  Se124  1  0.41512349  0.41512185  0.55273719  1
  Se  Se125  1  0.41033199  0.75050993  0.05599178  1
  Se  Se126  1  0.42142428  0.75470353  0.54542890  1
  Se  Se127  1  0.74253648  0.06712576  0.05633841  1
  Se  Se128  1  0.74389459  0.08335256  0.55066719  1
  Se  Se129  1  0.74694575  0.40684611  0.06193506  1
  Se  Se130  1  0.75280268  0.42197874  0.54885699  1
  Se  Se131  1  0.73542301  0.73476275  0.05843435  1
  Se  Se132  1  0.75357912  0.75380595  0.55699631  1
  Se  Se133  1  0.26102865  0.25976830  0.06652517  1
  Se  Se134  1  0.24773501  0.24673935  0.55471736  1
  Se  Se135  1  0.24226768  0.58356904  0.05355002  1
  Se  Se136  1  0.25143784  0.58878404  0.54729489  1
  Se  Se137  1  0.24469391  0.91589476  0.05726259  1
  Se  Se138  1  0.25733718  0.91988162  0.55820436  1
  Se  Se139  1  0.57868568  0.25147383  0.04785512  1
  Se  Se140  1  0.59109902  0.25848678  0.56237861  1
  Se  Se141  1  0.57444960  0.57648247  0.05057937  1
  Se  Se142  1  0.58435748  0.58722329  0.55051743  1
  Se  Se143  1  0.57753272  0.91077746  0.04735079  1
  Se  Se144  1  0.58235133  0.91444747  0.55437003  1
  Se  Se145  1  0.93010299  0.25346479  0.05989610  1
  Se  Se146  1  0.92506754  0.26079617  0.55366356  1
  Se  Se147  1  0.91962591  0.58301121  0.06260646  1
  Se  Se148  1  0.91761853  0.58470193  0.55910112  1
  Se  Se149  1  0.92028193  0.92418548  0.06692204  1
  Se  Se150  1  0.91277970  0.91788291  0.54670550  1
  Se  Se151  1  0.07817204  0.23879125  0.44566249  1
  Se  Se152  1  0.08568874  0.25187519  0.94108210  1
  Se  Se153  1  0.08586291  0.58721976  0.44495868  1
  Se  Se154  1  0.07980709  0.57760362  0.94896785  1
  Se  Se155  1  0.07610981  0.92071420  0.43581140  1
  Se  Se156  1  0.07326935  0.91421207  0.95783351  1
  Se  Se157  1  0.40804725  0.25552616  0.43850794  1
  Se  Se158  1  0.41488140  0.25302234  0.94868506  1
  Se  Se159  1  0.42259185  0.57874790  0.44265832  1
  Se  Se160  1  0.40789696  0.59161118  0.94390539  1
  Se  Se161  1  0.42126847  0.91435214  0.43990805  1
  Se  Se162  1  0.41111692  0.91481354  0.95108040  1
  Se  Se163  1  0.73911847  0.26127868  0.43261050  1
  Se  Se164  1  0.74843136  0.25776755  0.94011203  1
  Se  Se165  1  0.75418409  0.58502508  0.45073219  1
  Se  Se166  1  0.73745274  0.59473981  0.94239729  1
  Se  Se167  1  0.75428020  0.91495616  0.44374411  1
  Se  Se168  1  0.74842686  0.91989955  0.93967992  1
  Se  Se169  1  0.25039549  0.08266512  0.44878572  1
  Se  Se170  1  0.25575301  0.07715735  0.94070388  1
  Se  Se171  1  0.24980863  0.42167628  0.44839515  1
  Se  Se172  1  0.24702864  0.42018096  0.94522554  1
  Se  Se173  1  0.26017684  0.74425251  0.43208826  1
  Se  Se174  1  0.23939636  0.75388876  0.94955007  1
  Se  Se175  1  0.58086081  0.07487850  0.43980304  1
  Se  Se176  1  0.58261146  0.09278036  0.94951080  1
  Se  Se177  1  0.57655460  0.42123678  0.45186403  1
  Se  Se178  1  0.58225368  0.42149121  0.94520285  1
  Se  Se179  1  0.58340947  0.74931158  0.44454981  1
  Se  Se180  1  0.57312582  0.76779779  0.94872175  1
  Se  Se181  1  0.91522404  0.07560081  0.43022069  1
  Se  Se182  1  0.93169253  0.07481868  0.94775670  1
  Se  Se183  1  0.92729648  0.41729563  0.44599243  1
  Se  Se184  1  0.92225032  0.40848703  0.94089140  1
  Se  Se185  1  0.91668576  0.75128562  0.45172135  1
  Se  Se186  1  0.91315917  0.73998403  0.94596644  1
  Se  Se187  1  0.23632859  0.25236150  0.32092487  1
  Se  Se188  1  0.25451561  0.25145559  0.79893498  1
  Se  Se189  1  0.25853124  0.58790769  0.29887250  1
  Se  Se190  1  0.24016223  0.57308231  0.80924626  1
  Se  Se191  1  0.25118898  0.91903138  0.30442747  1
  Se  Se192  1  0.24500377  0.91046562  0.81025480  1
  Se  Se193  1  0.57475986  0.23516632  0.31063278  1
  Se  Se194  1  0.58448662  0.25198014  0.81196421  1
  Se  Se195  1  0.58291649  0.57632840  0.30872341  1
  Se  Se196  1  0.57651867  0.59073671  0.80335894  1
  Se  Se197  1  0.60291490  0.92442670  0.29969022  1
  Se  Se198  1  0.58571652  0.92078147  0.80644536  1
  Se  Se199  1  0.89268394  0.23700728  0.30347822  1
  Se  Se200  1  0.92688965  0.24844871  0.79514989  1
  Se  Se201  1  0.92464075  0.59294300  0.30235631  1
  Se  Se202  1  0.91875625  0.58561609  0.80186600  1
  Se  Se203  1  0.91866750  0.91300398  0.30207916  1
  Se  Se204  1  0.90899022  0.90623585  0.81263172  1
  Se  Se205  1  0.08063850  0.08137902  0.30313350  1
  Se  Se206  1  0.09614090  0.08597753  0.81099982  1
  Se  Se207  1  0.08559956  0.42118498  0.30683749  1
  Se  Se208  1  0.08006337  0.41119874  0.80280441  1
  Se  Se209  1  0.08385639  0.74987123  0.30229320  1
  Se  Se210  1  0.07695064  0.74296567  0.80908799  1
  Se  Se211  1  0.41340676  0.08007290  0.29901895  1
  Se  Se212  1  0.43078102  0.08508810  0.82164159  1
  Se  Se213  1  0.42075051  0.42007808  0.30646558  1
  Se  Se214  1  0.41616334  0.41697728  0.80096737  1
  Se  Se215  1  0.42305915  0.74561829  0.29612277  1
  Se  Se216  1  0.42235453  0.75770533  0.80770742  1
  Se  Se217  1  0.74471575  0.07833267  0.29161494  1
  Se  Se218  1  0.75532548  0.08278540  0.80012837  1
  Se  Se219  1  0.75472795  0.43155764  0.30981487  1
  Se  Se220  1  0.76028890  0.42720685  0.81039653  1
  Se  Se221  1  0.75683075  0.74836699  0.31397066  1
  Se  Se222  1  0.74506150  0.74729109  0.80090946  1
  Se  Se223  1  0.24590512  0.09243959  0.20175581  1
  Se  Se224  1  0.24216654  0.08215490  0.68896605  1
  Se  Se225  1  0.24768865  0.42429530  0.19006745  1
  Se  Se226  1  0.25470785  0.41364438  0.69496314  1
  Se  Se227  1  0.25074389  0.75047017  0.19565199  1
  Se  Se228  1  0.24227193  0.75148452  0.69524300  1
  Se  Se229  1  0.58498535  0.07437549  0.18923423  1
  Se  Se230  1  0.58587346  0.07789397  0.70575576  1
  Se  Se231  1  0.58387905  0.41451141  0.19459443  1
  Se  Se232  1  0.58019565  0.42693675  0.68753149  1
  Se  Se233  1  0.57142061  0.75917829  0.19209698  1
  Se  Se234  1  0.58421080  0.74896409  0.69541312  1
  Se  Se235  1  0.91179421  0.08754008  0.20507105  1
  Se  Se236  1  0.91440977  0.08662217  0.68188892  1
  Se  Se237  1  0.91718286  0.41847833  0.20545716  1
  Se  Se238  1  0.91912817  0.41577700  0.69622938  1
  Se  Se239  1  0.92116570  0.74404228  0.19965740  1
  Se  Se240  1  0.91702808  0.75153938  0.69762910  1
  Se  Se241  1  0.07780562  0.26003173  0.20505523  1
  Se  Se242  1  0.08404156  0.25071063  0.69326429  1
  Se  Se243  1  0.08574943  0.58580914  0.19665258  1
  Se  Se244  1  0.08130687  0.58314580  0.69855234  1
  Se  Se245  1  0.08375985  0.91867456  0.20069925  1
  Se  Se246  1  0.08644532  0.90746383  0.69456373  1
  Se  Se247  1  0.42872073  0.24814719  0.19085337  1
  Se  Se248  1  0.42014544  0.24553744  0.70210019  1
  Se  Se249  1  0.41978565  0.58619047  0.19491469  1
  Se  Se250  1  0.42122632  0.57866315  0.68199626  1
  Se  Se251  1  0.40385638  0.93193440  0.19402089  1
  Se  Se252  1  0.41822798  0.90931380  0.69079237  1
  Se  Se253  1  0.75045509  0.24005844  0.18274675  1
  Se  Se254  1  0.75836986  0.24328716  0.68479186  1
  Se  Se255  1  0.75811881  0.57111300  0.19273595  1
  Se  Se256  1  0.74720535  0.58732708  0.69705801  1
  Se  Se257  1  0.75113072  0.90408302  0.19371038  1
  Se  Se258  1  0.74642589  0.92022603  0.69624632  1
