# generated using pymatgen
data_In86Cu29Se144
_symmetry_space_group_name_H-M   'P 1'
_cell_length_a   17.58288138
_cell_length_b   17.58378522
_cell_length_c   23.44350030
_cell_angle_alpha   90.00550598
_cell_angle_beta   89.99695677
_cell_angle_gamma   90.01680295
_symmetry_Int_Tables_number   1
_chemical_formula_structural   In86Cu29Se144
_chemical_formula_sum   'In86 Cu29 Se144'
_cell_volume   7248.11125713
_cell_formula_units_Z   1
loop_
 _symmetry_equiv_pos_site_id
 _symmetry_equiv_pos_as_xyz
  1  'x, y, z'
loop_
 _atom_site_type_symbol
 _atom_site_label
 _atom_site_symmetry_multiplicity
 _atom_site_fract_x
 _atom_site_fract_y
 _atom_site_fract_z
 _atom_site_occupancy
  In  In0  1  0.00444252  0.16960982  0.12718410  1
  In  In1  1  -0.00252617  0.16990580  0.61873643  1
  In  In2  1  -0.01397616  0.49919329  0.12723237  1
  In  In3  1  0.01250114  0.48488218  0.62852598  1
  In  In4  1  -0.00370922  0.83835291  0.11353096  1
  In  In5  1  -0.00256611  0.84155145  0.63960644  1
  In  In6  1  0.32170207  0.17806696  0.12139797  1
  In  In7  1  0.33190402  0.18587515  0.62860775  1
  In  In8  1  0.34313106  0.48711583  0.11789325  1
  In  In9  1  0.33242068  0.50195702  0.62506173  1
  In  In10  1  0.32562970  0.84136973  0.12028148  1
  In  In11  1  0.32814041  0.81483091  0.63130540  1
  In  In12  1  0.67848803  0.16135032  0.14373620  1
  In  In13  1  0.67820430  0.15932462  0.62973855  1
  In  In14  1  0.67029237  0.50473384  0.13422089  1
  In  In15  1  0.65655892  0.50975902  0.62875612  1
  In  In16  1  0.67981689  0.82030656  0.13482227  1
  In  In17  1  0.66924161  0.83536095  0.62187301  1
  In  In18  1  0.17413570  0.00592864  0.37662257  1
  In  In19  1  0.15308047  0.01035025  0.87469306  1
  In  In20  1  0.15209863  0.34193401  0.38996648  1
  In  In21  1  0.15510045  0.32048367  0.86636895  1
  In  In22  1  0.15288842  0.66116686  0.37862332  1
  In  In23  1  0.17109503  0.67805355  0.86047055  1
  In  In24  1  0.50695593  -0.01485239  0.38293547  1
  In  In25  1  0.50709423  -0.01033735  0.86950972  1
  In  In26  1  0.51333782  0.33840834  0.37971102  1
  In  In27  1  0.50911019  0.34590191  0.86711855  1
  In  In28  1  0.51018432  0.65484352  0.38360406  1
  In  In29  1  0.49624268  0.66081517  0.86945500  1
  In  In30  1  0.82326672  0.00897240  0.38068502  1
  In  In31  1  0.82995673  -0.00664688  0.86858990  1
  In  In32  1  0.83076384  0.32853549  0.37088938  1
  In  In33  1  0.83833548  0.33788667  0.86654592  1
  In  In34  1  0.83458076  0.67840673  0.38061207  1
  In  In35  1  0.83988604  0.67248294  0.86662603  1
  In  In36  1  -0.02245030  0.18936432  0.40288323  1
  In  In37  1  0.01209068  0.17846670  0.86692686  1
  In  In38  1  0.00868448  0.49985185  0.38206667  1
  In  In39  1  -0.00218570  0.49813571  0.86496517  1
  In  In40  1  -0.00575172  0.81912832  0.37924182  1
  In  In41  1  -0.00104303  0.83447803  0.86901389  1
  In  In42  1  0.31850035  0.16506903  0.38156366  1
  In  In43  1  0.31336687  0.16546392  0.87065334  1
  In  In44  1  0.33191243  0.49848555  0.38505309  1
  In  In45  1  0.34142748  0.51070676  0.86792146  1
  In  In46  1  0.33676360  0.84635066  0.37869058  1
  In  In47  1  0.33334313  0.81868587  0.87016351  1
  In  In48  1  0.68770671  0.18087679  0.36025990  1
  In  In49  1  0.67130959  0.16911186  0.86672691  1
  In  In50  1  0.66368794  0.48836539  0.37374195  1
  In  In51  1  0.66540581  0.49854209  0.86992883  1
  In  In52  1  0.66927815  0.83099047  0.37591371  1
  In  In53  1  0.67175872  0.83377076  0.86890163  1
  In  In54  1  0.15586605  -0.00093182  0.11668578  1
  In  In55  1  0.13994284  -0.00626691  0.63275961  1
  In  In56  1  0.16267675  0.32499216  0.12147660  1
  In  In57  1  0.16160627  0.33854304  0.61970205  1
  In  In58  1  0.15474716  0.67465739  0.11973458  1
  In  In59  1  0.17716576  0.66172280  0.64006532  1
  In  In60  1  0.50159951  0.00714978  0.12566896  1
  In  In61  1  0.51961783  0.00258597  0.62451839  1
  In  In62  1  0.50875508  0.34623503  0.11897307  1
  In  In63  1  0.49073388  0.34468580  0.62969141  1
  In  In64  1  0.52691618  0.66672836  0.11693466  1
  In  In65  1  0.49979496  0.66760215  0.62358076  1
  In  In66  1  0.83644607  -0.01035104  0.12587392  1
  In  In67  1  0.83488187  0.00074112  0.62150403  1
  In  In68  1  0.83652925  0.33227091  0.14341696  1
  In  In69  1  0.84682756  0.31798281  0.62782255  1
  In  In70  1  0.80909615  0.66620233  0.11540631  1
  In  In71  1  0.82034051  0.67346464  0.63037115  1
  In  In72  1  0.83892696  0.16552624  0.00910112  1
  In  In73  1  0.33883021  0.66856291  0.24318077  1
  In  In74  1  0.34278381  0.33033407  0.24386693  1
  In  In75  1  0.50386409  0.16757956  0.49866805  1
  In  In76  1  0.83394939  0.49897902  -0.00575403  1
  In  In77  1  0.49503503  0.17264055  0.00382101  1
  In  In78  1  0.16886113  0.50296711  -0.00565969  1
  In  In79  1  0.49606365  0.83029787  -0.00623572  1
  In  In80  1  0.33569699  -0.00035225  0.25349439  1
  In  In81  1  0.33692615  0.00080458  0.75194840  1
  In  In82  1  0.16623551  0.83022940  0.50638621  1
  In  In83  1  -0.00900181  0.66381970  0.25086083  1
  In  In84  1  0.83307617  0.49631157  0.50493596  1
  In  In85  1  -0.00538085  0.00552157  0.24891729  1
  Cu  Cu86  1  0.66360658  0.67144417  0.50389543  1
  Cu  Cu87  1  0.16327852  0.17055324  0.74371128  1
  Cu  Cu88  1  0.66762018  0.33366510  0.50095763  1
  Cu  Cu89  1  0.82838205  0.49779646  0.74398033  1
  Cu  Cu90  1  0.33276046  0.66496499  0.50646997  1
  Cu  Cu91  1  -0.00426649  0.00210723  -0.00496584  1
  Cu  Cu92  1  -0.00018838  -0.00356345  0.50685979  1
  Cu  Cu93  1  0.33066979  0.33279741  -0.00630684  1
  Cu  Cu94  1  0.67216592  -0.00246381  0.49918566  1
  Cu  Cu95  1  0.82954265  0.83124513  0.25050119  1
  Cu  Cu96  1  0.33474660  0.66542956  -0.00845316  1
  Cu  Cu97  1  0.16483257  0.49520583  0.25757560  1
  Cu  Cu98  1  0.16067923  0.16987881  0.25198044  1
  Cu  Cu99  1  0.49762152  0.50248202  0.74657902  1
  Cu  Cu100  1  0.33714730  -0.00381382  0.50810182  1
  Cu  Cu101  1  0.31494839  0.00042870  -0.00468543  1
  Cu  Cu102  1  0.17051123  0.49493139  0.74916502  1
  Cu  Cu103  1  0.50840151  0.83122067  0.74659221  1
  Cu  Cu104  1  -0.00107747  0.66387374  0.50696652  1
  Cu  Cu105  1  -0.00218849  0.67783120  -0.00957731  1
  Cu  Cu106  1  0.66133273  -0.00628517  -0.00391055  1
  Cu  Cu107  1  0.50972324  0.50249101  0.25057093  1
  Cu  Cu108  1  0.83191652  0.83666173  0.74689904  1
  Cu  Cu109  1  0.67133853  0.33533732  -0.00097366  1
  Cu  Cu110  1  0.50511719  0.16024667  0.25486923  1
  Cu  Cu111  1  0.50614258  0.17372295  0.74662297  1
  Cu  Cu112  1  0.32866247  0.34020465  0.50557380  1
  Cu  Cu113  1  0.83707990  0.16186618  0.74721874  1
  Cu  Cu114  1  0.50878753  0.82715809  0.25448492  1
  Se  Se115  1  0.07528990  0.08666337  0.05192461  1
  Se  Se116  1  0.08600854  0.08119113  0.55493887  1
  Se  Se117  1  0.07841298  0.41950528  0.05822505  1
  Se  Se118  1  0.07671743  0.41191527  0.54698383  1
  Se  Se119  1  0.08349186  0.75683691  0.04633493  1
  Se  Se120  1  0.07936437  0.74310196  0.56893749  1
  Se  Se121  1  0.39950749  0.07501433  0.05711244  1
  Se  Se122  1  0.41439944  0.08299028  0.56507645  1
  Se  Se123  1  0.42091939  0.41158653  0.04373358  1
  Se  Se124  1  0.41760771  0.42227169  0.55340508  1
  Se  Se125  1  0.41082952  0.74063332  0.06097598  1
  Se  Se126  1  0.41495587  0.75279851  0.55518684  1
  Se  Se127  1  0.73806057  0.07466893  0.05940840  1
  Se  Se128  1  0.75182448  0.08521604  0.55191864  1
  Se  Se129  1  0.75410493  0.40846397  0.06190018  1
  Se  Se130  1  0.74388598  0.40953694  0.56756847  1
  Se  Se131  1  0.74480385  0.76127731  0.04791235  1
  Se  Se132  1  0.75276253  0.75295544  0.55174389  1
  Se  Se133  1  0.24469586  0.25235581  0.04636237  1
  Se  Se134  1  0.24790797  0.25034219  0.55307684  1
  Se  Se135  1  0.25846603  0.59046684  0.06041534  1
  Se  Se136  1  0.24492122  0.58648445  0.55883489  1
  Se  Se137  1  0.23864571  0.91307025  0.04996740  1
  Se  Se138  1  0.25302863  0.92135118  0.56919508  1
  Se  Se139  1  0.59972029  0.24894229  0.06143409  1
  Se  Se140  1  0.58709949  0.25554698  0.56423863  1
  Se  Se141  1  0.58982983  0.56717809  0.05413512  1
  Se  Se142  1  0.57988951  0.58384606  0.55195326  1
  Se  Se143  1  0.58252147  0.91739875  0.05918143  1
  Se  Se144  1  0.58491369  0.91655313  0.55002860  1
  Se  Se145  1  0.92251616  0.26538941  0.06234358  1
  Se  Se146  1  0.91442631  0.24685901  0.54679232  1
  Se  Se147  1  0.92249960  0.59656750  0.05384587  1
  Se  Se148  1  0.91883033  0.58552760  0.56850375  1
  Se  Se149  1  0.90985798  0.91918742  0.04647352  1
  Se  Se150  1  0.92054672  0.90932661  0.55933602  1
  Se  Se151  1  0.11026011  0.22075109  0.44157297  1
  Se  Se152  1  0.08429096  0.24960373  0.94634973  1
  Se  Se153  1  0.08469827  0.58211936  0.45556098  1
  Se  Se154  1  0.07693366  0.59133804  0.93520841  1
  Se  Se155  1  0.07833002  0.91927475  0.44137514  1
  Se  Se156  1  0.07847686  0.91821253  0.94149604  1
  Se  Se157  1  0.40776910  0.26066231  0.44155606  1
  Se  Se158  1  0.41181325  0.25309066  0.93300007  1
  Se  Se159  1  0.41555121  0.58325843  0.44990442  1
  Se  Se160  1  0.42144040  0.58059109  0.94552004  1
  Se  Se161  1  0.41936590  0.91368704  0.45490005  1
  Se  Se162  1  0.40364803  0.92622061  0.93844552  1
  Se  Se163  1  0.74868845  0.25155863  0.44569136  1
  Se  Se164  1  0.75187282  0.25365293  0.94156917  1
  Se  Se165  1  0.74440425  0.58772091  0.44411211  1
  Se  Se166  1  0.74710852  0.59129433  0.93703373  1
  Se  Se167  1  0.75390279  0.91114229  0.44610745  1
  Se  Se168  1  0.74777320  0.91707319  0.94182357  1
  Se  Se169  1  0.25222534  0.07631536  0.45453577  1
  Se  Se170  1  0.23685907  0.09069861  0.94599861  1
  Se  Se171  1  0.24352917  0.42303120  0.45247445  1
  Se  Se172  1  0.25368898  0.41301643  0.93129452  1
  Se  Se173  1  0.25554714  0.74303817  0.44002480  1
  Se  Se174  1  0.24734693  0.74684031  0.94251605  1
  Se  Se175  1  0.59591544  0.08340043  0.43738424  1
  Se  Se176  1  0.58523982  0.08193997  0.94105548  1
  Se  Se177  1  0.58347390  0.42189061  0.45373263  1
  Se  Se178  1  0.58857315  0.41612530  0.94455154  1
  Se  Se179  1  0.58186580  0.75339721  0.44653163  1
  Se  Se180  1  0.58872140  0.74256176  0.93770390  1
  Se  Se181  1  0.91314956  0.07612720  0.45349450  1
  Se  Se182  1  0.91822194  0.08519423  0.93512591  1
  Se  Se183  1  0.92094185  0.40828670  0.44369438  1
  Se  Se184  1  0.92953758  0.40732117  0.94170238  1
  Se  Se185  1  0.91605519  0.74979170  0.45667524  1
  Se  Se186  1  0.90989243  0.75843694  0.94042895  1
  Se  Se187  1  0.24678108  0.25173409  0.30682745  1
  Se  Se188  1  0.24958932  0.25249901  0.79578939  1
  Se  Se189  1  0.24809275  0.58033884  0.30918015  1
  Se  Se190  1  0.25190463  0.58422307  0.79933691  1
  Se  Se191  1  0.23904986  0.90650875  0.30493557  1
  Se  Se192  1  0.24673623  0.91731368  0.81387867  1
  Se  Se193  1  0.57980947  0.25278691  0.30573029  1
  Se  Se194  1  0.58921681  0.25590163  0.80200298  1
  Se  Se195  1  0.58950794  0.58450790  0.30685355  1
  Se  Se196  1  0.58332999  0.58273390  0.80122356  1
  Se  Se197  1  0.58679002  0.91642035  0.30612841  1
  Se  Se198  1  0.59043863  0.91766127  0.79794703  1
  Se  Se199  1  0.92033052  0.24100343  0.31106223  1
  Se  Se200  1  0.91752146  0.24994469  0.80012178  1
  Se  Se201  1  0.90949932  0.57609011  0.31724938  1
  Se  Se202  1  0.91257272  0.57976861  0.79890415  1
  Se  Se203  1  0.91204689  0.90845172  0.31149486  1
  Se  Se204  1  0.91794279  0.92001488  0.79870459  1
  Se  Se205  1  0.08426960  0.08939543  0.31293799  1
  Se  Se206  1  0.08028323  0.08553087  0.79629075  1
  Se  Se207  1  0.08104102  0.41350010  0.30885640  1
  Se  Se208  1  0.08206806  0.41329127  0.79952056  1
  Se  Se209  1  0.08918547  0.75564731  0.30507056  1
  Se  Se210  1  0.06496570  0.73781247  0.80099770  1
  Se  Se211  1  0.42224243  0.08923593  0.31758440  1
  Se  Se212  1  0.42714133  0.09496119  0.81137592  1
  Se  Se213  1  0.42246004  0.42530506  0.30853431  1
  Se  Se214  1  0.41507606  0.41791768  0.80054782  1
  Se  Se215  1  0.42158776  0.75340619  0.31324678  1
  Se  Se216  1  0.42189820  0.75004606  0.79921344  1
  Se  Se217  1  0.75038622  0.07566803  0.30019245  1
  Se  Se218  1  0.75043176  0.08151368  0.80111931  1
  Se  Se219  1  0.74797759  0.41294290  0.30551047  1
  Se  Se220  1  0.74791158  0.41489276  0.80157658  1
  Se  Se221  1  0.75010439  0.74569994  0.30521958  1
  Se  Se222  1  0.74973540  0.74955368  0.79860932  1
  Se  Se223  1  0.24152512  0.08870722  0.19226887  1
  Se  Se224  1  0.24652910  0.08611310  0.68795501  1
  Se  Se225  1  0.24512098  0.42362794  0.19083017  1
  Se  Se226  1  0.25028534  0.41339321  0.69064766  1
  Se  Se227  1  0.24037028  0.75819619  0.19156165  1
  Se  Se228  1  0.24528581  0.75560295  0.70857804  1
  Se  Se229  1  0.58437171  0.07486361  0.20050812  1
  Se  Se230  1  0.58864833  0.08446108  0.69996175  1
  Se  Se231  1  0.58681634  0.41285483  0.19742093  1
  Se  Se232  1  0.58370812  0.41724000  0.69711573  1
  Se  Se233  1  0.58823157  0.74199601  0.19993424  1
  Se  Se234  1  0.58857275  0.74841779  0.69021962  1
  Se  Se235  1  0.90262341  0.09521485  0.19049779  1
  Se  Se236  1  0.92028490  0.08269931  0.68988833  1
  Se  Se237  1  0.92323683  0.41977796  0.20426372  1
  Se  Se238  1  0.91611449  0.41411285  0.69506364  1
  Se  Se239  1  0.90954705  0.75599272  0.18579651  1
  Se  Se240  1  0.91303438  0.74702042  0.69765299  1
  Se  Se241  1  0.08163172  0.25537714  0.19770312  1
  Se  Se242  1  0.08022322  0.25287709  0.68901443  1
  Se  Se243  1  0.09138401  0.57702645  0.19275534  1
  Se  Se244  1  0.08272889  0.57697063  0.69815271  1
  Se  Se245  1  0.08359697  0.91075884  0.19089915  1
  Se  Se246  1  0.09434679  0.90260850  0.70947764  1
  Se  Se247  1  0.43255327  0.23640024  0.18552595  1
  Se  Se248  1  0.41663587  0.25648599  0.70098104  1
  Se  Se249  1  0.42829582  0.57492050  0.18604261  1
  Se  Se250  1  0.41478554  0.58695610  0.69319665  1
  Se  Se251  1  0.42606728  0.90477195  0.19331442  1
  Se  Se252  1  0.42639196  0.91386549  0.68837970  1
  Se  Se253  1  0.74262878  0.25921923  0.20746194  1
  Se  Se254  1  0.75269208  0.24978812  0.69773683  1
  Se  Se255  1  0.76922481  0.57654008  0.19524291  1
  Se  Se256  1  0.74301374  0.58586231  0.69885394  1
  Se  Se257  1  0.74915946  0.91945717  0.19858176  1
  Se  Se258  1  0.74971166  0.92020100  0.69142219  1
