# generated using pymatgen
data_In86Cu29Se144
_symmetry_space_group_name_H-M   'P 1'
_cell_length_a   17.65159483
_cell_length_b   17.65413312
_cell_length_c   23.51876424
_cell_angle_alpha   89.98733428
_cell_angle_beta   90.02203188
_cell_angle_gamma   90.00131197
_symmetry_Int_Tables_number   1
_chemical_formula_structural   In86Cu29Se144
_chemical_formula_sum   'In86 Cu29 Se144'
_cell_volume   7329.00137272
_cell_formula_units_Z   1
loop_
 _symmetry_equiv_pos_site_id
 _symmetry_equiv_pos_as_xyz
  1  'x, y, z'
loop_
 _atom_site_type_symbol
 _atom_site_label
 _atom_site_symmetry_multiplicity
 _atom_site_fract_x
 _atom_site_fract_y
 _atom_site_fract_z
 _atom_site_occupancy
  In  In0  1  0.00466579  0.16952867  0.12234120  1
  In  In1  1  0.00541709  0.16114701  0.62599306  1
  In  In2  1  0.00599715  0.49414280  0.13163644  1
  In  In3  1  0.00506505  0.48361739  0.62532500  1
  In  In4  1  -0.00536534  0.83255081  0.12230169  1
  In  In5  1  0.01397914  0.84250760  0.61912358  1
  In  In6  1  0.32602133  0.17298666  0.13372610  1
  In  In7  1  0.32222693  0.17753752  0.62650101  1
  In  In8  1  0.33338021  0.49948890  0.12892289  1
  In  In9  1  0.33293915  0.50410427  0.62388975  1
  In  In10  1  0.32182978  0.84103638  0.13899930  1
  In  In11  1  0.32493150  0.83973936  0.62913883  1
  In  In12  1  0.67427906  0.15561082  0.12173014  1
  In  In13  1  0.69730894  0.14489437  0.65419129  1
  In  In14  1  0.66835777  0.51190359  0.12222826  1
  In  In15  1  0.66672934  0.49651013  0.62866082  1
  In  In16  1  0.66889574  0.82959314  0.12501612  1
  In  In17  1  0.68922623  0.84173264  0.61719540  1
  In  In18  1  0.17489584  -0.01123535  0.38251549  1
  In  In19  1  0.15732599  -0.00526723  0.86783966  1
  In  In20  1  0.16724207  0.33396368  0.38204724  1
  In  In21  1  0.15645706  0.32011693  0.86255026  1
  In  In22  1  0.16544320  0.66340639  0.37495378  1
  In  In23  1  0.17397730  0.67222600  0.87454479  1
  In  In24  1  0.48898537  0.00848837  0.37597334  1
  In  In25  1  0.49936740  -0.00057598  0.86346287  1
  In  In26  1  0.49529987  0.34314321  0.37963241  1
  In  In27  1  0.49962115  0.34133773  0.87141263  1
  In  In28  1  0.49837815  0.66660458  0.36611767  1
  In  In29  1  0.48193366  0.66953149  0.87867746  1
  In  In30  1  0.83893036  -0.00632772  0.38881236  1
  In  In31  1  0.82924184  -0.00146380  0.86809624  1
  In  In32  1  0.83645817  0.31980790  0.38176544  1
  In  In33  1  0.81147151  0.31809520  0.84737158  1
  In  In34  1  0.84095266  0.66975332  0.37001396  1
  In  In35  1  0.84586821  0.67144650  0.88013934  1
  In  In36  1  -0.00622340  0.17126249  0.38107969  1
  In  In37  1  -0.04918329  0.13606873  0.81601656  1
  In  In38  1  0.00760792  0.50918322  0.37011051  1
  In  In39  1  0.00292580  0.49314400  0.87043118  1
  In  In40  1  0.01212703  0.81906522  0.38143325  1
  In  In41  1  -0.01261212  0.85288804  0.89536790  1
  In  In42  1  0.32242229  0.16314530  0.37486842  1
  In  In43  1  0.32494615  0.16511642  0.86342448  1
  In  In44  1  0.31947960  0.48359285  0.36859732  1
  In  In45  1  0.33057265  0.50795733  0.87334639  1
  In  In46  1  0.31181775  0.81807319  0.35827096  1
  In  In47  1  0.32346454  0.83211049  0.86977713  1
  In  In48  1  0.67426919  0.16443610  0.38715286  1
  In  In49  1  0.67532128  0.17066055  0.86295240  1
  In  In50  1  0.65920668  0.50294926  0.37697942  1
  In  In51  1  0.65988456  0.48733376  0.87446490  1
  In  In52  1  0.68192603  0.82689268  0.38014078  1
  In  In53  1  0.66976672  0.84515189  0.87193073  1
  In  In54  1  0.16870284  0.00181185  0.12394371  1
  In  In55  1  0.16712897  0.00097916  0.62402709  1
  In  In56  1  0.16242760  0.33542397  0.13179709  1
  In  In57  1  0.17453258  0.33149646  0.61534486  1
  In  In58  1  0.15461594  0.67972552  0.14187203  1
  In  In59  1  0.17752027  0.67447329  0.61351584  1
  In  In60  1  0.49835605  -0.00687513  0.12583423  1
  In  In61  1  0.50024603  -0.00000768  0.63389136  1
  In  In62  1  0.48520123  0.33606845  0.12280402  1
  In  In63  1  0.50176587  0.33338263  0.63252420  1
  In  In64  1  0.50742456  0.66352777  0.13026883  1
  In  In65  1  0.49915325  0.65778242  0.62523504  1
  In  In66  1  0.83711099  0.00039286  0.11034050  1
  In  In67  1  0.84493982  0.00489469  0.63219788  1
  In  In68  1  0.84486097  0.33260022  0.12336334  1
  In  In69  1  0.86735705  0.30570108  0.66211149  1
  In  In70  1  0.82563046  0.67483021  0.13068589  1
  In  In71  1  0.82962368  0.68120057  0.61688543  1
  In  In72  1  0.15527800  0.16118761  -0.00573643  1
  In  In73  1  0.50208212  0.50218603  0.50606665  1
  In  In74  1  0.83377592  0.49908017  -0.00299931  1
  In  In75  1  0.66604256  0.33431102  0.25943087  1
  In  In76  1  0.66278554  -0.00374847  0.25328345  1
  In  In77  1  0.50034925  0.83617934  0.49845944  1
  In  In78  1  0.83606221  0.49720025  0.50519307  1
  In  In79  1  0.00471234  -0.00156215  0.24981542  1
  In  In80  1  0.66331230  0.66834168  0.74411708  1
  In  In81  1  0.50167522  0.17286122  -0.00470720  1
  In  In82  1  0.49964690  0.83198079  0.00550894  1
  In  In83  1  0.00777722  0.66520450  0.75413614  1
  In  In84  1  0.16622230  0.50190126  0.00104849  1
  In  In85  1  0.50146256  0.16680436  0.50580876  1
  Cu  Cu86  1  0.16218871  0.17235680  0.25335635  1
  Cu  Cu87  1  0.84096575  0.83495854  0.74926309  1
  Cu  Cu88  1  -0.00040449  0.00368029  0.50348234  1
  Cu  Cu89  1  0.83579536  0.50070703  0.24558101  1
  Cu  Cu90  1  0.49597389  0.82934378  0.74972039  1
  Cu  Cu91  1  0.50112378  0.49985400  0.25086402  1
  Cu  Cu92  1  0.66414850  0.66704449  0.00485118  1
  Cu  Cu93  1  0.17307313  0.49956427  0.74493850  1
  Cu  Cu94  1  0.67971199  0.00747861  -0.00875273  1
  Cu  Cu95  1  0.32802875  -0.00464492  0.50058287  1
  Cu  Cu96  1  0.48785059  0.50529016  0.75060139  1
  Cu  Cu97  1  0.33564876  -0.00149697  0.00349156  1
  Cu  Cu98  1  0.83764047  0.16817182  0.25478634  1
  Cu  Cu99  1  0.33271890  0.66595590  0.00095708  1
  Cu  Cu100  1  0.33418592  0.66420594  0.49361485  1
  Cu  Cu101  1  0.32784763  0.33848853  0.00112148  1
  Cu  Cu102  1  0.67550546  0.32304658  0.51263756  1
  Cu  Cu103  1  0.17330364  0.17106229  0.73903875  1
  Cu  Cu104  1  0.00168797  0.66815310  0.49391398  1
  Cu  Cu105  1  0.16314359  0.83910113  0.74865738  1
  Cu  Cu106  1  0.49534863  0.16930967  0.74998011  1
  Cu  Cu107  1  0.48970659  0.17086008  0.25425015  1
  Cu  Cu108  1  0.17076534  0.49746994  0.25469422  1
  Cu  Cu109  1  0.83858639  0.83068365  0.25098474  1
  Cu  Cu110  1  0.00169332  0.67013567  0.00851074  1
  Cu  Cu111  1  -0.00939541  0.32175369  -0.00581191  1
  Cu  Cu112  1  0.66735250  0.32926704  -0.01079491  1
  Cu  Cu113  1  0.00270638  0.32774879  0.50741224  1
  Cu  Cu114  1  0.49662227  0.83491561  0.24880723  1
  Se  Se115  1  0.06886938  0.06828110  0.05449644  1
  Se  Se116  1  0.08721678  0.08472320  0.55382707  1
  Se  Se117  1  0.07210984  0.40337818  0.05263257  1
  Se  Se118  1  0.08807234  0.41817758  0.54976350  1
  Se  Se119  1  0.08819314  0.75053420  0.05930690  1
  Se  Se120  1  0.08422685  0.75125686  0.54986600  1
  Se  Se121  1  0.41220247  0.08471703  0.06050367  1
  Se  Se122  1  0.40873817  0.07353313  0.56075391  1
  Se  Se123  1  0.41087965  0.42122358  0.05265345  1
  Se  Se124  1  0.41351643  0.40673757  0.55791203  1
  Se  Se125  1  0.40873733  0.74605034  0.06510592  1
  Se  Se126  1  0.41054689  0.74332532  0.55765110  1
  Se  Se127  1  0.75826769  0.09247110  0.04591227  1
  Se  Se128  1  0.75856661  0.08750606  0.56654715  1
  Se  Se129  1  0.74247590  0.40745271  0.05740185  1
  Se  Se130  1  0.75469749  0.40665835  0.56888214  1
  Se  Se131  1  0.74955148  0.75066653  0.05395851  1
  Se  Se132  1  0.74800550  0.75097189  0.54429487  1
  Se  Se133  1  0.24680316  0.25445710  0.05656875  1
  Se  Se134  1  0.25191776  0.24504616  0.54637352  1
  Se  Se135  1  0.24852985  0.59263364  0.06343205  1
  Se  Se136  1  0.25359248  0.58085517  0.54943075  1
  Se  Se137  1  0.25439567  0.91756154  0.05865674  1
  Se  Se138  1  0.24483414  0.91197317  0.55400683  1
  Se  Se139  1  0.59159896  0.25753541  0.06071364  1
  Se  Se140  1  0.59238148  0.24597242  0.57077403  1
  Se  Se141  1  0.57867292  0.58301423  0.05275863  1
  Se  Se142  1  0.59932669  0.59395964  0.55634629  1
  Se  Se143  1  0.59746472  0.93065491  0.05419713  1
  Se  Se144  1  0.58701746  0.92565024  0.56025978  1
  Se  Se145  1  0.91273249  0.24190003  0.05342337  1
  Se  Se146  1  0.91774528  0.25293686  0.56611498  1
  Se  Se147  1  0.92153139  0.58392608  0.06317299  1
  Se  Se148  1  0.92895431  0.59088865  0.56170058  1
  Se  Se149  1  0.91706247  0.91134992  0.05003771  1
  Se  Se150  1  0.91869717  0.92014308  0.55820965  1
  Se  Se151  1  0.08259546  0.24800789  0.44825622  1
  Se  Se152  1  0.06804568  0.24548406  0.93164085  1
  Se  Se153  1  0.08542612  0.58073180  0.44675086  1
  Se  Se154  1  0.07355118  0.59150775  0.94167928  1
  Se  Se155  1  0.07797137  0.91861264  0.44661033  1
  Se  Se156  1  0.10180283  0.91031831  0.94724250  1
  Se  Se157  1  0.41297924  0.25188246  0.44232913  1
  Se  Se158  1  0.40230359  0.25526769  0.93906902  1
  Se  Se159  1  0.41442345  0.58208515  0.43679610  1
  Se  Se160  1  0.41275590  0.57991346  0.94928848  1
  Se  Se161  1  0.40358594  0.91581754  0.43727260  1
  Se  Se162  1  0.41580292  0.92234567  0.94113171  1
  Se  Se163  1  0.75742259  0.24389218  0.45558047  1
  Se  Se164  1  0.75282176  0.25112601  0.93597993  1
  Se  Se165  1  0.75047146  0.58506819  0.44038092  1
  Se  Se166  1  0.74076461  0.59029127  0.93887007  1
  Se  Se167  1  0.73957302  0.92343225  0.44815657  1
  Se  Se168  1  0.75597784  0.91387448  0.94384508  1
  Se  Se169  1  0.24727464  0.08302492  0.44898617  1
  Se  Se170  1  0.25815371  0.07740113  0.94115478  1
  Se  Se171  1  0.25341435  0.41448480  0.44938312  1
  Se  Se172  1  0.24473909  0.40816248  0.93659956  1
  Se  Se173  1  0.24949469  0.74938596  0.44323097  1
  Se  Se174  1  0.25354959  0.75124958  0.94683041  1
  Se  Se175  1  0.58827442  0.07056998  0.44652164  1
  Se  Se176  1  0.58731735  0.07887685  0.93641354  1
  Se  Se177  1  0.59750542  0.40405989  0.45088532  1
  Se  Se178  1  0.57762772  0.41540517  0.94841456  1
  Se  Se179  1  0.58521768  0.74003182  0.44054533  1
  Se  Se180  1  0.58844702  0.74697003  0.93932595  1
  Se  Se181  1  0.91542122  0.08731521  0.45107484  1
  Se  Se182  1  0.92488138  0.09044064  0.91809966  1
  Se  Se183  1  0.92642331  0.40999779  0.44316591  1
  Se  Se184  1  0.91526969  0.40693029  0.93481092  1
  Se  Se185  1  0.91270175  0.75031273  0.44596622  1
  Se  Se186  1  0.91541115  0.75069542  0.95536937  1
  Se  Se187  1  0.24685504  0.25313026  0.30747541  1
  Se  Se188  1  0.25394761  0.25612985  0.79503901  1
  Se  Se189  1  0.25285606  0.58366142  0.30568701  1
  Se  Se190  1  0.24637485  0.58629711  0.80334292  1
  Se  Se191  1  0.25003311  0.92645016  0.30132369  1
  Se  Se192  1  0.25057771  0.92116852  0.80082260  1
  Se  Se193  1  0.57646391  0.23922825  0.31700337  1
  Se  Se194  1  0.57692275  0.25144538  0.80602663  1
  Se  Se195  1  0.58681749  0.58204961  0.30213971  1
  Se  Se196  1  0.57250324  0.58473439  0.81001850  1
  Se  Se197  1  0.57457025  0.90863260  0.31493531  1
  Se  Se198  1  0.58283889  0.91250565  0.79945732  1
  Se  Se199  1  0.91934020  0.25287628  0.30543189  1
  Se  Se200  1  0.92759472  0.27591418  0.78868320  1
  Se  Se201  1  0.91794118  0.58296270  0.30156493  1
  Se  Se202  1  0.90791973  0.57748977  0.80755181  1
  Se  Se203  1  0.91428242  0.91143163  0.31229414  1
  Se  Se204  1  0.92333049  0.91251485  0.80695607  1
  Se  Se205  1  0.08730792  0.08855704  0.31405737  1
  Se  Se206  1  0.09538500  0.09713494  0.80299893  1
  Se  Se207  1  0.08683689  0.41534151  0.30871916  1
  Se  Se208  1  0.08715412  0.42060334  0.79922713  1
  Se  Se209  1  0.08250255  0.74408326  0.30557136  1
  Se  Se210  1  0.08444955  0.76407223  0.81438935  1
  Se  Se211  1  0.40824747  0.08418284  0.30416184  1
  Se  Se212  1  0.41233765  0.08208516  0.79985214  1
  Se  Se213  1  0.41926295  0.41442297  0.30290185  1
  Se  Se214  1  0.40981040  0.42019300  0.80624522  1
  Se  Se215  1  0.41483790  0.74772411  0.29898340  1
  Se  Se216  1  0.41155481  0.74984110  0.80385242  1
  Se  Se217  1  0.75708701  0.08549903  0.31131467  1
  Se  Se218  1  0.74106627  0.07314359  0.79839097  1
  Se  Se219  1  0.76168489  0.42429244  0.31405146  1
  Se  Se220  1  0.74543056  0.43069398  0.79897399  1
  Se  Se221  1  0.75112459  0.74931680  0.30216393  1
  Se  Se222  1  0.75925268  0.75329117  0.80698207  1
  Se  Se223  1  0.24070309  0.08804227  0.19613045  1
  Se  Se224  1  0.25466113  0.07992037  0.69250963  1
  Se  Se225  1  0.25020199  0.41537953  0.19598262  1
  Se  Se226  1  0.25173637  0.41616356  0.68878229  1
  Se  Se227  1  0.26313937  0.73674416  0.20102463  1
  Se  Se228  1  0.24246164  0.75233551  0.69477040  1
  Se  Se229  1  0.57396966  0.09376246  0.19426466  1
  Se  Se230  1  0.58047202  0.08243484  0.70328270  1
  Se  Se231  1  0.58153966  0.41903809  0.19012482  1
  Se  Se232  1  0.57628364  0.42695990  0.69811631  1
  Se  Se233  1  0.58456528  0.75611586  0.19566027  1
  Se  Se234  1  0.57949576  0.76210048  0.68303964  1
  Se  Se235  1  0.90883938  0.08555995  0.19063516  1
  Se  Se236  1  0.92694719  0.08489975  0.70215990  1
  Se  Se237  1  0.91761028  0.41283131  0.19688699  1
  Se  Se238  1  0.91303829  0.43470727  0.70028157  1
  Se  Se239  1  0.91956195  0.74879913  0.19522224  1
  Se  Se240  1  0.91993827  0.75449968  0.69003647  1
  Se  Se241  1  0.07782972  0.24983092  0.19621763  1
  Se  Se242  1  0.08974756  0.25350963  0.68637167  1
  Se  Se243  1  0.08364884  0.57725937  0.20075563  1
  Se  Se244  1  0.09336791  0.58224751  0.68624720  1
  Se  Se245  1  0.09155786  0.90717308  0.19195146  1
  Se  Se246  1  0.08131155  0.92347701  0.69612118  1
  Se  Se247  1  0.41369540  0.25578371  0.19783148  1
  Se  Se248  1  0.41320982  0.25096044  0.69548849  1
  Se  Se249  1  0.41975029  0.58162151  0.19514937  1
  Se  Se250  1  0.40988920  0.59004206  0.69563736  1
  Se  Se251  1  0.41651695  0.92371601  0.19902595  1
  Se  Se252  1  0.41405852  0.91468848  0.69701454  1
  Se  Se253  1  0.75263692  0.24451820  0.19446892  1
  Se  Se254  1  0.73894558  0.26615014  0.70592971  1
  Se  Se255  1  0.74848674  0.58318587  0.19667992  1
  Se  Se256  1  0.76155613  0.58543503  0.68822649  1
  Se  Se257  1  0.76072323  0.91586503  0.19159415  1
  Se  Se258  1  0.75710754  0.91686139  0.69648168  1
