# generated using pymatgen
data_In86Cu29Se144
_symmetry_space_group_name_H-M   'P 1'
_cell_length_a   17.57333823
_cell_length_b   17.57523011
_cell_length_c   23.44172345
_cell_angle_alpha   89.98094235
_cell_angle_beta   90.00307774
_cell_angle_gamma   90.02430562
_symmetry_Int_Tables_number   1
_chemical_formula_structural   In86Cu29Se144
_chemical_formula_sum   'In86 Cu29 Se144'
_cell_volume   7240.10329350
_cell_formula_units_Z   1
loop_
 _symmetry_equiv_pos_site_id
 _symmetry_equiv_pos_as_xyz
  1  'x, y, z'
loop_
 _atom_site_type_symbol
 _atom_site_label
 _atom_site_symmetry_multiplicity
 _atom_site_fract_x
 _atom_site_fract_y
 _atom_site_fract_z
 _atom_site_occupancy
  In  In0  1  0.01629379  0.18171551  0.10869099  1
  In  In1  1  -0.00323284  0.16174913  0.63440428  1
  In  In2  1  0.05291362  0.46398659  0.17121769  1
  In  In3  1  -0.00807207  0.51395562  0.63455097  1
  In  In4  1  0.00961128  0.81698690  0.12815733  1
  In  In5  1  0.00015895  0.83598426  0.62326645  1
  In  In6  1  0.33297118  0.16018447  0.12318537  1
  In  In7  1  0.31943303  0.16045724  0.62659993  1
  In  In8  1  0.34152767  0.48647038  0.14702115  1
  In  In9  1  0.33673453  0.50050167  0.61905153  1
  In  In10  1  0.33225492  0.83474252  0.12492604  1
  In  In11  1  0.34275159  0.84062026  0.61455526  1
  In  In12  1  0.65590706  0.15879482  0.11356476  1
  In  In13  1  0.67746294  0.15822010  0.63711553  1
  In  In14  1  0.65491129  0.50413605  0.12441904  1
  In  In15  1  0.67575929  0.48453661  0.63362629  1
  In  In16  1  0.66413229  0.84746872  0.12761708  1
  In  In17  1  0.67346515  0.84389258  0.61824399  1
  In  In18  1  0.16774635  -0.00877490  0.37352100  1
  In  In19  1  0.16638070  -0.00306155  0.87584822  1
  In  In20  1  0.16632912  0.33665393  0.35741093  1
  In  In21  1  0.15432716  0.33439678  0.87697204  1
  In  In22  1  0.17410992  0.67962281  0.36140621  1
  In  In23  1  0.17003335  0.66916911  0.87573636  1
  In  In24  1  0.49047085  -0.00643860  0.36515955  1
  In  In25  1  0.49670797  0.00097951  0.87710667  1
  In  In26  1  0.49067301  0.34473625  0.36461885  1
  In  In27  1  0.50611012  0.32067788  0.89179208  1
  In  In28  1  0.49699291  0.67184121  0.36919607  1
  In  In29  1  0.49483929  0.67685967  0.88621158  1
  In  In30  1  0.82624304  0.00113932  0.37582149  1
  In  In31  1  0.84561895  0.00784656  0.86367962  1
  In  In32  1  0.84547202  0.33531497  0.37495861  1
  In  In33  1  0.82492374  0.32807813  0.86923925  1
  In  In34  1  0.84096861  0.66523753  0.38540612  1
  In  In35  1  0.84124009  0.66204020  0.87109635  1
  In  In36  1  -0.00485915  0.16957577  0.37055843  1
  In  In37  1  -0.00078994  0.16274194  0.87748665  1
  In  In38  1  -0.00512697  0.49804540  0.37263787  1
  In  In39  1  0.01125677  0.49534049  0.86179073  1
  In  In40  1  0.01746758  0.83248974  0.38941214  1
  In  In41  1  0.00624368  0.84183285  0.86279738  1
  In  In42  1  0.32274207  0.16812887  0.35015594  1
  In  In43  1  0.34422367  0.15824912  0.88934021  1
  In  In44  1  0.32690441  0.50500985  0.34656628  1
  In  In45  1  0.33335625  0.50404665  0.88428786  1
  In  In46  1  0.33438277  0.83611821  0.37154053  1
  In  In47  1  0.32051411  0.84058316  0.88296773  1
  In  In48  1  0.68013709  0.15933472  0.37084244  1
  In  In49  1  0.66530816  0.16684789  0.87871950  1
  In  In50  1  0.66760760  0.51086031  0.37707853  1
  In  In51  1  0.66979890  0.49224532  0.87664046  1
  In  In52  1  0.65267227  0.83540793  0.38263924  1
  In  In53  1  0.65927857  0.83322627  0.87159626  1
  In  In54  1  0.18373499  0.01647889  0.11487921  1
  In  In55  1  0.17287123  -0.00708805  0.62976599  1
  In  In56  1  0.19454572  0.29356303  0.15857769  1
  In  In57  1  0.16375204  0.32349445  0.63010153  1
  In  In58  1  0.16170307  0.66894312  0.13135303  1
  In  In59  1  0.13411205  0.67863117  0.63339779  1
  In  In60  1  0.49904356  -0.00096136  0.12241363  1
  In  In61  1  0.51080160  -0.00538985  0.63415126  1
  In  In62  1  0.48304484  0.32748740  0.10800062  1
  In  In63  1  0.50570564  0.34369126  0.63012954  1
  In  In64  1  0.47802353  0.65122921  0.11949196  1
  In  In65  1  0.48829967  0.67221452  0.62184800  1
  In  In66  1  0.82387999  -0.00004448  0.12419527  1
  In  In67  1  0.85424393  -0.03752892  0.65960089  1
  In  In68  1  0.85176450  0.33526946  0.12233843  1
  In  In69  1  0.83314118  0.33486798  0.62909670  1
  In  In70  1  0.85246484  0.66317944  0.12744803  1
  In  In71  1  0.85012093  0.68476557  0.61313251  1
  In  In72  1  0.16570826  0.50639272  0.49952180  1
  In  In73  1  0.66000304  0.66827827  0.25476987  1
  In  In74  1  0.00613807  0.00426152  0.24998504  1
  In  In75  1  0.50129851  0.16671969  0.49913635  1
  In  In76  1  0.50146190  0.51760688  0.49262996  1
  In  In77  1  0.33417039  0.32588729  0.75787791  1
  In  In78  1  0.16261857  0.16120691  0.49909705  1
  In  In79  1  0.67209219  0.67228960  0.74802762  1
  In  In80  1  0.83393870  0.50197825  -0.00247627  1
  In  In81  1  0.17233824  0.48894097  0.01286514  1
  In  In82  1  0.66156192  0.32574600  0.24022178  1
  In  In83  1  0.83308814  0.15597211  0.50353020  1
  In  In84  1  0.83444479  0.83548816  -0.00176234  1
  In  In85  1  0.32613575  0.66628175  0.75461223  1
  Cu  Cu86  1  0.16674493  0.83286049  0.75138235  1
  Cu  Cu87  1  0.33522031  0.66946645  0.00370608  1
  Cu  Cu88  1  0.00647104  0.66175523  0.00270640  1
  Cu  Cu89  1  0.66979173  0.66452329  0.50207677  1
  Cu  Cu90  1  0.66488042  -0.00569873  0.50254740  1
  Cu  Cu91  1  0.50375815  0.16057194  0.23948779  1
  Cu  Cu92  1  -0.00104358  0.32827797  -0.00223093  1
  Cu  Cu93  1  0.33747095  -0.00485478  0.49633393  1
  Cu  Cu94  1  0.16203188  0.15784734  0.75441500  1
  Cu  Cu95  1  0.32260713  0.67557776  0.49331830  1
  Cu  Cu96  1  0.66634687  0.33353469  -0.00339868  1
  Cu  Cu97  1  0.33360691  0.33703404  0.48620893  1
  Cu  Cu98  1  0.83520422  0.16111049  0.24694081  1
  Cu  Cu99  1  0.83299632  0.83702101  0.25414175  1
  Cu  Cu100  1  0.67006432  0.33710952  0.50606292  1
  Cu  Cu101  1  0.49582661  0.84411626  0.74906991  1
  Cu  Cu102  1  0.49714380  0.83378895  0.24751460  1
  Cu  Cu103  1  0.83231358  0.50017179  0.25380495  1
  Cu  Cu104  1  0.00021976  0.34166589  0.49826081  1
  Cu  Cu105  1  0.65908124  0.67743354  0.00541848  1
  Cu  Cu106  1  0.33457980  -0.00478551  0.00128838  1
  Cu  Cu107  1  0.49861391  0.16953863  0.76122216  1
  Cu  Cu108  1  0.82993433  0.17394393  0.75527749  1
  Cu  Cu109  1  0.50648545  0.49814562  0.75762360  1
  Cu  Cu110  1  0.00100667  -0.00580990  -0.00686923  1
  Cu  Cu111  1  0.66336079  0.00246760  -0.00156335  1
  Cu  Cu112  1  0.17150035  0.83815301  0.24932797  1
  Cu  Cu113  1  0.00044980  0.67370900  0.50042333  1
  Cu  Cu114  1  0.84130715  0.50098071  0.74967458  1
  Se  Se115  1  0.08374515  0.07928247  0.04719848  1
  Se  Se116  1  0.07587685  0.07570107  0.56254477  1
  Se  Se117  1  0.06920703  0.40894075  0.06394642  1
  Se  Se118  1  0.08099573  0.41395125  0.56213484  1
  Se  Se119  1  0.09097332  0.74863667  0.05124964  1
  Se  Se120  1  0.08626239  0.75854687  0.54977092  1
  Se  Se121  1  0.41806025  0.08152074  0.05223393  1
  Se  Se122  1  0.41100715  0.07805195  0.55990279  1
  Se  Se123  1  0.40723382  0.43384676  0.05769698  1
  Se  Se124  1  0.41740095  0.41004985  0.54884153  1
  Se  Se125  1  0.41942468  0.75577898  0.05460530  1
  Se  Se126  1  0.41672831  0.74973490  0.54535615  1
  Se  Se127  1  0.75202044  0.08250509  0.04978231  1
  Se  Se128  1  0.74667560  0.06798589  0.56483604  1
  Se  Se129  1  0.74409827  0.41230577  0.06065638  1
  Se  Se130  1  0.75684164  0.41850083  0.55550662  1
  Se  Se131  1  0.74967451  0.74498881  0.06492434  1
  Se  Se132  1  0.75017784  0.75492216  0.55102786  1
  Se  Se133  1  0.24437533  0.24923369  0.06253312  1
  Se  Se134  1  0.25795976  0.25989032  0.55182339  1
  Se  Se135  1  0.25938050  0.58815493  0.06657196  1
  Se  Se136  1  0.25275746  0.59792457  0.56161763  1
  Se  Se137  1  0.24783595  0.91199759  0.05241398  1
  Se  Se138  1  0.24891855  0.91912408  0.55135381  1
  Se  Se139  1  0.58036430  0.24990365  0.04752278  1
  Se  Se140  1  0.59134778  0.25370301  0.56316704  1
  Se  Se141  1  0.57906530  0.58581368  0.05321854  1
  Se  Se142  1  0.59351154  0.58599261  0.56739089  1
  Se  Se143  1  0.58302932  0.91625786  0.05158086  1
  Se  Se144  1  0.57435617  0.91511062  0.55350511  1
  Se  Se145  1  0.91001071  0.24540001  0.04640402  1
  Se  Se146  1  0.92558062  0.25347528  0.55714333  1
  Se  Se147  1  0.93107079  0.57584070  0.06019348  1
  Se  Se148  1  0.92177064  0.58250715  0.55173627  1
  Se  Se149  1  0.92693647  0.91801991  0.06269514  1
  Se  Se150  1  0.90683364  0.91996181  0.56339284  1
  Se  Se151  1  0.08070995  0.26213892  0.43848568  1
  Se  Se152  1  0.08428168  0.24447786  0.94718251  1
  Se  Se153  1  0.07968654  0.59565411  0.43663155  1
  Se  Se154  1  0.08441220  0.57731124  0.94317573  1
  Se  Se155  1  0.08641442  0.93193550  0.45185936  1
  Se  Se156  1  0.08353596  0.90782785  0.94294946  1
  Se  Se157  1  0.41031635  0.24901571  0.43147607  1
  Se  Se158  1  0.40837685  0.25571372  0.95608788  1
  Se  Se159  1  0.39575329  0.58752742  0.43282839  1
  Se  Se160  1  0.41811699  0.58487901  0.95104726  1
  Se  Se161  1  0.42180485  0.91365486  0.44281497  1
  Se  Se162  1  0.41788380  0.91301299  0.94619905  1
  Se  Se163  1  0.74671738  0.25547273  0.44365199  1
  Se  Se164  1  0.75229406  0.25067922  0.94609772  1
  Se  Se165  1  0.75213811  0.58003731  0.44990905  1
  Se  Se166  1  0.74051561  0.59884928  0.94344807  1
  Se  Se167  1  0.74757305  0.91514039  0.44459593  1
  Se  Se168  1  0.74661663  0.92479904  0.93725138  1
  Se  Se169  1  0.26448131  0.08535170  0.43764747  1
  Se  Se170  1  0.24791742  0.07666262  0.94802606  1
  Se  Se171  1  0.25216978  0.41958779  0.43129385  1
  Se  Se172  1  0.25671031  0.40292600  0.94426298  1
  Se  Se173  1  0.24233501  0.75943277  0.43964729  1
  Se  Se174  1  0.24717226  0.74666260  0.94947222  1
  Se  Se175  1  0.59046748  0.07644602  0.43895865  1
  Se  Se176  1  0.57816722  0.08613861  0.94615151  1
  Se  Se177  1  0.58636016  0.40916970  0.44171556  1
  Se  Se178  1  0.58355427  0.42361818  0.94925851  1
  Se  Se179  1  0.57924083  0.73803779  0.44693195  1
  Se  Se180  1  0.58159930  0.76212742  0.94957433  1
  Se  Se181  1  0.92846753  0.07436966  0.44172936  1
  Se  Se182  1  0.91358123  0.07905987  0.94613860  1
  Se  Se183  1  0.91325056  0.42285998  0.44796848  1
  Se  Se184  1  0.92391428  0.41360831  0.93542177  1
  Se  Se185  1  0.91551049  0.75991590  0.44996324  1
  Se  Se186  1  0.92754883  0.74311113  0.94200470  1
  Se  Se187  1  0.25395668  0.26606534  0.28642028  1
  Se  Se188  1  0.24411500  0.23590331  0.81579349  1
  Se  Se189  1  0.23027981  0.58306868  0.29067574  1
  Se  Se190  1  0.24129075  0.56678496  0.80842129  1
  Se  Se191  1  0.25516441  0.92225580  0.30127612  1
  Se  Se192  1  0.25062624  0.91616212  0.80404130  1
  Se  Se193  1  0.57667720  0.23773601  0.30917402  1
  Se  Se194  1  0.58247587  0.25521199  0.81087164  1
  Se  Se195  1  0.56872483  0.56742939  0.30429511  1
  Se  Se196  1  0.57965164  0.58854654  0.81351402  1
  Se  Se197  1  0.58437481  0.91274676  0.30289217  1
  Se  Se198  1  0.58086261  0.92154201  0.80499133  1
  Se  Se199  1  0.91273836  0.24921884  0.30062321  1
  Se  Se200  1  0.92062291  0.25100048  0.80771025  1
  Se  Se201  1  0.91098557  0.58656041  0.30782805  1
  Se  Se202  1  0.92467848  0.58537434  0.80133479  1
  Se  Se203  1  0.91848376  0.91432878  0.31249999  1
  Se  Se204  1  0.90929032  0.90897224  0.79780047  1
  Se  Se205  1  0.09722528  0.09613532  0.30884074  1
  Se  Se206  1  0.07721837  0.07513100  0.80754763  1
  Se  Se207  1  0.07379566  0.42052159  0.29938266  1
  Se  Se208  1  0.08862080  0.40702492  0.79623670  1
  Se  Se209  1  0.07857173  0.76401662  0.30301135  1
  Se  Se210  1  0.08702132  0.74438586  0.80334353  1
  Se  Se211  1  0.41730905  0.08179043  0.29529420  1
  Se  Se212  1  0.41170668  0.08412339  0.80788318  1
  Se  Se213  1  0.40658038  0.40799595  0.29021934  1
  Se  Se214  1  0.42326358  0.41948909  0.81599461  1
  Se  Se215  1  0.41327197  0.75038199  0.30064075  1
  Se  Se216  1  0.41893598  0.75938664  0.80887557  1
  Se  Se217  1  0.75135601  0.07671390  0.29749464  1
  Se  Se218  1  0.74667146  0.08766686  0.80629942  1
  Se  Se219  1  0.74712057  0.41692276  0.30789917  1
  Se  Se220  1  0.75203075  0.42279197  0.80194107  1
  Se  Se221  1  0.75317197  0.75489886  0.31451257  1
  Se  Se222  1  0.76278592  0.76067132  0.80759112  1
  Se  Se223  1  0.25131146  0.08324245  0.19717518  1
  Se  Se224  1  0.25004351  0.07923261  0.70129035  1
  Se  Se225  1  0.20879361  0.43886263  0.18181602  1
  Se  Se226  1  0.25446277  0.41739378  0.68913618  1
  Se  Se227  1  0.25141675  0.75112573  0.19590674  1
  Se  Se228  1  0.24730129  0.75610490  0.68664182  1
  Se  Se229  1  0.59048137  0.07690507  0.19150540  1
  Se  Se230  1  0.57960904  0.08892900  0.70174197  1
  Se  Se231  1  0.56879168  0.41587440  0.18669232  1
  Se  Se232  1  0.58792360  0.41290745  0.70549300  1
  Se  Se233  1  0.57526193  0.75135237  0.18648590  1
  Se  Se234  1  0.57271825  0.75719621  0.69043945  1
  Se  Se235  1  0.91893809  0.08889891  0.18345461  1
  Se  Se236  1  0.91117934  0.08598101  0.70403298  1
  Se  Se237  1  0.91375543  0.41739479  0.19985409  1
  Se  Se238  1  0.92153124  0.41291444  0.69666966  1
  Se  Se239  1  0.91476293  0.75486988  0.20032762  1
  Se  Se240  1  0.93131116  0.74084181  0.69269390  1
  Se  Se241  1  0.06648733  0.24708556  0.19889865  1
  Se  Se242  1  0.08293411  0.24477389  0.70027467  1
  Se  Se243  1  0.04609474  0.61041656  0.18499760  1
  Se  Se244  1  0.10224801  0.56589003  0.69655074  1
  Se  Se245  1  0.09357380  0.91715327  0.18606228  1
  Se  Se246  1  0.08340553  0.91569668  0.69652743  1
  Se  Se247  1  0.42183994  0.24633034  0.18868656  1
  Se  Se248  1  0.42329339  0.24097897  0.68887317  1
  Se  Se249  1  0.41072479  0.59032862  0.20495749  1
  Se  Se250  1  0.42497196  0.57417554  0.69622209  1
  Se  Se251  1  0.41598359  0.91900794  0.19335036  1
  Se  Se252  1  0.40856304  0.92068765  0.69368389  1
  Se  Se253  1  0.75782615  0.24082119  0.18289713  1
  Se  Se254  1  0.74814916  0.25714310  0.69953219  1
  Se  Se255  1  0.75353017  0.57900825  0.19249218  1
  Se  Se256  1  0.76307325  0.58362278  0.68804503  1
  Se  Se257  1  0.75109926  0.91835376  0.19950239  1
  Se  Se258  1  0.72433155  0.92511717  0.70099567  1
