# generated using pymatgen
data_In86Cu29Se144
_symmetry_space_group_name_H-M   'P 1'
_cell_length_a   17.59583739
_cell_length_b   17.59687603
_cell_length_c   23.44842192
_cell_angle_alpha   89.99487245
_cell_angle_beta   89.99963473
_cell_angle_gamma   89.98395155
_symmetry_Int_Tables_number   1
_chemical_formula_structural   In86Cu29Se144
_chemical_formula_sum   'In86 Cu29 Se144'
_cell_volume   7260.37605051
_cell_formula_units_Z   1
loop_
 _symmetry_equiv_pos_site_id
 _symmetry_equiv_pos_as_xyz
  1  'x, y, z'
loop_
 _atom_site_type_symbol
 _atom_site_label
 _atom_site_symmetry_multiplicity
 _atom_site_fract_x
 _atom_site_fract_y
 _atom_site_fract_z
 _atom_site_occupancy
  In  In0  1  0.00650497  0.15608919  0.13459255  1
  In  In1  1  -0.00604225  0.17300858  0.61955198  1
  In  In2  1  -0.01405461  0.50036890  0.12044906  1
  In  In3  1  -0.00534165  0.50385473  0.62757719  1
  In  In4  1  0.01154998  0.84907780  0.11805795  1
  In  In5  1  0.00452340  0.82454045  0.63723656  1
  In  In6  1  0.32892462  0.16965552  0.11295701  1
  In  In7  1  0.33841339  0.18007763  0.61274223  1
  In  In8  1  0.34428927  0.48843936  0.12018066  1
  In  In9  1  0.33796914  0.49323657  0.63763572  1
  In  In10  1  0.33034327  0.83530556  0.11759117  1
  In  In11  1  0.32434354  0.82630814  0.62272648  1
  In  In12  1  0.66832969  0.17419082  0.12265817  1
  In  In13  1  0.66587029  0.17102632  0.62365499  1
  In  In14  1  0.66402403  0.49558551  0.11191039  1
  In  In15  1  0.68110634  0.48665958  0.63458464  1
  In  In16  1  0.65542368  0.84044022  0.12088366  1
  In  In17  1  0.66143080  0.84248727  0.63806035  1
  In  In18  1  0.16321966  0.00604406  0.38314126  1
  In  In19  1  0.16000690  0.00868381  0.87727103  1
  In  In20  1  0.15663871  0.33700812  0.37974034  1
  In  In21  1  0.15686686  0.32524463  0.86602784  1
  In  In22  1  0.17200576  0.67181217  0.37934854  1
  In  In23  1  0.17703511  0.67196447  0.87052978  1
  In  In24  1  0.49822746  0.00071796  0.38390385  1
  In  In25  1  0.49969809  -0.00340152  0.87707337  1
  In  In26  1  0.49324589  0.32656569  0.37774589  1
  In  In27  1  0.50031877  0.33334666  0.87045299  1
  In  In28  1  0.51204283  0.66233415  0.38059022  1
  In  In29  1  0.49992620  0.66622767  0.87132574  1
  In  In30  1  0.84942714  -0.00054667  0.37406207  1
  In  In31  1  0.83442107  -0.00433764  0.85434378  1
  In  In32  1  0.87190029  0.29828761  0.42530023  1
  In  In33  1  0.83855550  0.34003471  0.86742527  1
  In  In34  1  0.82770346  0.66304764  0.38507830  1
  In  In35  1  0.82106001  0.66383769  0.85864616  1
  In  In36  1  0.00942033  0.16311777  0.38471290  1
  In  In37  1  0.00101882  0.16828157  0.86590039  1
  In  In38  1  0.00311772  0.48467534  0.38150060  1
  In  In39  1  -0.01023023  0.49172375  0.86984446  1
  In  In40  1  0.00305055  0.84792815  0.37494811  1
  In  In41  1  0.00714559  0.84311703  0.86514584  1
  In  In42  1  0.33279405  0.17148478  0.39489748  1
  In  In43  1  0.32635140  0.17898693  0.88129646  1
  In  In44  1  0.33386116  0.49542474  0.37262528  1
  In  In45  1  0.33999929  0.50519433  0.86843156  1
  In  In46  1  0.33045537  0.83790056  0.38688368  1
  In  In47  1  0.33968099  0.82419862  0.88226602  1
  In  In48  1  0.66834226  0.18007286  0.39510893  1
  In  In49  1  0.65358510  0.15796341  0.86283354  1
  In  In50  1  0.67821919  0.50176193  0.37832743  1
  In  In51  1  0.66629148  0.49955071  0.86997645  1
  In  In52  1  0.66139432  0.82217700  0.38397603  1
  In  In53  1  0.65818098  0.82434404  0.85786681  1
  In  In54  1  0.15996960  -0.00068086  0.11705919  1
  In  In55  1  0.15952785  -0.00401500  0.61862316  1
  In  In56  1  0.16471196  0.31621431  0.12369034  1
  In  In57  1  0.16930606  0.32695532  0.62555110  1
  In  In58  1  0.16208748  0.67904698  0.12009242  1
  In  In59  1  0.16201777  0.67046299  0.63458864  1
  In  In60  1  0.49411853  -0.00264778  0.11284617  1
  In  In61  1  0.51323996  0.00879020  0.62338932  1
  In  In62  1  0.49725450  0.33431111  0.10551621  1
  In  In63  1  0.50541141  0.32817005  0.62812678  1
  In  In64  1  0.49620105  0.66230063  0.11365532  1
  In  In65  1  0.48963966  0.67266931  0.63577921  1
  In  In66  1  0.84500091  0.01307413  0.12793517  1
  In  In67  1  0.82245011  0.00315454  0.64024424  1
  In  In68  1  0.83224959  0.34240269  0.12339221  1
  In  In69  1  0.83156019  0.33567904  0.61739167  1
  In  In70  1  0.83694550  0.65231660  0.11963171  1
  In  In71  1  0.84303237  0.66096467  0.63795216  1
  In  In72  1  0.33128512  0.00393150  0.74815709  1
  In  In73  1  0.82484594  0.82463334  -0.01283371  1
  In  In74  1  0.67093433  0.33945638  0.25142429  1
  In  In75  1  0.33265191  0.32926844  0.24923455  1
  In  In76  1  0.50656697  0.49429930  0.50846020  1
  In  In77  1  0.83331374  0.83444191  0.50736626  1
  In  In78  1  0.33424185  0.67020047  0.23777951  1
  In  In79  1  0.67012941  0.66358137  0.25783482  1
  In  In80  1  0.67152983  0.00229931  0.25543530  1
  In  In81  1  0.32716914  0.00121212  0.25463788  1
  In  In82  1  0.16686584  0.49424440  0.50799839  1
  In  In83  1  0.17109719  0.49847070  -0.00518485  1
  In  In84  1  -0.00136589  0.66940381  0.24984640  1
  In  In85  1  0.83126706  0.16987323  -0.00145995  1
  Cu  Cu86  1  0.83488099  0.17743452  0.74431637  1
  Cu  Cu87  1  0.17182575  0.83080798  0.74988923  1
  Cu  Cu88  1  -0.00062015  -0.00119946  0.50424690  1
  Cu  Cu89  1  0.84425145  0.17385821  0.26496953  1
  Cu  Cu90  1  0.66703087  -0.00158569  0.50859723  1
  Cu  Cu91  1  0.33535418  0.66869421  0.50477784  1
  Cu  Cu92  1  -0.00236634  0.66594659  -0.00299354  1
  Cu  Cu93  1  0.00361521  0.66908183  0.51079228  1
  Cu  Cu94  1  0.49600824  0.82675864  0.25193822  1
  Cu  Cu95  1  0.49759342  0.83607335  0.75357799  1
  Cu  Cu96  1  0.83983275  0.49114146  0.25185835  1
  Cu  Cu97  1  0.16143687  0.49793495  0.25029547  1
  Cu  Cu98  1  0.84196592  0.83617607  0.24688434  1
  Cu  Cu99  1  0.49917125  0.16368198  0.24845774  1
  Cu  Cu100  1  0.33412755  0.66978733  -0.00520249  1
  Cu  Cu101  1  0.66249199  -0.00545261  -0.00741164  1
  Cu  Cu102  1  0.33976474  -0.00567776  0.50801852  1
  Cu  Cu103  1  0.83032082  0.49552608  0.74691896  1
  Cu  Cu104  1  0.66398637  0.33331058  -0.00811920  1
  Cu  Cu105  1  -0.00154914  -0.00031033  -0.00668967  1
  Cu  Cu106  1  0.49884038  0.17266418  0.74470814  1
  Cu  Cu107  1  0.50274991  0.50250404  0.75176468  1
  Cu  Cu108  1  0.65971557  0.67029510  0.51084389  1
  Cu  Cu109  1  0.16010910  0.16653222  0.25397700  1
  Cu  Cu110  1  0.16207649  0.16483134  0.74677096  1
  Cu  Cu111  1  0.66408518  0.66705429  -0.01189438  1
  Cu  Cu112  1  0.15960404  0.49897476  0.75085870  1
  Cu  Cu113  1  0.33095336  0.00374462  -0.00548207  1
  Cu  Cu114  1  0.00151382  0.32872716  -0.00797899  1
  Se  Se115  1  0.07503792  0.08495607  0.05188335  1
  Se  Se116  1  0.08091896  0.08731039  0.55395539  1
  Se  Se117  1  0.07748138  0.41105664  0.05681702  1
  Se  Se118  1  0.06984347  0.40704321  0.55946003  1
  Se  Se119  1  0.07716818  0.75258092  0.04946923  1
  Se  Se120  1  0.08702177  0.75329930  0.56060657  1
  Se  Se121  1  0.41588036  0.08620923  0.04873740  1
  Se  Se122  1  0.42129147  0.08260926  0.55618742  1
  Se  Se123  1  0.42024265  0.42437435  0.04158681  1
  Se  Se124  1  0.40692493  0.40919629  0.56005313  1
  Se  Se125  1  0.41641229  0.75345869  0.05135128  1
  Se  Se126  1  0.41972474  0.75098216  0.55700413  1
  Se  Se127  1  0.74158944  0.07105059  0.05627764  1
  Se  Se128  1  0.75211389  0.07892220  0.56117334  1
  Se  Se129  1  0.75091749  0.41239040  0.04771375  1
  Se  Se130  1  0.75099166  0.42548893  0.55109408  1
  Se  Se131  1  0.73928534  0.74066430  0.05924307  1
  Se  Se132  1  0.74531549  0.74656997  0.56904902  1
  Se  Se133  1  0.25824995  0.26611729  0.04975057  1
  Se  Se134  1  0.23854841  0.24667414  0.54841539  1
  Se  Se135  1  0.25709035  0.59106643  0.06036922  1
  Se  Se136  1  0.25818879  0.58645218  0.56508214  1
  Se  Se137  1  0.24925638  0.92102547  0.05140891  1
  Se  Se138  1  0.24828195  0.91318207  0.55379165  1
  Se  Se139  1  0.58843075  0.24585828  0.04832848  1
  Se  Se140  1  0.57343106  0.24277547  0.55473144  1
  Se  Se141  1  0.58380486  0.58401475  0.04723108  1
  Se  Se142  1  0.58625166  0.58701270  0.57216308  1
  Se  Se143  1  0.57743385  0.91252807  0.04591886  1
  Se  Se144  1  0.58488378  0.91095593  0.55779471  1
  Se  Se145  1  0.92497543  0.25226656  0.06041255  1
  Se  Se146  1  0.90942002  0.24933627  0.54606808  1
  Se  Se147  1  0.91307883  0.57862058  0.04366732  1
  Se  Se148  1  0.91373067  0.58788876  0.55698114  1
  Se  Se149  1  0.91016489  0.92198754  0.04948920  1
  Se  Se150  1  0.92177971  0.92124856  0.56868421  1
  Se  Se151  1  0.09327289  0.24793651  0.45128559  1
  Se  Se152  1  0.08220047  0.24303125  0.94128506  1
  Se  Se153  1  0.07989263  0.58978108  0.44502033  1
  Se  Se154  1  0.07786707  0.58644804  0.93590781  1
  Se  Se155  1  0.08381100  0.91593258  0.45103915  1
  Se  Se156  1  0.08369533  0.91495937  0.94412222  1
  Se  Se157  1  0.43012068  0.24509602  0.45443688  1
  Se  Se158  1  0.43206591  0.24134917  0.94083195  1
  Se  Se159  1  0.41120205  0.58475676  0.44460198  1
  Se  Se160  1  0.41652304  0.58542929  0.94257003  1
  Se  Se161  1  0.42290130  0.91217595  0.45185914  1
  Se  Se162  1  0.41592599  0.91722792  0.94683351  1
  Se  Se163  1  0.74372078  0.25589225  0.46861945  1
  Se  Se164  1  0.74360893  0.25169006  0.93215212  1
  Se  Se165  1  0.74169261  0.58991658  0.45447495  1
  Se  Se166  1  0.75081741  0.58638926  0.93743413  1
  Se  Se167  1  0.74529560  0.92330178  0.44104817  1
  Se  Se168  1  0.74360173  0.92261007  0.92980212  1
  Se  Se169  1  0.25461041  0.07520916  0.45295668  1
  Se  Se170  1  0.24532393  0.08802306  0.94550321  1
  Se  Se171  1  0.26058067  0.40974753  0.44425130  1
  Se  Se172  1  0.25200229  0.41061476  0.93033350  1
  Se  Se173  1  0.24814535  0.74997681  0.45238378  1
  Se  Se174  1  0.24398040  0.75213156  0.94936881  1
  Se  Se175  1  0.58703184  0.07957842  0.44919745  1
  Se  Se176  1  0.58254869  0.08482536  0.94339258  1
  Se  Se177  1  0.59012974  0.41096472  0.43999604  1
  Se  Se178  1  0.58291290  0.41909793  0.94008840  1
  Se  Se179  1  0.57631496  0.75036394  0.45552370  1
  Se  Se180  1  0.58367810  0.75504808  0.93802970  1
  Se  Se181  1  0.91610699  0.08079633  0.44971091  1
  Se  Se182  1  0.91391602  0.07667295  0.93542174  1
  Se  Se183  1  0.90031547  0.43920382  0.44952429  1
  Se  Se184  1  0.91429993  0.41363800  0.94617567  1
  Se  Se185  1  0.92715842  0.74716277  0.44381041  1
  Se  Se186  1  0.92250805  0.74273460  0.93004880  1
  Se  Se187  1  0.24699113  0.24081528  0.31337150  1
  Se  Se188  1  0.24783163  0.24523530  0.80068014  1
  Se  Se189  1  0.24437669  0.57926732  0.30473157  1
  Se  Se190  1  0.24773362  0.58019939  0.80171446  1
  Se  Se191  1  0.24145652  0.90821790  0.31295162  1
  Se  Se192  1  0.24895463  0.91246216  0.81287378  1
  Se  Se193  1  0.58236090  0.24008814  0.30833840  1
  Se  Se194  1  0.58458714  0.25558744  0.79734830  1
  Se  Se195  1  0.57608201  0.56752097  0.30704660  1
  Se  Se196  1  0.58667528  0.58803242  0.80184697  1
  Se  Se197  1  0.57842898  0.90656497  0.31003530  1
  Se  Se198  1  0.58011968  0.92563246  0.80046747  1
  Se  Se199  1  0.92048358  0.25521174  0.32422633  1
  Se  Se200  1  0.92036714  0.25556711  0.79980618  1
  Se  Se201  1  0.91035825  0.58045636  0.31166342  1
  Se  Se202  1  0.91417555  0.57930304  0.79985402  1
  Se  Se203  1  0.92349988  0.92026583  0.29914186  1
  Se  Se204  1  0.93177861  0.92526927  0.79339617  1
  Se  Se205  1  0.08237946  0.08020512  0.30860971  1
  Se  Se206  1  0.08132981  0.07898284  0.79933310  1
  Se  Se207  1  0.08154933  0.41393072  0.30373010  1
  Se  Se208  1  0.07521840  0.41278320  0.80077231  1
  Se  Se209  1  0.09039281  0.75621866  0.30865538  1
  Se  Se210  1  0.08705110  0.74835832  0.80313421  1
  Se  Se211  1  0.41940614  0.09257220  0.31273842  1
  Se  Se212  1  0.42011134  0.09298194  0.80815946  1
  Se  Se213  1  0.42778965  0.42219007  0.30331174  1
  Se  Se214  1  0.41730106  0.41645983  0.80061229  1
  Se  Se215  1  0.41876723  0.74903198  0.31412679  1
  Se  Se216  1  0.41376100  0.75088231  0.80412865  1
  Se  Se217  1  0.75416828  0.09535261  0.31793532  1
  Se  Se218  1  0.75257176  0.09129969  0.79689519  1
  Se  Se219  1  0.76501875  0.41350785  0.31590622  1
  Se  Se220  1  0.74580579  0.41325505  0.80027774  1
  Se  Se221  1  0.76328891  0.76231486  0.31013287  1
  Se  Se222  1  0.76588392  0.77183626  0.79446127  1
  Se  Se223  1  0.24481922  0.09421883  0.19097811  1
  Se  Se224  1  0.24546039  0.09067419  0.68392967  1
  Se  Se225  1  0.24239251  0.42234337  0.18877976  1
  Se  Se226  1  0.24268446  0.41443574  0.69768741  1
  Se  Se227  1  0.23707746  0.76703028  0.19320778  1
  Se  Se228  1  0.25645323  0.74573854  0.70052776  1
  Se  Se229  1  0.57906828  0.08395448  0.18892655  1
  Se  Se230  1  0.58737180  0.08749881  0.69844081  1
  Se  Se231  1  0.57900954  0.41469345  0.18378404  1
  Se  Se232  1  0.58159565  0.41585176  0.69704776  1
  Se  Se233  1  0.57862696  0.74983437  0.19221697  1
  Se  Se234  1  0.58086816  0.75039530  0.70181300  1
  Se  Se235  1  0.91652955  0.08578316  0.20642083  1
  Se  Se236  1  0.91806367  0.09024635  0.69426064  1
  Se  Se237  1  0.92182720  0.41186275  0.19525334  1
  Se  Se238  1  0.91358891  0.41380082  0.69185061  1
  Se  Se239  1  0.91205425  0.75526834  0.18190381  1
  Se  Se240  1  0.91395191  0.75363099  0.70463878  1
  Se  Se241  1  0.07957260  0.25204173  0.20039714  1
  Se  Se242  1  0.07971655  0.24917986  0.69261879  1
  Se  Se243  1  0.08810743  0.57875467  0.18730042  1
  Se  Se244  1  0.07747212  0.58408551  0.69796938  1
  Se  Se245  1  0.07987393  0.92848463  0.19293246  1
  Se  Se246  1  0.09124770  0.91664563  0.69736923  1
  Se  Se247  1  0.42426933  0.24382848  0.18653887  1
  Se  Se248  1  0.41029108  0.25198407  0.69372492  1
  Se  Se249  1  0.42895743  0.57341319  0.19158775  1
  Se  Se250  1  0.41226961  0.58456415  0.70385042  1
  Se  Se251  1  0.42165208  0.91249150  0.19283252  1
  Se  Se252  1  0.42079418  0.91411709  0.68791043  1
  Se  Se253  1  0.76388981  0.24121575  0.19561731  1
  Se  Se254  1  0.74859201  0.25716942  0.69036471  1
  Se  Se255  1  0.75516953  0.56993691  0.19310251  1
  Se  Se256  1  0.74564529  0.58628064  0.70083528  1
  Se  Se257  1  0.75725776  0.91128974  0.18812470  1
  Se  Se258  1  0.75749998  0.90557953  0.70739744  1
