# generated using pymatgen
data_In86Cu29Se144
_symmetry_space_group_name_H-M   'P 1'
_cell_length_a   17.58639884
_cell_length_b   17.58513341
_cell_length_c   23.43691077
_cell_angle_alpha   90.02402148
_cell_angle_beta   90.01762262
_cell_angle_gamma   90.01700335
_symmetry_Int_Tables_number   1
_chemical_formula_structural   In86Cu29Se144
_chemical_formula_sum   'In86 Cu29 Se144'
_cell_volume   7248.07826512
_cell_formula_units_Z   1
loop_
 _symmetry_equiv_pos_site_id
 _symmetry_equiv_pos_as_xyz
  1  'x, y, z'
loop_
 _atom_site_type_symbol
 _atom_site_label
 _atom_site_symmetry_multiplicity
 _atom_site_fract_x
 _atom_site_fract_y
 _atom_site_fract_z
 _atom_site_occupancy
  In  In0  1  -0.00363879  0.16749962  0.13098550  1
  In  In1  1  0.01320608  0.16782111  0.62104444  1
  In  In2  1  -0.00656396  0.48843728  0.12521769  1
  In  In3  1  -0.01369724  0.51108282  0.63835267  1
  In  In4  1  0.00872529  0.84411473  0.12091764  1
  In  In5  1  0.00193731  0.83042185  0.62215022  1
  In  In6  1  0.34770906  0.16324385  0.13990990  1
  In  In7  1  0.34000354  0.16698543  0.61449102  1
  In  In8  1  0.34157720  0.49568634  0.13437397  1
  In  In9  1  0.32104142  0.49361793  0.62623956  1
  In  In10  1  0.33538294  0.83670993  0.12847039  1
  In  In11  1  0.34253681  0.85036980  0.60272289  1
  In  In12  1  0.64836447  0.14670365  0.11816280  1
  In  In13  1  0.65082860  0.16286634  0.62265485  1
  In  In14  1  0.67157514  0.51522438  0.12327094  1
  In  In15  1  0.68421571  0.50526218  0.62560408  1
  In  In16  1  0.66764712  0.84062266  0.12658449  1
  In  In17  1  0.66500566  0.83478277  0.63656008  1
  In  In18  1  0.17096789  0.00258962  0.37852071  1
  In  In19  1  0.15693165  -0.00713105  0.87857373  1
  In  In20  1  0.15950775  0.32107038  0.37127445  1
  In  In21  1  0.16979086  0.33249182  0.86967303  1
  In  In22  1  0.18184766  0.66594470  0.37169512  1
  In  In23  1  0.15893218  0.67866557  0.87377572  1
  In  In24  1  0.49371989  -0.00338794  0.37799714  1
  In  In25  1  0.50766439  -0.01194197  0.88721071  1
  In  In26  1  0.48292634  0.32476579  0.37102067  1
  In  In27  1  0.49235918  0.32771275  0.87612614  1
  In  In28  1  0.51071679  0.68454198  0.36763641  1
  In  In29  1  0.50885660  0.67195918  0.87882499  1
  In  In30  1  0.83153272  -0.00668857  0.35621131  1
  In  In31  1  0.82176465  0.00983854  0.88320972  1
  In  In32  1  0.84679174  0.33294502  0.37727378  1
  In  In33  1  0.83112020  0.32573948  0.87391280  1
  In  In34  1  0.82170851  0.67422127  0.37514546  1
  In  In35  1  0.83934553  0.67250122  0.87145691  1
  In  In36  1  0.00526662  0.16606340  0.37249376  1
  In  In37  1  -0.01215652  0.16072832  0.87512361  1
  In  In38  1  0.00288274  0.48662568  0.37879799  1
  In  In39  1  -0.00849181  0.49945602  0.86152577  1
  In  In40  1  0.00509737  0.86163541  0.37064493  1
  In  In41  1  0.00258974  0.82547771  0.87885293  1
  In  In42  1  0.32923557  0.15883681  0.37784081  1
  In  In43  1  0.34063434  0.17762093  0.87944552  1
  In  In44  1  0.32770056  0.49777115  0.36326438  1
  In  In45  1  0.34173064  0.48595468  0.87281201  1
  In  In46  1  0.33824095  0.84039697  0.37557028  1
  In  In47  1  0.33038537  0.83376129  0.88817203  1
  In  In48  1  0.65846552  0.14919831  0.37041874  1
  In  In49  1  0.67210844  0.15794904  0.88267329  1
  In  In50  1  0.66755713  0.51686831  0.37771576  1
  In  In51  1  0.67219948  0.51055640  0.86715939  1
  In  In52  1  0.66526611  0.82436155  0.36448200  1
  In  In53  1  0.66390864  0.83518473  0.87993469  1
  In  In54  1  0.17806223  -0.00524382  0.13538512  1
  In  In55  1  0.17679264  0.01249160  0.59250021  1
  In  In56  1  0.17608584  0.32031701  0.13525258  1
  In  In57  1  0.17193036  0.32895978  0.63051084  1
  In  In58  1  0.16824400  0.68350680  0.12526276  1
  In  In59  1  0.16075320  0.66778944  0.62391809  1
  In  In60  1  0.50384226  0.00249664  0.13174434  1
  In  In61  1  0.50640813  0.00426135  0.61788802  1
  In  In62  1  0.49652381  0.32274532  0.12391692  1
  In  In63  1  0.49794240  0.31404021  0.62488437  1
  In  In64  1  0.49771909  0.67606919  0.12846084  1
  In  In65  1  0.50226496  0.68256386  0.62829804  1
  In  In66  1  0.82868794  -0.00377923  0.12781089  1
  In  In67  1  0.82924432  -0.01287514  0.62590993  1
  In  In68  1  0.84773382  0.33151377  0.12504595  1
  In  In69  1  0.83006747  0.34976292  0.62617009  1
  In  In70  1  0.81306281  0.68055466  0.13066242  1
  In  In71  1  0.83870370  0.66225470  0.63984587  1
  In  In72  1  0.83668308  0.83368446  0.49841307  1
  In  In73  1  0.33317360  0.00227841  0.74187648  1
  In  In74  1  0.17543789  0.15698668  0.00985106  1
  In  In75  1  0.50417989  0.49937997  -0.00197214  1
  In  In76  1  0.32759685  0.66409328  0.74615962  1
  In  In77  1  0.50098498  0.50145004  0.49533093  1
  In  In78  1  0.66614347  0.33643934  0.75414428  1
  In  In79  1  0.83500912  0.50427780  -0.00784791  1
  In  In80  1  -0.00140166  -0.00418990  0.74120326  1
  In  In81  1  0.16317464  0.50034264  0.50417808  1
  In  In82  1  0.16775030  0.50041890  -0.00935269  1
  In  In83  1  0.83241552  0.16407804  0.48716779  1
  In  In84  1  0.66769062  0.33149376  0.24523381  1
  In  In85  1  0.00074746  0.66487027  0.24524177  1
  Cu  Cu86  1  -0.00501656  -0.00784321  0.00027628  1
  Cu  Cu87  1  0.50412960  0.50770711  0.25263312  1
  Cu  Cu88  1  0.83488858  0.16611498  0.24773525  1
  Cu  Cu89  1  0.50145526  0.49452023  0.75245626  1
  Cu  Cu90  1  -0.01025749  0.67261659  0.00264377  1
  Cu  Cu91  1  -0.00197969  0.67095102  0.50457171  1
  Cu  Cu92  1  0.67204272  0.66983207  0.49903919  1
  Cu  Cu93  1  0.66244265  0.33237950  0.50382263  1
  Cu  Cu94  1  0.83651763  0.49721771  0.24852893  1
  Cu  Cu95  1  0.33033128  0.66905287  0.00633955  1
  Cu  Cu96  1  0.16564423  0.16322043  0.25482362  1
  Cu  Cu97  1  0.66536635  -0.00201291  0.00586702  1
  Cu  Cu98  1  0.00858239  0.32280079  0.00248278  1
  Cu  Cu99  1  0.49909693  0.83882159  0.24964182  1
  Cu  Cu100  1  0.83124091  0.17080457  0.75327773  1
  Cu  Cu101  1  0.33036750  0.32745869  0.49804113  1
  Cu  Cu102  1  0.67174903  0.32929983  -0.00081423  1
  Cu  Cu103  1  0.49454416  0.15787658  0.74572101  1
  Cu  Cu104  1  0.17147487  0.83601684  0.25203412  1
  Cu  Cu105  1  0.34365340  0.67476755  0.49243018  1
  Cu  Cu106  1  0.66299436  -0.00484456  0.49800178  1
  Cu  Cu107  1  0.16323029  0.49496712  0.74922974  1
  Cu  Cu108  1  0.33435493  -0.00166788  0.01212271  1
  Cu  Cu109  1  0.16689324  0.49507531  0.25194750  1
  Cu  Cu110  1  0.16763690  0.17207144  0.74714429  1
  Cu  Cu111  1  -0.00634716  0.33748891  0.50318017  1
  Cu  Cu112  1  0.16590700  0.83369413  0.74487912  1
  Cu  Cu113  1  0.50615243  0.83392873  0.75675805  1
  Cu  Cu114  1  0.83008488  0.83745611  0.75602348  1
  Se  Se115  1  0.07712388  0.07005654  0.06287023  1
  Se  Se116  1  0.07369796  0.08970078  0.54167313  1
  Se  Se117  1  0.08690320  0.40731922  0.05895056  1
  Se  Se118  1  0.07367548  0.41484477  0.56636150  1
  Se  Se119  1  0.08170914  0.75085725  0.05211757  1
  Se  Se120  1  0.08717093  0.75242584  0.55208989  1
  Se  Se121  1  0.41703342  0.08452357  0.06160079  1
  Se  Se122  1  0.39896675  0.05897618  0.55581337  1
  Se  Se123  1  0.41112287  0.41215025  0.05514847  1
  Se  Se124  1  0.41057768  0.41057062  0.55710689  1
  Se  Se125  1  0.41467236  0.75265381  0.05658782  1
  Se  Se126  1  0.42775479  0.75213572  0.54916341  1
  Se  Se127  1  0.75217444  0.08312247  0.05533420  1
  Se  Se128  1  0.74586152  0.07733361  0.55600982  1
  Se  Se129  1  0.74832072  0.41357993  0.05854452  1
  Se  Se130  1  0.74825053  0.41876709  0.54950020  1
  Se  Se131  1  0.74458363  0.75579508  0.05412685  1
  Se  Se132  1  0.75048229  0.74690521  0.56393512  1
  Se  Se133  1  0.26510937  0.25173238  0.06165486  1
  Se  Se134  1  0.24503135  0.25021074  0.55472415  1
  Se  Se135  1  0.25277435  0.58275902  0.06225184  1
  Se  Se136  1  0.26320390  0.59523365  0.55402527  1
  Se  Se137  1  0.24593072  0.91366492  0.05782990  1
  Se  Se138  1  0.24052117  0.90547730  0.53667158  1
  Se  Se139  1  0.58582269  0.25162103  0.05398380  1
  Se  Se140  1  0.57763092  0.24441552  0.54799012  1
  Se  Se141  1  0.58836359  0.59716489  0.05348087  1
  Se  Se142  1  0.58842701  0.59043932  0.55908395  1
  Se  Se143  1  0.57724431  0.91840387  0.05779697  1
  Se  Se144  1  0.59074836  0.91037992  0.55890074  1
  Se  Se145  1  0.92003618  0.24434440  0.05363494  1
  Se  Se146  1  0.91094388  0.25277014  0.55871379  1
  Se  Se147  1  0.91676673  0.58924777  0.06402845  1
  Se  Se148  1  0.91630605  0.59075784  0.56080790  1
  Se  Se149  1  0.91033393  0.91352925  0.05610955  1
  Se  Se150  1  0.92771139  0.92862337  0.55400928  1
  Se  Se151  1  0.07346362  0.25525549  0.44674456  1
  Se  Se152  1  0.08712115  0.24320825  0.94131605  1
  Se  Se153  1  0.07821543  0.59230995  0.44092328  1
  Se  Se154  1  0.06664501  0.58987966  0.94031698  1
  Se  Se155  1  0.09545130  0.90920150  0.44694785  1
  Se  Se156  1  0.08278183  0.91030177  0.94966473  1
  Se  Se157  1  0.41536007  0.24433293  0.44758639  1
  Se  Se158  1  0.42867564  0.24346892  0.95143589  1
  Se  Se159  1  0.41352943  0.58785807  0.43166650  1
  Se  Se160  1  0.40488935  0.58950530  0.94082243  1
  Se  Se161  1  0.42944885  0.90298789  0.44907117  1
  Se  Se162  1  0.41495783  0.91511639  0.95427093  1
  Se  Se163  1  0.73699242  0.25676992  0.43417270  1
  Se  Se164  1  0.75645229  0.24620016  0.94741099  1
  Se  Se165  1  0.75700997  0.58502152  0.45002933  1
  Se  Se166  1  0.74000579  0.59763211  0.94280160  1
  Se  Se167  1  0.74628523  0.92110685  0.43694386  1
  Se  Se168  1  0.74875544  0.91748155  0.94945530  1
  Se  Se169  1  0.23157151  0.10038777  0.44858228  1
  Se  Se170  1  0.25977551  0.07044371  0.94015787  1
  Se  Se171  1  0.25242064  0.41305440  0.44099321  1
  Se  Se172  1  0.26201517  0.40094987  0.94545991  1
  Se  Se173  1  0.25246837  0.75178790  0.44260272  1
  Se  Se174  1  0.24323684  0.74581730  0.94931408  1
  Se  Se175  1  0.57984983  0.08158148  0.44817362  1
  Se  Se176  1  0.58290889  0.08340977  0.95116091  1
  Se  Se177  1  0.58755605  0.40914660  0.43486811  1
  Se  Se178  1  0.59787916  0.41123729  0.93550247  1
  Se  Se179  1  0.59061183  0.75342920  0.44535037  1
  Se  Se180  1  0.56820105  0.76617646  0.94783270  1
  Se  Se181  1  0.91809212  0.06750057  0.43278826  1
  Se  Se182  1  0.91589895  0.08301519  0.95069384  1
  Se  Se183  1  0.91134193  0.42268185  0.45180503  1
  Se  Se184  1  0.93018917  0.40651734  0.94202320  1
  Se  Se185  1  0.92799303  0.74845296  0.43550954  1
  Se  Se186  1  0.90913554  0.75563990  0.94764710  1
  Se  Se187  1  0.25192184  0.24789341  0.30597596  1
  Se  Se188  1  0.25397949  0.24561118  0.80517296  1
  Se  Se189  1  0.25135223  0.58609636  0.29497873  1
  Se  Se190  1  0.24255528  0.57456508  0.81330549  1
  Se  Se191  1  0.25246969  0.92061081  0.30677093  1
  Se  Se192  1  0.24606579  0.91105386  0.80730219  1
  Se  Se193  1  0.57720951  0.24440269  0.30549300  1
  Se  Se194  1  0.57759810  0.23780956  0.80720811  1
  Se  Se195  1  0.58930265  0.59075958  0.30306960  1
  Se  Se196  1  0.57637087  0.58472923  0.80429022  1
  Se  Se197  1  0.58218305  0.91894360  0.30671681  1
  Se  Se198  1  0.58601440  0.92207417  0.80757108  1
  Se  Se199  1  0.91677729  0.24757432  0.30467697  1
  Se  Se200  1  0.91894886  0.25023464  0.80380104  1
  Se  Se201  1  0.91551578  0.57666892  0.31154423  1
  Se  Se202  1  0.91776578  0.59285667  0.79960584  1
  Se  Se203  1  0.90524607  0.89565026  0.29611751  1
  Se  Se204  1  0.91359043  0.91896484  0.81354739  1
  Se  Se205  1  0.08202816  0.07681371  0.30544678  1
  Se  Se206  1  0.08932078  0.08723998  0.80523219  1
  Se  Se207  1  0.08227560  0.41334544  0.30443781  1
  Se  Se208  1  0.08185775  0.41152317  0.80357879  1
  Se  Se209  1  0.08847923  0.75295447  0.30927479  1
  Se  Se210  1  0.08061851  0.75439056  0.79900963  1
  Se  Se211  1  0.41585492  0.08217553  0.30893884  1
  Se  Se212  1  0.42019725  0.08038015  0.81243579  1
  Se  Se213  1  0.42064379  0.41974979  0.30034664  1
  Se  Se214  1  0.41816969  0.40676113  0.79964754  1
  Se  Se215  1  0.41443835  0.75375187  0.30229543  1
  Se  Se216  1  0.41298757  0.75670357  0.80929710  1
  Se  Se217  1  0.74673646  0.08418855  0.29667876  1
  Se  Se218  1  0.74902230  0.08530831  0.80450978  1
  Se  Se219  1  0.75360591  0.42100152  0.31117496  1
  Se  Se220  1  0.76526954  0.42712030  0.80442965  1
  Se  Se221  1  0.75515026  0.74935289  0.29707079  1
  Se  Se222  1  0.74720929  0.75433214  0.80908384  1
  Se  Se223  1  0.25370603  0.08394911  0.20211849  1
  Se  Se224  1  0.23755730  0.08754535  0.68338896  1
  Se  Se225  1  0.25330985  0.41353352  0.19902627  1
  Se  Se226  1  0.25242709  0.41267314  0.70159212  1
  Se  Se227  1  0.25344674  0.75110757  0.19890699  1
  Se  Se228  1  0.25361190  0.76297942  0.68264751  1
  Se  Se229  1  0.57499346  0.09292294  0.20260265  1
  Se  Se230  1  0.58300934  0.07669799  0.69657792  1
  Se  Se231  1  0.57995364  0.42847464  0.18669571  1
  Se  Se232  1  0.57730861  0.41877146  0.68501953  1
  Se  Se233  1  0.58354568  0.75525637  0.19641229  1
  Se  Se234  1  0.58672265  0.74581792  0.70514219  1
  Se  Se235  1  0.91713346  0.07838838  0.19633424  1
  Se  Se236  1  0.90721243  0.09290457  0.68653334  1
  Se  Se237  1  0.92115774  0.41036629  0.20176971  1
  Se  Se238  1  0.91868932  0.41003059  0.69977399  1
  Se  Se239  1  0.91567725  0.75872161  0.18807076  1
  Se  Se240  1  0.91658700  0.76335801  0.69692108  1
  Se  Se241  1  0.08224648  0.24714053  0.19998710  1
  Se  Se242  1  0.07903215  0.25234909  0.69688652  1
  Se  Se243  1  0.09240145  0.57315948  0.18532188  1
  Se  Se244  1  0.08794087  0.58660424  0.69751034  1
  Se  Se245  1  0.08448163  0.91679367  0.19945764  1
  Se  Se246  1  0.09957140  0.92108393  0.68062779  1
  Se  Se247  1  0.41310531  0.26624148  0.20236907  1
  Se  Se248  1  0.41008419  0.24269346  0.69552554  1
  Se  Se249  1  0.41902131  0.58860503  0.19737258  1
  Se  Se250  1  0.42323369  0.57405773  0.68778138  1
  Se  Se251  1  0.41349326  0.92157833  0.19824846  1
  Se  Se252  1  0.42499342  0.90578727  0.69056314  1
  Se  Se253  1  0.75486000  0.24201659  0.18374161  1
  Se  Se254  1  0.74906298  0.24442517  0.68797104  1
  Se  Se255  1  0.75166448  0.58297451  0.20066628  1
  Se  Se256  1  0.74345830  0.58821197  0.70287038  1
  Se  Se257  1  0.73270814  0.93412216  0.19779034  1
  Se  Se258  1  0.74788812  0.92182777  0.70294671  1
