# generated using pymatgen
data_In86Cu29Se144
_symmetry_space_group_name_H-M   'P 1'
_cell_length_a   17.58040943
_cell_length_b   17.58323217
_cell_length_c   23.44674811
_cell_angle_alpha   90.01288814
_cell_angle_beta   89.97405209
_cell_angle_gamma   90.00092670
_symmetry_Int_Tables_number   1
_chemical_formula_structural   In86Cu29Se144
_chemical_formula_sum   'In86 Cu29 Se144'
_cell_volume   7247.86771114
_cell_formula_units_Z   1
loop_
 _symmetry_equiv_pos_site_id
 _symmetry_equiv_pos_as_xyz
  1  'x, y, z'
loop_
 _atom_site_type_symbol
 _atom_site_label
 _atom_site_symmetry_multiplicity
 _atom_site_fract_x
 _atom_site_fract_y
 _atom_site_fract_z
 _atom_site_occupancy
  In  In0  1  0.00231754  0.16569040  0.11288076  1
  In  In1  1  0.01239972  0.17285683  0.62286536  1
  In  In2  1  0.00715861  0.50229778  0.13129171  1
  In  In3  1  -0.00008082  0.50116214  0.63529444  1
  In  In4  1  -0.01236276  0.83452853  0.12198338  1
  In  In5  1  -0.00746843  0.82665431  0.61831634  1
  In  In6  1  0.32946600  0.16613115  0.12081654  1
  In  In7  1  0.32846167  0.17393432  0.63309482  1
  In  In8  1  0.34154849  0.49203993  0.13169516  1
  In  In9  1  0.34538857  0.49686573  0.63365078  1
  In  In10  1  0.32938240  0.83498068  0.13385082  1
  In  In11  1  0.32597554  0.83330379  0.63053904  1
  In  In12  1  0.66595029  0.17197121  0.11553945  1
  In  In13  1  0.65737653  0.15532590  0.63174842  1
  In  In14  1  0.65486866  0.51318785  0.12726974  1
  In  In15  1  0.66552289  0.51050322  0.62630267  1
  In  In16  1  0.66841056  0.81627579  0.12453562  1
  In  In17  1  0.67295303  0.83186775  0.62806734  1
  In  In18  1  0.17144672  -0.01007337  0.38238226  1
  In  In19  1  0.21315425  0.01006725  0.85644139  1
  In  In20  1  0.16899021  0.31997109  0.37488035  1
  In  In21  1  0.16842488  0.32996030  0.87101736  1
  In  In22  1  0.17735455  0.68001049  0.37377857  1
  In  In23  1  0.16996851  0.68065941  0.85755468  1
  In  In24  1  0.49005937  0.01184833  0.37309465  1
  In  In25  1  0.50507483  0.01152977  0.85994037  1
  In  In26  1  0.49705828  0.35499843  0.38049651  1
  In  In27  1  0.48762054  0.34153331  0.88304793  1
  In  In28  1  0.48600639  0.65194419  0.37349070  1
  In  In29  1  0.48817738  0.64933399  0.85627989  1
  In  In30  1  0.83559702  -0.00116161  0.38568415  1
  In  In31  1  0.82411055  0.00244238  0.87848652  1
  In  In32  1  0.82117389  0.32900880  0.38137141  1
  In  In33  1  0.83335510  0.32127344  0.87378979  1
  In  In34  1  0.84347501  0.67288033  0.36571873  1
  In  In35  1  0.83858421  0.67345051  0.87005893  1
  In  In36  1  0.00457256  0.16068707  0.38489984  1
  In  In37  1  -0.00514084  0.16977717  0.87661690  1
  In  In38  1  -0.01160935  0.51528831  0.37205052  1
  In  In39  1  0.00918896  0.50662985  0.86626822  1
  In  In40  1  0.00890125  0.82630977  0.38399960  1
  In  In41  1  0.00345350  0.82206146  0.87318591  1
  In  In42  1  0.32530781  0.16020194  0.36719721  1
  In  In43  1  0.33380762  0.16840828  0.87784865  1
  In  In44  1  0.34388302  0.51166888  0.37248408  1
  In  In45  1  0.33956675  0.49802260  0.87354601  1
  In  In46  1  0.32042480  0.82072860  0.37380417  1
  In  In47  1  0.33602545  0.84241099  0.86250072  1
  In  In48  1  0.67100717  0.18235502  0.38127264  1
  In  In49  1  0.67096079  0.16125848  0.88023897  1
  In  In50  1  0.65332613  0.49709438  0.37617095  1
  In  In51  1  0.64257639  0.50237129  0.86991455  1
  In  In52  1  0.67915976  0.83004073  0.37935176  1
  In  In53  1  0.66764385  0.83848023  0.87020340  1
  In  In54  1  0.16796640  0.01011331  0.12073559  1
  In  In55  1  0.17356708  0.00366482  0.61783224  1
  In  In56  1  0.17970802  0.33744822  0.12045842  1
  In  In57  1  0.17890372  0.32634789  0.63170856  1
  In  In58  1  0.16819484  0.66767712  0.13177652  1
  In  In59  1  0.16692317  0.67425436  0.63267525  1
  In  In60  1  0.48644212  0.00067801  0.12527926  1
  In  In61  1  0.49414203  0.01632634  0.64366147  1
  In  In62  1  0.47697384  0.31941675  0.10279011  1
  In  In63  1  0.48866770  0.33002498  0.63242939  1
  In  In64  1  0.50340535  0.66033317  0.12861283  1
  In  In65  1  0.49955956  0.65613768  0.63119252  1
  In  In66  1  0.83686240  0.00159641  0.11460097  1
  In  In67  1  0.82710188  -0.00731785  0.62248537  1
  In  In68  1  0.84085667  0.32846440  0.12161594  1
  In  In69  1  0.84810660  0.33680641  0.62658974  1
  In  In70  1  0.82083770  0.67004640  0.13185148  1
  In  In71  1  0.82363189  0.67458076  0.62720583  1
  In  In72  1  0.00329648  0.33906251  0.24837662  1
  In  In73  1  0.17122533  0.50012465  -0.00737804  1
  In  In74  1  0.50704016  0.83306514  -0.00204785  1
  In  In75  1  0.82815573  0.49853976  0.00364189  1
  In  In76  1  0.16564254  0.84018902  -0.01420518  1
  In  In77  1  0.65914879  0.34094050  0.25386488  1
  In  In78  1  0.82839100  0.49987333  0.49607927  1
  In  In79  1  0.66170496  -0.00439033  0.25248859  1
  In  In80  1  0.17344481  0.49951947  0.50464305  1
  In  In81  1  0.50270273  0.17303085  0.50826654  1
  In  In82  1  0.66388787  0.33411308  0.75414642  1
  In  In83  1  0.50066373  0.83389201  0.51050534  1
  In  In84  1  0.00376007  -0.00087571  0.74454350  1
  In  In85  1  0.00555562  -0.00514427  0.24949267  1
  Cu  Cu86  1  0.83386753  0.82819424  0.24952619  1
  Cu  Cu87  1  0.16866380  0.50678772  0.25162469  1
  Cu  Cu88  1  0.66327519  0.66976689  0.50457607  1
  Cu  Cu89  1  0.33345813  0.32943696  0.50472828  1
  Cu  Cu90  1  -0.00137118  -0.00113017  -0.00835308  1
  Cu  Cu91  1  0.66775265  -0.00159519  -0.00461886  1
  Cu  Cu92  1  0.66960203  0.00046989  0.50602400  1
  Cu  Cu93  1  -0.00088324  0.66820955  0.50097858  1
  Cu  Cu94  1  -0.00301131  0.32939223  -0.00521649  1
  Cu  Cu95  1  0.66227381  0.33275864  -0.00734321  1
  Cu  Cu96  1  0.50199529  0.83217141  0.74399461  1
  Cu  Cu97  1  -0.00399665  0.67134314  -0.00140827  1
  Cu  Cu98  1  0.34057347  0.66329846  -0.00348657  1
  Cu  Cu99  1  0.48985450  0.17193454  0.24564988  1
  Cu  Cu100  1  0.16858112  0.82941752  0.25715908  1
  Cu  Cu101  1  0.32969337  -0.00265577  0.49926391  1
  Cu  Cu102  1  0.17630607  0.16602147  0.24632890  1
  Cu  Cu103  1  0.83562287  0.50375880  0.75043097  1
  Cu  Cu104  1  0.83454947  0.16672689  0.75511441  1
  Cu  Cu105  1  -0.00323268  0.00270715  0.50661687  1
  Cu  Cu106  1  0.16856483  0.17104977  0.74902887  1
  Cu  Cu107  1  0.49797019  0.82775074  0.24927723  1
  Cu  Cu108  1  0.17299067  0.49634434  0.74817879  1
  Cu  Cu109  1  0.83176751  0.83500252  0.74705373  1
  Cu  Cu110  1  0.33620326  0.01007297  -0.00383584  1
  Cu  Cu111  1  0.00548847  0.32737149  0.50264164  1
  Cu  Cu112  1  0.49587443  0.49946446  0.24791556  1
  Cu  Cu113  1  0.83604936  0.16757522  0.25304260  1
  Cu  Cu114  1  0.66813893  0.66862917  -0.00122748  1
  Se  Se115  1  0.08331791  0.07914649  0.04704513  1
  Se  Se116  1  0.08667274  0.08623328  0.55231796  1
  Se  Se117  1  0.07434446  0.41309304  0.05489769  1
  Se  Se118  1  0.07946697  0.41114796  0.56332496  1
  Se  Se119  1  0.08402373  0.74941255  0.05573421  1
  Se  Se120  1  0.08531494  0.74542847  0.55566935  1
  Se  Se121  1  0.42079312  0.08759577  0.05229130  1
  Se  Se122  1  0.41002383  0.07682667  0.55976408  1
  Se  Se123  1  0.41535772  0.43123116  0.04932442  1
  Se  Se124  1  0.41609467  0.41211424  0.55740889  1
  Se  Se125  1  0.41069914  0.74961988  0.05940596  1
  Se  Se126  1  0.40977870  0.74120000  0.56320857  1
  Se  Se127  1  0.74899263  0.08407128  0.05128260  1
  Se  Se128  1  0.74777677  0.08740153  0.55984222  1
  Se  Se129  1  0.73651226  0.40741462  0.06233585  1
  Se  Se130  1  0.74751470  0.41268828  0.56319899  1
  Se  Se131  1  0.75522531  0.74881473  0.05079223  1
  Se  Se132  1  0.74978706  0.75471004  0.55172907  1
  Se  Se133  1  0.23784635  0.24026681  0.05349150  1
  Se  Se134  1  0.24954894  0.24509839  0.55509212  1
  Se  Se135  1  0.25464803  0.59060047  0.05797857  1
  Se  Se136  1  0.25829357  0.58644148  0.56693444  1
  Se  Se137  1  0.25891554  0.92090356  0.05323660  1
  Se  Se138  1  0.25140719  0.91080325  0.55294941  1
  Se  Se139  1  0.57986622  0.24569703  0.04516114  1
  Se  Se140  1  0.59418842  0.26141769  0.56548673  1
  Se  Se141  1  0.58006176  0.58806017  0.05019857  1
  Se  Se142  1  0.58078072  0.58310285  0.55341936  1
  Se  Se143  1  0.59290848  0.92342442  0.06407303  1
  Se  Se144  1  0.58308048  0.93267299  0.56874053  1
  Se  Se145  1  0.91280822  0.24669237  0.04810802  1
  Se  Se146  1  0.91883310  0.24806415  0.55575715  1
  Se  Se147  1  0.92340961  0.58806825  0.06033723  1
  Se  Se148  1  0.91998252  0.58519545  0.55947524  1
  Se  Se149  1  0.91733893  0.91581663  0.04683436  1
  Se  Se150  1  0.91148320  0.91469730  0.55253172  1
  Se  Se151  1  0.09017046  0.24568118  0.44958731  1
  Se  Se152  1  0.08408106  0.25066535  0.94190314  1
  Se  Se153  1  0.08044821  0.58688040  0.44273696  1
  Se  Se154  1  0.08329198  0.59975626  0.93889063  1
  Se  Se155  1  0.08003875  0.91918927  0.45111324  1
  Se  Se156  1  0.08146878  0.93215154  0.92556229  1
  Se  Se157  1  0.41211442  0.25171889  0.43926720  1
  Se  Se158  1  0.41971625  0.24358012  0.94747467  1
  Se  Se159  1  0.42283971  0.57240801  0.45257948  1
  Se  Se160  1  0.42290094  0.58239645  0.94253337  1
  Se  Se161  1  0.41420321  0.91939129  0.44138414  1
  Se  Se162  1  0.41524617  0.92226901  0.93955955  1
  Se  Se163  1  0.75828429  0.24318982  0.45528818  1
  Se  Se164  1  0.75221712  0.24893059  0.94778285  1
  Se  Se165  1  0.74216627  0.59444395  0.43761103  1
  Se  Se166  1  0.74503947  0.58526547  0.93715252  1
  Se  Se167  1  0.74967899  0.91593170  0.45155421  1
  Se  Se168  1  0.74921629  0.91049002  0.94639638  1
  Se  Se169  1  0.25123401  0.08448907  0.44447669  1
  Se  Se170  1  0.24344630  0.08686748  0.94676487  1
  Se  Se171  1  0.25750992  0.40937811  0.44011109  1
  Se  Se172  1  0.26186229  0.40408504  0.94331236  1
  Se  Se173  1  0.24563765  0.75300580  0.45342097  1
  Se  Se174  1  0.26262813  0.74440179  0.93685194  1
  Se  Se175  1  0.58928735  0.07810884  0.44342866  1
  Se  Se176  1  0.57994581  0.07664585  0.94278307  1
  Se  Se177  1  0.60206474  0.39942570  0.44800014  1
  Se  Se178  1  0.57894068  0.42261795  0.94870452  1
  Se  Se179  1  0.58229072  0.74663719  0.44114279  1
  Se  Se180  1  0.58489366  0.73992052  0.93386751  1
  Se  Se181  1  0.91413485  0.08638550  0.45192451  1
  Se  Se182  1  0.91193251  0.08523233  0.94363365  1
  Se  Se183  1  0.92849398  0.40942322  0.44125171  1
  Se  Se184  1  0.92273798  0.41827704  0.93770913  1
  Se  Se185  1  0.91290225  0.74786271  0.44589111  1
  Se  Se186  1  0.91346231  0.75429118  0.94583548  1
  Se  Se187  1  0.25418417  0.25473887  0.29885733  1
  Se  Se188  1  0.25578524  0.25023644  0.80353502  1
  Se  Se189  1  0.25179099  0.58780099  0.30703018  1
  Se  Se190  1  0.25142768  0.57875866  0.80656278  1
  Se  Se191  1  0.25102651  0.91775179  0.30615491  1
  Se  Se192  1  0.21917076  0.88403133  0.80245730  1
  Se  Se193  1  0.56969364  0.24475687  0.31137327  1
  Se  Se194  1  0.57862755  0.24855397  0.81844588  1
  Se  Se195  1  0.57898661  0.58064667  0.30362996  1
  Se  Se196  1  0.60121060  0.60015750  0.79567352  1
  Se  Se197  1  0.57323497  0.90677751  0.31495521  1
  Se  Se198  1  0.58387861  0.91641624  0.79934565  1
  Se  Se199  1  0.91718688  0.24619454  0.31212416  1
  Se  Se200  1  0.92125323  0.25215609  0.80141728  1
  Se  Se201  1  0.91262602  0.58306886  0.29532137  1
  Se  Se202  1  0.92015105  0.58795771  0.80246640  1
  Se  Se203  1  0.91135908  0.91060162  0.31076032  1
  Se  Se204  1  0.91151535  0.91518154  0.80817186  1
  Se  Se205  1  0.09282653  0.08907096  0.30783538  1
  Se  Se206  1  0.09118861  0.08680532  0.80897307  1
  Se  Se207  1  0.09056749  0.42631294  0.31416455  1
  Se  Se208  1  0.08723511  0.41529499  0.80278327  1
  Se  Se209  1  0.07928601  0.74800680  0.30614942  1
  Se  Se210  1  0.07004018  0.74636795  0.79449124  1
  Se  Se211  1  0.41122578  0.08175791  0.29681420  1
  Se  Se212  1  0.37827031  0.05357414  0.81333786  1
  Se  Se213  1  0.41297055  0.41659005  0.30268761  1
  Se  Se214  1  0.42788886  0.42427792  0.80375156  1
  Se  Se215  1  0.41530534  0.74838971  0.30780351  1
  Se  Se216  1  0.41666900  0.75276470  0.79853362  1
  Se  Se217  1  0.75373247  0.08799427  0.31134799  1
  Se  Se218  1  0.74883168  0.08344664  0.80453285  1
  Se  Se219  1  0.75829366  0.42524768  0.30967687  1
  Se  Se220  1  0.75657732  0.42612684  0.81412655  1
  Se  Se221  1  0.74578875  0.74920121  0.30206935  1
  Se  Se222  1  0.75008820  0.75228959  0.80306530  1
  Se  Se223  1  0.25448892  0.07779396  0.19359249  1
  Se  Se224  1  0.24588401  0.08178743  0.69536084  1
  Se  Se225  1  0.24609585  0.41897195  0.19759292  1
  Se  Se226  1  0.25856086  0.41170653  0.69861523  1
  Se  Se227  1  0.25225479  0.74720893  0.20106569  1
  Se  Se228  1  0.25704627  0.74460350  0.70287849  1
  Se  Se229  1  0.57969389  0.09337576  0.19146399  1
  Se  Se230  1  0.58139755  0.09176804  0.71163393  1
  Se  Se231  1  0.56758293  0.41385131  0.18454528  1
  Se  Se232  1  0.57766311  0.42462127  0.69354341  1
  Se  Se233  1  0.58400044  0.74662484  0.19752972  1
  Se  Se234  1  0.58500186  0.74866284  0.69136067  1
  Se  Se235  1  0.91443013  0.08930694  0.19113996  1
  Se  Se236  1  0.91141376  0.09082244  0.68824948  1
  Se  Se237  1  0.90427440  0.42486042  0.19289979  1
  Se  Se238  1  0.91914191  0.41560445  0.70318583  1
  Se  Se239  1  0.91804698  0.74839476  0.19402766  1
  Se  Se240  1  0.91456962  0.75059428  0.69425415  1
  Se  Se241  1  0.08751605  0.24234015  0.18926083  1
  Se  Se242  1  0.08265347  0.25468491  0.69858787  1
  Se  Se243  1  0.08213306  0.58828575  0.20034626  1
  Se  Se244  1  0.08793601  0.58247816  0.69869202  1
  Se  Se245  1  0.09441729  0.90511002  0.18763873  1
  Se  Se246  1  0.08791171  0.91033526  0.68214263  1
  Se  Se247  1  0.41119807  0.25441805  0.18891188  1
  Se  Se248  1  0.43531379  0.22541592  0.69755822  1
  Se  Se249  1  0.41219672  0.58812712  0.19768219  1
  Se  Se250  1  0.42088385  0.57993689  0.70560706  1
  Se  Se251  1  0.41750770  0.91633470  0.19922575  1
  Se  Se252  1  0.41292109  0.91671400  0.69746692  1
  Se  Se253  1  0.75327015  0.24577635  0.19436988  1
  Se  Se254  1  0.75642703  0.24757835  0.69222947  1
  Se  Se255  1  0.74687619  0.57737585  0.19600951  1
  Se  Se256  1  0.75121786  0.58464785  0.69699191  1
  Se  Se257  1  0.75813167  0.91405099  0.18996478  1
  Se  Se258  1  0.74670571  0.92142507  0.69868633  1
