# generated using pymatgen
data_In86Cu29Se144
_symmetry_space_group_name_H-M   'P 1'
_cell_length_a   17.56924214
_cell_length_b   17.57225390
_cell_length_c   23.43145034
_cell_angle_alpha   89.99257073
_cell_angle_beta   90.04064163
_cell_angle_gamma   89.98565970
_symmetry_Int_Tables_number   1
_chemical_formula_structural   In86Cu29Se144
_chemical_formula_sum   'In86 Cu29 Se144'
_cell_volume   7234.01729120
_cell_formula_units_Z   1
loop_
 _symmetry_equiv_pos_site_id
 _symmetry_equiv_pos_as_xyz
  1  'x, y, z'
loop_
 _atom_site_type_symbol
 _atom_site_label
 _atom_site_symmetry_multiplicity
 _atom_site_fract_x
 _atom_site_fract_y
 _atom_site_fract_z
 _atom_site_occupancy
  In  In0  1  -0.00113534  0.17806295  0.12635842  1
  In  In1  1  -0.00813208  0.17562293  0.62911183  1
  In  In2  1  -0.00450370  0.49008221  0.12651215  1
  In  In3  1  -0.01190278  0.49928877  0.61655539  1
  In  In4  1  -0.01174055  0.81959982  0.10916654  1
  In  In5  1  0.00073582  0.82820653  0.63007979  1
  In  In6  1  0.33424298  0.16358724  0.14020449  1
  In  In7  1  0.34722169  0.17170238  0.62125011  1
  In  In8  1  0.31868873  0.50395149  0.13189399  1
  In  In9  1  0.32955010  0.49648991  0.61805614  1
  In  In10  1  0.31790789  0.84388295  0.13181946  1
  In  In11  1  0.32740384  0.83046959  0.61676147  1
  In  In12  1  0.66886812  0.15923383  0.12352116  1
  In  In13  1  0.66947261  0.16830601  0.62646924  1
  In  In14  1  0.67788086  0.49333272  0.11968604  1
  In  In15  1  0.66523865  0.50023676  0.62224075  1
  In  In16  1  0.67275223  0.82358151  0.11904718  1
  In  In17  1  0.66693627  0.84351592  0.63402559  1
  In  In18  1  0.16844209  -0.02191922  0.37764228  1
  In  In19  1  0.15801123  0.01058329  0.87493000  1
  In  In20  1  0.17561125  0.34096642  0.37150657  1
  In  In21  1  0.16837365  0.33733726  0.86970552  1
  In  In22  1  0.15669287  0.67341521  0.37676592  1
  In  In23  1  0.14363295  0.67695164  0.89627858  1
  In  In24  1  0.48940498  0.00973531  0.38488855  1
  In  In25  1  0.50944677  -0.01451804  0.87386180  1
  In  In26  1  0.50005049  0.33149867  0.38236227  1
  In  In27  1  0.49596163  0.33600626  0.86322912  1
  In  In28  1  0.51860867  0.65652197  0.39745525  1
  In  In29  1  0.51046183  0.66432046  0.87176648  1
  In  In30  1  0.84641614  0.01117612  0.38412077  1
  In  In31  1  0.83575831  0.00545853  0.87316475  1
  In  In32  1  0.83559563  0.33527799  0.38008710  1
  In  In33  1  0.83624642  0.33092508  0.87191840  1
  In  In34  1  0.83963483  0.63701207  0.37959741  1
  In  In35  1  0.83582385  0.67255473  0.88219090  1
  In  In36  1  -0.01760500  0.16945497  0.38014999  1
  In  In37  1  -0.00894329  0.15270301  0.86385163  1
  In  In38  1  0.00154007  0.50287726  0.37447100  1
  In  In39  1  0.00977906  0.49483497  0.88233988  1
  In  In40  1  0.01256243  0.83410780  0.37485895  1
  In  In41  1  -0.01493423  0.84914460  0.88488258  1
  In  In42  1  0.34596559  0.17144951  0.36385047  1
  In  In43  1  0.32323643  0.17509487  0.87193694  1
  In  In44  1  0.33833691  0.49036094  0.38092956  1
  In  In45  1  0.32666248  0.49200475  0.87628587  1
  In  In46  1  0.33096615  0.83666615  0.37784064  1
  In  In47  1  0.33447492  0.82609984  0.87908509  1
  In  In48  1  0.66669805  0.16977742  0.38682751  1
  In  In49  1  0.67441341  0.18107763  0.86457518  1
  In  In50  1  0.67621587  0.49325245  0.39000696  1
  In  In51  1  0.67971668  0.51183628  0.86085259  1
  In  In52  1  0.66597040  0.81295729  0.38180808  1
  In  In53  1  0.71199207  0.86012337  0.83235969  1
  In  In54  1  0.17943917  -0.00964559  0.12470771  1
  In  In55  1  0.16283482  -0.01066955  0.62462099  1
  In  In56  1  0.15752698  0.33736455  0.13792031  1
  In  In57  1  0.15526310  0.34789566  0.63103526  1
  In  In58  1  0.13110240  0.63919527  0.09740031  1
  In  In59  1  0.16583155  0.66863159  0.61658903  1
  In  In60  1  0.49198447  -0.00753567  0.13319183  1
  In  In61  1  0.50769568  0.01389302  0.61790719  1
  In  In62  1  0.49482061  0.32347926  0.13225295  1
  In  In63  1  0.50221228  0.33167842  0.62392464  1
  In  In64  1  0.50374370  0.65916175  0.12788239  1
  In  In65  1  0.51772943  0.67890167  0.60734655  1
  In  In66  1  0.83610589  0.00071602  0.11366121  1
  In  In67  1  0.82323389  0.00122054  0.63574774  1
  In  In68  1  0.85051291  0.34714738  0.10943385  1
  In  In69  1  0.83326192  0.33556028  0.62475648  1
  In  In70  1  0.84388438  0.66533671  0.11474874  1
  In  In71  1  0.83583695  0.65904130  0.62652439  1
  In  In72  1  0.66972250  0.33370739  0.26027321  1
  In  In73  1  -0.00736589  0.66761485  0.75322750  1
  In  In74  1  0.49952528  0.16550392  0.00715793  1
  In  In75  1  0.16496475  0.16278269  0.00454049  1
  In  In76  1  0.00475041  0.00367961  0.25371222  1
  In  In77  1  0.16543476  0.16467272  0.49722496  1
  In  In78  1  0.65966945  0.00222359  0.25092102  1
  In  In79  1  0.50259520  0.49846655  -0.00175083  1
  In  In80  1  0.32635265  0.67623348  0.25566919  1
  In  In81  1  0.67274844  0.66340155  0.24753274  1
  In  In82  1  0.33691491  0.00897233  0.74872763  1
  In  In83  1  0.83160068  0.83799765  0.50468819  1
  In  In84  1  0.50423391  0.82865398  0.00034065  1
  In  In85  1  0.33445518  0.65378935  0.75398467  1
  Cu  Cu86  1  0.66911039  0.32991925  0.50677544  1
  Cu  Cu87  1  -0.00188989  0.34294103  0.50296943  1
  Cu  Cu88  1  0.50437458  0.16912700  0.74387639  1
  Cu  Cu89  1  0.50017815  0.49304443  0.26012642  1
  Cu  Cu90  1  -0.00018437  0.32537808  -0.00274183  1
  Cu  Cu91  1  0.66638985  0.00027979  0.50726602  1
  Cu  Cu92  1  -0.00142483  -0.00449848  -0.00433641  1
  Cu  Cu93  1  0.67634219  0.33660563  -0.00870830  1
  Cu  Cu94  1  0.33114323  -0.00365707  0.50064230  1
  Cu  Cu95  1  0.33196620  0.33011381  0.49812120  1
  Cu  Cu96  1  0.67804649  0.67273866  -0.01130166  1
  Cu  Cu97  1  0.49406152  0.83506664  0.26028412  1
  Cu  Cu98  1  0.16438394  0.16644431  0.25351435  1
  Cu  Cu99  1  0.16397177  0.50322951  0.75186177  1
  Cu  Cu100  1  0.16135486  0.82607031  0.24598573  1
  Cu  Cu101  1  0.00025887  0.66845772  0.49977417  1
  Cu  Cu102  1  0.32584026  0.33501020  0.00184713  1
  Cu  Cu103  1  0.32803449  0.66796673  0.00509809  1
  Cu  Cu104  1  0.16528409  0.83594203  0.75082077  1
  Cu  Cu105  1  0.83860059  0.83018543  0.24303695  1
  Cu  Cu106  1  0.83362824  0.16947939  0.74774189  1
  Cu  Cu107  1  0.82965043  0.17677589  0.25168105  1
  Cu  Cu108  1  0.83462024  0.48998217  0.74562582  1
  Cu  Cu109  1  0.16554187  0.17488697  0.74863525  1
  Cu  Cu110  1  0.16253848  0.49805384  0.24934446  1
  Cu  Cu111  1  0.32820533  0.66411840  0.49431598  1
  Cu  Cu112  1  0.67273982  0.00134531  -0.00821957  1
  Cu  Cu113  1  0.49967858  0.49694172  0.74145483  1
  Cu  Cu114  1  0.50610381  0.83547368  0.73931734  1
  Se  Se115  1  0.07342029  0.07145987  0.06400859  1
  Se  Se116  1  0.07749541  0.08236348  0.56251634  1
  Se  Se117  1  0.08089533  0.40363172  0.05781750  1
  Se  Se118  1  0.08571049  0.42576676  0.55233297  1
  Se  Se119  1  0.10798600  0.77306214  0.05706255  1
  Se  Se120  1  0.07978292  0.75513789  0.55355483  1
  Se  Se121  1  0.40635123  0.07534549  0.06224193  1
  Se  Se122  1  0.41525100  0.08448424  0.54870575  1
  Se  Se123  1  0.41124407  0.41241780  0.06185655  1
  Se  Se124  1  0.41593654  0.41132061  0.55390637  1
  Se  Se125  1  0.41175394  0.74335760  0.06533192  1
  Se  Se126  1  0.40985253  0.74700578  0.55024401  1
  Se  Se127  1  0.74975278  0.08613344  0.04965169  1
  Se  Se128  1  0.75266161  0.08193482  0.55861430  1
  Se  Se129  1  0.75713612  0.42321096  0.04366239  1
  Se  Se130  1  0.75310715  0.41883598  0.55397181  1
  Se  Se131  1  0.75823098  0.75247834  0.04853002  1
  Se  Se132  1  0.74414470  0.74814148  0.56417138  1
  Se  Se133  1  0.25379447  0.25279948  0.06588437  1
  Se  Se134  1  0.24846800  0.25697080  0.56141269  1
  Se  Se135  1  0.24975415  0.57364935  0.05078365  1
  Se  Se136  1  0.24642326  0.58205040  0.55102316  1
  Se  Se137  1  0.25534723  0.91627498  0.04924018  1
  Se  Se138  1  0.24330476  0.91488434  0.55063142  1
  Se  Se139  1  0.59442553  0.26464171  0.05669030  1
  Se  Se140  1  0.58256277  0.24489219  0.55551033  1
  Se  Se141  1  0.59741228  0.59536999  0.05287835  1
  Se  Se142  1  0.57317174  0.56726017  0.55077962  1
  Se  Se143  1  0.59240238  0.92850063  0.05942082  1
  Se  Se144  1  0.58388173  0.91470580  0.55837189  1
  Se  Se145  1  0.91499061  0.24060227  0.04834896  1
  Se  Se146  1  0.91738871  0.25487246  0.55353228  1
  Se  Se147  1  0.93286514  0.58346059  0.05309945  1
  Se  Se148  1  0.91051361  0.58628126  0.54773037  1
  Se  Se149  1  0.90974927  0.91227044  0.04504745  1
  Se  Se150  1  0.92021765  0.92467732  0.56578003  1
  Se  Se151  1  0.07696461  0.26151315  0.44088911  1
  Se  Se152  1  0.08002872  0.24566718  0.93599445  1
  Se  Se153  1  0.08399581  0.58408046  0.44674684  1
  Se  Se154  1  0.08107711  0.57550621  0.95868756  1
  Se  Se155  1  0.07113640  0.92471673  0.44835510  1
  Se  Se156  1  0.08996238  0.91928404  0.94456117  1
  Se  Se157  1  0.41409017  0.24392327  0.44642569  1
  Se  Se158  1  0.41165786  0.25925774  0.94336386  1
  Se  Se159  1  0.41618525  0.57695070  0.44995400  1
  Se  Se160  1  0.41007990  0.59293316  0.94119124  1
  Se  Se161  1  0.41685816  0.91254754  0.44899747  1
  Se  Se162  1  0.41171032  0.92397781  0.94528427  1
  Se  Se163  1  0.75526588  0.25121453  0.44993237  1
  Se  Se164  1  0.75554151  0.24541722  0.94322197  1
  Se  Se165  1  0.72539749  0.61192811  0.44399087  1
  Se  Se166  1  0.75436759  0.57616645  0.94331259  1
  Se  Se167  1  0.74197051  0.92566930  0.43841517  1
  Se  Se168  1  0.74580663  0.91435972  0.93340851  1
  Se  Se169  1  0.25622779  0.07717663  0.43597250  1
  Se  Se170  1  0.26075969  0.07863489  0.94340377  1
  Se  Se171  1  0.24716749  0.41693000  0.45004852  1
  Se  Se172  1  0.24247194  0.41566388  0.94738000  1
  Se  Se173  1  0.24596413  0.75178992  0.44358442  1
  Se  Se174  1  0.24979625  0.75299745  0.94997270  1
  Se  Se175  1  0.58350163  0.08293877  0.45099713  1
  Se  Se176  1  0.58785186  0.08385480  0.93800145  1
  Se  Se177  1  0.58485351  0.41162821  0.45084196  1
  Se  Se178  1  0.58963859  0.41364797  0.93304328  1
  Se  Se179  1  0.57712188  0.76212317  0.45911531  1
  Se  Se180  1  0.59586277  0.75452714  0.93305494  1
  Se  Se181  1  0.91720332  0.09061985  0.45797102  1
  Se  Se182  1  0.91807367  0.08514940  0.94553668  1
  Se  Se183  1  0.91511688  0.42487223  0.44608044  1
  Se  Se184  1  0.91852378  0.41073576  0.94358320  1
  Se  Se185  1  0.91736305  0.74792620  0.43910313  1
  Se  Se186  1  0.93897979  0.73537304  0.94450969  1
  Se  Se187  1  0.25051124  0.25070827  0.30348208  1
  Se  Se188  1  0.25267690  0.25751218  0.79830340  1
  Se  Se189  1  0.24410481  0.57564130  0.31229284  1
  Se  Se190  1  0.23209392  0.58606841  0.81837282  1
  Se  Se191  1  0.24678460  0.90591129  0.30066382  1
  Se  Se192  1  0.25030818  0.91399348  0.80906591  1
  Se  Se193  1  0.57768989  0.23802774  0.31057651  1
  Se  Se194  1  0.58400295  0.25667606  0.79764684  1
  Se  Se195  1  0.58445727  0.57566107  0.31277963  1
  Se  Se196  1  0.57961353  0.58181258  0.79725949  1
  Se  Se197  1  0.58223443  0.90932984  0.31697753  1
  Se  Se198  1  0.58521670  0.92192833  0.79342217  1
  Se  Se199  1  0.91499844  0.25565990  0.30581163  1
  Se  Se200  1  0.91999204  0.25120582  0.80071666  1
  Se  Se201  1  0.93023136  0.59280796  0.30277257  1
  Se  Se202  1  0.91133417  0.56915252  0.81120181  1
  Se  Se203  1  0.90793543  0.91308415  0.30924099  1
  Se  Se204  1  0.91357899  0.91643529  0.80489767  1
  Se  Se205  1  0.08972482  0.09035089  0.31975498  1
  Se  Se206  1  0.08606777  0.08185346  0.79580738  1
  Se  Se207  1  0.08179323  0.41494511  0.30582946  1
  Se  Se208  1  0.08006141  0.41772068  0.80302269  1
  Se  Se209  1  0.07694319  0.74612495  0.29996812  1
  Se  Se210  1  0.08550833  0.75721657  0.81136678  1
  Se  Se211  1  0.41274511  0.06862970  0.30251841  1
  Se  Se212  1  0.42888054  0.09349679  0.81312482  1
  Se  Se213  1  0.41679540  0.40849966  0.30917311  1
  Se  Se214  1  0.41150343  0.42508350  0.80071765  1
  Se  Se215  1  0.42918237  0.74317424  0.32006529  1
  Se  Se216  1  0.42618024  0.75922741  0.80325630  1
  Se  Se217  1  0.75560567  0.09019985  0.31050012  1
  Se  Se218  1  0.75068211  0.08622872  0.80222241  1
  Se  Se219  1  0.76095420  0.43216288  0.30875661  1
  Se  Se220  1  0.74931376  0.40907412  0.80071819  1
  Se  Se221  1  0.76298933  0.75242282  0.30818147  1
  Se  Se222  1  0.74290463  0.72325917  0.80500106  1
  Se  Se223  1  0.24247153  0.07878408  0.19996726  1
  Se  Se224  1  0.24433572  0.09389306  0.68620383  1
  Se  Se225  1  0.25237645  0.41359967  0.20273235  1
  Se  Se226  1  0.24951116  0.42460136  0.69613498  1
  Se  Se227  1  0.23373106  0.74082151  0.18381193  1
  Se  Se228  1  0.24540433  0.75148794  0.69494663  1
  Se  Se229  1  0.56930008  0.09604093  0.19394459  1
  Se  Se230  1  0.58733956  0.08147710  0.69578296  1
  Se  Se231  1  0.58068110  0.42484316  0.19163264  1
  Se  Se232  1  0.58645815  0.41329542  0.69280316  1
  Se  Se233  1  0.57504738  0.76093122  0.19516402  1
  Se  Se234  1  0.58600409  0.74379146  0.69256360  1
  Se  Se235  1  0.90596223  0.08797176  0.19325099  1
  Se  Se236  1  0.91741181  0.08380122  0.69691824  1
  Se  Se237  1  0.91628150  0.40457469  0.19571993  1
  Se  Se238  1  0.92437122  0.41402314  0.69309237  1
  Se  Se239  1  0.91972574  0.74663392  0.19018394  1
  Se  Se240  1  0.90056770  0.75911350  0.69718573  1
  Se  Se241  1  0.07658801  0.24813947  0.20355067  1
  Se  Se242  1  0.07926053  0.25641797  0.69659002  1
  Se  Se243  1  0.08277202  0.57884116  0.19121596  1
  Se  Se244  1  0.08501395  0.58236875  0.68966547  1
  Se  Se245  1  0.08022020  0.91005239  0.18795753  1
  Se  Se246  1  0.08018908  0.91635218  0.69836663  1
  Se  Se247  1  0.41348151  0.25221565  0.20399939  1
  Se  Se248  1  0.41608586  0.25325609  0.69681711  1
  Se  Se249  1  0.42193778  0.57738329  0.20032089  1
  Se  Se250  1  0.42369300  0.58350577  0.68261802  1
  Se  Se251  1  0.41054356  0.91174071  0.20269269  1
  Se  Se252  1  0.41804614  0.91454767  0.68529757  1
  Se  Se253  1  0.75193798  0.25211893  0.18718813  1
  Se  Se254  1  0.75029945  0.25378291  0.69470798  1
  Se  Se255  1  0.76310541  0.57492163  0.18855042  1
  Se  Se256  1  0.75263588  0.57656987  0.69414612  1
  Se  Se257  1  0.75479123  0.91319409  0.18968308  1
  Se  Se258  1  0.75297808  0.91222284  0.70799114  1
