# generated using pymatgen
data_In86Cu29Se144
_symmetry_space_group_name_H-M   'P 1'
_cell_length_a   17.58250548
_cell_length_b   17.58043645
_cell_length_c   23.44458060
_cell_angle_alpha   90.01787722
_cell_angle_beta   89.99915780
_cell_angle_gamma   89.99204170
_symmetry_Int_Tables_number   1
_chemical_formula_structural   In86Cu29Se144
_chemical_formula_sum   'In86 Cu29 Se144'
_cell_volume   7246.90981698
_cell_formula_units_Z   1
loop_
 _symmetry_equiv_pos_site_id
 _symmetry_equiv_pos_as_xyz
  1  'x, y, z'
loop_
 _atom_site_type_symbol
 _atom_site_label
 _atom_site_symmetry_multiplicity
 _atom_site_fract_x
 _atom_site_fract_y
 _atom_site_fract_z
 _atom_site_occupancy
  In  In0  1  -0.00296933  0.17601040  0.14042284  1
  In  In1  1  -0.00247818  0.16328999  0.61546777  1
  In  In2  1  -0.00739460  0.50640509  0.13543643  1
  In  In3  1  -0.00440754  0.50368258  0.61910078  1
  In  In4  1  0.00196160  0.83743055  0.12611919  1
  In  In5  1  -0.00039389  0.83289476  0.61495048  1
  In  In6  1  0.34482245  0.17276686  0.12052046  1
  In  In7  1  0.32933734  0.17391811  0.62743097  1
  In  In8  1  0.33213146  0.50599272  0.13594677  1
  In  In9  1  0.34030688  0.49361963  0.62696182  1
  In  In10  1  0.32213417  0.83614029  0.12755939  1
  In  In11  1  0.32925212  0.83122747  0.62649808  1
  In  In12  1  0.69069106  0.20466436  0.09816266  1
  In  In13  1  0.67224064  0.15391562  0.62774673  1
  In  In14  1  0.67530653  0.49183543  0.12298188  1
  In  In15  1  0.67065104  0.50521857  0.61824462  1
  In  In16  1  0.69015281  0.82623501  0.12330869  1
  In  In17  1  0.67492208  0.84219614  0.61963509  1
  In  In18  1  0.15152793  0.01299714  0.38084424  1
  In  In19  1  0.15792492  -0.01093276  0.87620158  1
  In  In20  1  0.15070311  0.30896128  0.35737158  1
  In  In21  1  0.17583437  0.32468606  0.87614207  1
  In  In22  1  0.17097829  0.67355102  0.37131495  1
  In  In23  1  0.17293062  0.66620057  0.87814993  1
  In  In24  1  0.48902258  -0.00511459  0.38116482  1
  In  In25  1  0.51155986  0.00726245  0.86192334  1
  In  In26  1  0.51177493  0.34094389  0.36933806  1
  In  In27  1  0.49337594  0.33488358  0.87338852  1
  In  In28  1  0.49131546  0.67078845  0.38373035  1
  In  In29  1  0.49532525  0.67368399  0.86981039  1
  In  In30  1  0.84176738  -0.01184096  0.37767055  1
  In  In31  1  0.82303840  0.00351314  0.88399425  1
  In  In32  1  0.83128846  0.33267822  0.37353915  1
  In  In33  1  0.82827012  0.32845558  0.88563990  1
  In  In34  1  0.83724663  0.66200652  0.37520886  1
  In  In35  1  0.83975411  0.66585602  0.88924627  1
  In  In36  1  -0.00315172  0.15877576  0.36992526  1
  In  In37  1  -0.01864718  0.15781230  0.88337640  1
  In  In38  1  -0.01226323  0.48894265  0.36584280  1
  In  In39  1  -0.00629882  0.50127743  0.88384319  1
  In  In40  1  0.00081762  0.83281137  0.37276400  1
  In  In41  1  -0.00608685  0.84680274  0.89623875  1
  In  In42  1  0.32129603  0.16342852  0.37241266  1
  In  In43  1  0.34282876  0.17380007  0.86520920  1
  In  In44  1  0.33610714  0.50155037  0.37468733  1
  In  In45  1  0.33719127  0.50247954  0.86610457  1
  In  In46  1  0.33472973  0.82652189  0.38312760  1
  In  In47  1  0.32612878  0.83212435  0.86611960  1
  In  In48  1  0.66797911  0.18460756  0.37121007  1
  In  In49  1  0.68476696  0.14714245  0.88683572  1
  In  In50  1  0.67648391  0.49192534  0.38114102  1
  In  In51  1  0.67795934  0.49703311  0.88143314  1
  In  In52  1  0.66918907  0.82604621  0.38342378  1
  In  In53  1  0.66147170  0.83833393  0.87302331  1
  In  In54  1  0.16673475  -0.01471618  0.12250364  1
  In  In55  1  0.16972884  0.00847666  0.61847512  1
  In  In56  1  0.16718295  0.32916483  0.14518267  1
  In  In57  1  0.17979665  0.33229618  0.61991258  1
  In  In58  1  0.15527324  0.68257300  0.13626979  1
  In  In59  1  0.16030449  0.67984180  0.62400198  1
  In  In60  1  0.49073644  0.01019333  0.12087567  1
  In  In61  1  0.50566868  -0.01038308  0.63076439  1
  In  In62  1  0.50940002  0.33310160  0.13323389  1
  In  In63  1  0.48758604  0.33518234  0.62120608  1
  In  In64  1  0.50303701  0.65799388  0.12976513  1
  In  In65  1  0.49185345  0.65622760  0.61932752  1
  In  In66  1  0.85057493  0.01662608  0.11108892  1
  In  In67  1  0.83404898  -0.00034244  0.62232913  1
  In  In68  1  0.83778927  0.33608432  0.12911880  1
  In  In69  1  0.83561034  0.33559799  0.61976256  1
  In  In70  1  0.86633287  0.68942859  0.09813286  1
  In  In71  1  0.83032515  0.66514944  0.61785243  1
  In  In72  1  0.50245196  0.16407403  0.50285817  1
  In  In73  1  0.15969275  0.16105732  0.00264168  1
  In  In74  1  0.15689072  0.50725217  0.00832062  1
  In  In75  1  0.50658091  0.49398484  -0.00329958  1
  In  In76  1  -0.00024740  0.00338423  0.75354544  1
  In  In77  1  0.00369465  0.67040863  0.76029423  1
  In  In78  1  0.00238948  0.33413558  0.75732612  1
  In  In79  1  0.66354815  0.00643750  0.24398652  1
  In  In80  1  0.66635754  0.32782569  0.75591001  1
  In  In81  1  0.50220499  0.83570674  -0.00822163  1
  In  In82  1  0.32751360  0.00237673  0.25182414  1
  In  In83  1  0.67367330  0.65743176  0.24622745  1
  In  In84  1  0.16680024  0.49634994  0.48934463  1
  In  In85  1  0.66434325  0.66717200  0.74685916  1
  Cu  Cu86  1  0.49748790  0.49690658  0.74699368  1
  Cu  Cu87  1  0.33210910  0.00406499  -0.00345872  1
  Cu  Cu88  1  0.50237761  0.17633832  0.24395171  1
  Cu  Cu89  1  0.17512529  0.50243111  0.74959445  1
  Cu  Cu90  1  0.16472725  0.83146661  0.25225182  1
  Cu  Cu91  1  0.83445943  0.49799888  0.24970742  1
  Cu  Cu92  1  0.32902050  -0.00921434  0.50235242  1
  Cu  Cu93  1  0.67234722  0.00116975  0.50200134  1
  Cu  Cu94  1  0.17164563  0.16908709  0.74738116  1
  Cu  Cu95  1  0.16982036  0.50250060  0.25588794  1
  Cu  Cu96  1  0.67014047  0.33754042  0.49804545  1
  Cu  Cu97  1  0.49966302  0.82844791  0.25772428  1
  Cu  Cu98  1  0.83090596  0.83516005  0.74701570  1
  Cu  Cu99  1  0.16948066  0.83616963  0.75042462  1
  Cu  Cu100  1  0.83050595  0.16811981  0.24599076  1
  Cu  Cu101  1  0.49280939  0.83267180  0.74722133  1
  Cu  Cu102  1  -0.00657461  0.66855234  0.49531553  1
  Cu  Cu103  1  0.84616392  0.83466551  0.24668660  1
  Cu  Cu104  1  0.65863491  -0.00451689  -0.00247778  1
  Cu  Cu105  1  0.66130234  0.67011849  0.50102030  1
  Cu  Cu106  1  0.33001172  0.67591627  0.00087480  1
  Cu  Cu107  1  -0.00441307  0.32943534  0.48889349  1
  Cu  Cu108  1  0.32879760  0.66481725  0.50113075  1
  Cu  Cu109  1  0.33107932  0.32802197  0.49704883  1
  Cu  Cu110  1  0.33337962  0.33716265  -0.00030550  1
  Cu  Cu111  1  -0.00662137  0.33310856  0.00904642  1
  Cu  Cu112  1  -0.00325403  -0.00118026  0.49687352  1
  Cu  Cu113  1  0.49902984  0.50445609  0.25257915  1
  Cu  Cu114  1  0.49939364  0.16336711  0.74601163  1
  Se  Se115  1  0.07262206  0.07916099  0.06742603  1
  Se  Se116  1  0.08278913  0.08353964  0.54840230  1
  Se  Se117  1  0.08106236  0.40523851  0.06799034  1
  Se  Se118  1  0.07653295  0.40667262  0.55363956  1
  Se  Se119  1  0.09345283  0.76139091  0.05823263  1
  Se  Se120  1  0.08136251  0.74887340  0.54692497  1
  Se  Se121  1  0.41606491  0.08886820  0.04602914  1
  Se  Se122  1  0.41073453  0.07454958  0.56117087  1
  Se  Se123  1  0.40935461  0.41830853  0.06139609  1
  Se  Se124  1  0.41171219  0.41593893  0.54819833  1
  Se  Se125  1  0.41726750  0.74871729  0.06087557  1
  Se  Se126  1  0.41151146  0.74795337  0.55631915  1
  Se  Se127  1  0.74006018  0.07799398  0.05395088  1
  Se  Se128  1  0.75561098  0.08701544  0.55188604  1
  Se  Se129  1  0.74177350  0.39633305  0.05690881  1
  Se  Se130  1  0.75415178  0.42060071  0.55227242  1
  Se  Se131  1  0.74017661  0.73110805  0.05085367  1
  Se  Se132  1  0.74995516  0.75161232  0.55215936  1
  Se  Se133  1  0.24711787  0.26100946  0.05817899  1
  Se  Se134  1  0.24883341  0.24265069  0.54872596  1
  Se  Se135  1  0.25469150  0.59486448  0.06342387  1
  Se  Se136  1  0.24722836  0.58295470  0.56029944  1
  Se  Se137  1  0.25536750  0.91647216  0.04972562  1
  Se  Se138  1  0.24339918  0.91032059  0.55611202  1
  Se  Se139  1  0.56280118  0.24541122  0.05504205  1
  Se  Se140  1  0.59314740  0.25677688  0.56196949  1
  Se  Se141  1  0.59102271  0.58763526  0.05721353  1
  Se  Se142  1  0.58094759  0.58059058  0.55127527  1
  Se  Se143  1  0.58703379  0.91591850  0.06468569  1
  Se  Se144  1  0.58422264  0.91990202  0.55265638  1
  Se  Se145  1  0.91721515  0.24376460  0.06187451  1
  Se  Se146  1  0.91566496  0.25121866  0.55104073  1
  Se  Se147  1  0.91920283  0.56677673  0.05273957  1
  Se  Se148  1  0.91396819  0.58253047  0.54954048  1
  Se  Se149  1  0.89419084  0.89441347  0.06141338  1
  Se  Se150  1  0.91302358  0.91632478  0.55170276  1
  Se  Se151  1  0.08063278  0.24328048  0.44085926  1
  Se  Se152  1  0.07175321  0.25838057  0.94252097  1
  Se  Se153  1  0.07227373  0.58638506  0.43450375  1
  Se  Se154  1  0.07176745  0.59952577  0.94695483  1
  Se  Se155  1  0.08171258  0.91490486  0.44493055  1
  Se  Se156  1  0.08648693  0.92553371  0.95775470  1
  Se  Se157  1  0.41724288  0.25088848  0.43736567  1
  Se  Se158  1  0.41144027  0.25354346  0.94366457  1
  Se  Se159  1  0.41280984  0.58004313  0.44986530  1
  Se  Se160  1  0.40939667  0.59114474  0.94371954  1
  Se  Se161  1  0.41773929  0.91006727  0.45260005  1
  Se  Se162  1  0.41234497  0.92568336  0.93281644  1
  Se  Se163  1  0.75134015  0.25046811  0.44697552  1
  Se  Se164  1  0.75256699  0.24138001  0.95321463  1
  Se  Se165  1  0.74690313  0.58990617  0.44507134  1
  Se  Se166  1  0.75090370  0.58165258  0.95007342  1
  Se  Se167  1  0.75150155  0.91473572  0.44667214  1
  Se  Se168  1  0.74312443  0.91004430  0.94732373  1
  Se  Se169  1  0.25324345  0.07868839  0.44687454  1
  Se  Se170  1  0.25367380  0.08483656  0.93517290  1
  Se  Se171  1  0.24941775  0.39950005  0.43147153  1
  Se  Se172  1  0.25288311  0.42194378  0.94384532  1
  Se  Se173  1  0.24432401  0.74843095  0.44992811  1
  Se  Se174  1  0.25059416  0.75693806  0.94404575  1
  Se  Se175  1  0.59295974  0.07854388  0.43780232  1
  Se  Se176  1  0.57632298  0.08020804  0.94491841  1
  Se  Se177  1  0.58146821  0.41869422  0.44804344  1
  Se  Se178  1  0.59568751  0.39849498  0.94206885  1
  Se  Se179  1  0.57640651  0.75430436  0.45025990  1
  Se  Se180  1  0.59168506  0.73591391  0.94097450  1
  Se  Se181  1  0.91354254  0.08323378  0.44386149  1
  Se  Se182  1  0.92545827  0.06032441  0.95155844  1
  Se  Se183  1  0.91121295  0.41890012  0.44421127  1
  Se  Se184  1  0.91521212  0.41397872  0.94971384  1
  Se  Se185  1  0.91214363  0.75429325  0.44196655  1
  Se  Se186  1  0.91754951  0.75142779  0.95581975  1
  Se  Se187  1  0.26029449  0.25008010  0.29804453  1
  Se  Se188  1  0.25403060  0.25626983  0.79893837  1
  Se  Se189  1  0.25416285  0.58611267  0.30680578  1
  Se  Se190  1  0.25215230  0.59063252  0.80364881  1
  Se  Se191  1  0.24378251  0.91207804  0.31505988  1
  Se  Se192  1  0.24778201  0.92601575  0.80192250  1
  Se  Se193  1  0.58818828  0.25739487  0.29669570  1
  Se  Se194  1  0.57767626  0.23630330  0.81319565  1
  Se  Se195  1  0.58094518  0.58210556  0.31462289  1
  Se  Se196  1  0.57882701  0.57185127  0.80993469  1
  Se  Se197  1  0.58063599  0.91310917  0.31162838  1
  Se  Se198  1  0.58443909  0.91135641  0.79672113  1
  Se  Se199  1  0.91230005  0.24800492  0.30510075  1
  Se  Se200  1  0.90648494  0.24244354  0.80922586  1
  Se  Se201  1  0.91614650  0.58645998  0.30066305  1
  Se  Se202  1  0.90780484  0.57736825  0.80946596  1
  Se  Se203  1  0.92449336  0.92067826  0.30136215  1
  Se  Se204  1  0.91228882  0.90854648  0.81124402  1
  Se  Se205  1  0.08998378  0.08867296  0.30024805  1
  Se  Se206  1  0.08901692  0.09892540  0.81238852  1
  Se  Se207  1  0.08178865  0.41567055  0.30059042  1
  Se  Se208  1  0.09541159  0.42875668  0.81501618  1
  Se  Se209  1  0.07969629  0.74637359  0.30287806  1
  Se  Se210  1  0.08715972  0.76767316  0.81718136  1
  Se  Se211  1  0.42912666  0.09143918  0.30586386  1
  Se  Se212  1  0.41381487  0.07949798  0.79800063  1
  Se  Se213  1  0.41833411  0.41809597  0.30533345  1
  Se  Se214  1  0.41432165  0.41252980  0.79973628  1
  Se  Se215  1  0.41339126  0.74811179  0.30846738  1
  Se  Se216  1  0.41121211  0.74746124  0.79934453  1
  Se  Se217  1  0.75418390  0.08736372  0.31058773  1
  Se  Se218  1  0.75123515  0.07630096  0.80553121  1
  Se  Se219  1  0.74862077  0.41671256  0.30307706  1
  Se  Se220  1  0.76223725  0.42033978  0.80764429  1
  Se  Se221  1  0.75667890  0.75924982  0.30415264  1
  Se  Se222  1  0.75791638  0.75112366  0.80949370  1
  Se  Se223  1  0.24840764  0.08792281  0.18239600  1
  Se  Se224  1  0.25003054  0.08296554  0.69326337  1
  Se  Se225  1  0.25448626  0.41898855  0.20376968  1
  Se  Se226  1  0.25070433  0.41485496  0.69433459  1
  Se  Se227  1  0.25517763  0.75106099  0.20224913  1
  Se  Se228  1  0.24676977  0.74737919  0.69744309  1
  Se  Se229  1  0.58040255  0.09750441  0.18222491  1
  Se  Se230  1  0.58532477  0.07955337  0.69652520  1
  Se  Se231  1  0.58551812  0.42655861  0.19746206  1
  Se  Se232  1  0.58200235  0.41943012  0.68880387  1
  Se  Se233  1  0.58348745  0.75927548  0.19252036  1
  Se  Se234  1  0.57608549  0.75532345  0.68509637  1
  Se  Se235  1  0.91375841  0.07921063  0.19907119  1
  Se  Se236  1  0.91247004  0.09321712  0.69302281  1
  Se  Se237  1  0.92181852  0.41095332  0.20211364  1
  Se  Se238  1  0.91537305  0.42322562  0.69359739  1
  Se  Se239  1  0.92100483  0.74434314  0.19221957  1
  Se  Se240  1  0.91391629  0.75339410  0.69101084  1
  Se  Se241  1  0.08939507  0.24170674  0.21030118  1
  Se  Se242  1  0.08726666  0.24717817  0.68878740  1
  Se  Se243  1  0.08630565  0.58288518  0.19939350  1
  Se  Se244  1  0.08752561  0.57757649  0.69294776  1
  Se  Se245  1  0.08455625  0.91727559  0.19893194  1
  Se  Se246  1  0.08507689  0.91191728  0.68995828  1
  Se  Se247  1  0.41141758  0.25752782  0.19615535  1
  Se  Se248  1  0.41825570  0.25147632  0.69552490  1
  Se  Se249  1  0.41609035  0.59129625  0.20268728  1
  Se  Se250  1  0.41415454  0.58341332  0.69679194  1
  Se  Se251  1  0.42494270  0.91188456  0.19443683  1
  Se  Se252  1  0.40952202  0.91777991  0.69557612  1
  Se  Se253  1  0.74641831  0.25176176  0.19404720  1
  Se  Se254  1  0.75840220  0.24566634  0.69179616  1
  Se  Se255  1  0.76747085  0.58075901  0.18284466  1
  Se  Se256  1  0.75995209  0.57587911  0.69400859  1
  Se  Se257  1  0.76335399  0.91842334  0.19161226  1
  Se  Se258  1  0.75108355  0.92070566  0.69448484  1
