# generated using pymatgen
data_In86Cu29Se144
_symmetry_space_group_name_H-M   'P 1'
_cell_length_a   17.56581698
_cell_length_b   17.56581008
_cell_length_c   23.42103507
_cell_angle_alpha   89.99666620
_cell_angle_beta   90.01509860
_cell_angle_gamma   90.01250061
_symmetry_Int_Tables_number   1
_chemical_formula_structural   In86Cu29Se144
_chemical_formula_sum   'In86 Cu29 Se144'
_cell_volume   7226.74273759
_cell_formula_units_Z   1
loop_
 _symmetry_equiv_pos_site_id
 _symmetry_equiv_pos_as_xyz
  1  'x, y, z'
loop_
 _atom_site_type_symbol
 _atom_site_label
 _atom_site_symmetry_multiplicity
 _atom_site_fract_x
 _atom_site_fract_y
 _atom_site_fract_z
 _atom_site_occupancy
  In  In0  1  0.02517084  0.15005174  0.15022763  1
  In  In1  1  -0.00494877  0.18399210  0.62620449  1
  In  In2  1  -0.00093202  0.49854638  0.12271901  1
  In  In3  1  -0.01765241  0.49700598  0.61886560  1
  In  In4  1  0.02277219  0.81833765  0.14358315  1
  In  In5  1  0.00633352  0.83801414  0.62138123  1
  In  In6  1  0.32846983  0.16476380  0.12867382  1
  In  In7  1  0.33047542  0.15289191  0.62674764  1
  In  In8  1  0.31876501  0.49649674  0.10848468  1
  In  In9  1  0.34854895  0.49582979  0.63462565  1
  In  In10  1  0.33186427  0.84135844  0.12441706  1
  In  In11  1  0.33852818  0.83233133  0.64486613  1
  In  In12  1  0.65453799  0.16557576  0.11897052  1
  In  In13  1  0.66596770  0.17240494  0.62052434  1
  In  In14  1  0.68057434  0.49596305  0.11038786  1
  In  In15  1  0.67150646  0.49034414  0.63788590  1
  In  In16  1  0.66332001  0.83026617  0.13263141  1
  In  In17  1  0.64881661  0.84377686  0.64635602  1
  In  In18  1  0.17780073  0.01356822  0.33905436  1
  In  In19  1  0.18157497  -0.01211642  0.88998553  1
  In  In20  1  0.15382253  0.31335126  0.34269956  1
  In  In21  1  0.15533561  0.34178507  0.88480006  1
  In  In22  1  0.15975496  0.67982199  0.36441822  1
  In  In23  1  0.19064291  0.64557592  0.90903469  1
  In  In24  1  0.51275315  0.00973469  0.36895466  1
  In  In25  1  0.50304664  0.00695524  0.86617619  1
  In  In26  1  0.48632773  0.32436804  0.37102531  1
  In  In27  1  0.51766089  0.32138140  0.89391135  1
  In  In28  1  0.50512089  0.64803788  0.36816185  1
  In  In29  1  0.49221829  0.65863026  0.87480348  1
  In  In30  1  0.84097774  0.01259993  0.36583281  1
  In  In31  1  0.82501640  0.00757748  0.87534331  1
  In  In32  1  0.84407802  0.33050139  0.38962360  1
  In  In33  1  0.84242546  0.33878985  0.86993926  1
  In  In34  1  0.83048003  0.65992808  0.36969802  1
  In  In35  1  0.82165973  0.66584089  0.87811500  1
  In  In36  1  -0.00449726  0.16808264  0.36687540  1
  In  In37  1  -0.00421895  0.17769905  0.87793382  1
  In  In38  1  -0.01703368  0.49064752  0.36228618  1
  In  In39  1  0.01075404  0.49394424  0.89042414  1
  In  In40  1  0.01541703  0.84139913  0.35348142  1
  In  In41  1  0.01486755  0.82656542  0.88812523  1
  In  In42  1  0.33421407  0.16883579  0.36435599  1
  In  In43  1  0.34076782  0.16070104  0.88079059  1
  In  In44  1  0.34429549  0.48685394  0.36998034  1
  In  In45  1  0.33300397  0.50610727  0.88845525  1
  In  In46  1  0.31760094  0.84503463  0.36675844  1
  In  In47  1  0.33125043  0.82577658  0.87120319  1
  In  In48  1  0.67206551  0.16766107  0.37902723  1
  In  In49  1  0.65812851  0.15794155  0.86804772  1
  In  In50  1  0.67456878  0.51343735  0.37118560  1
  In  In51  1  0.66721404  0.49297191  0.88076260  1
  In  In52  1  0.66654466  0.83208541  0.36947438  1
  In  In53  1  0.64947959  0.82449239  0.85569066  1
  In  In54  1  0.16990841  -0.00012879  0.12847995  1
  In  In55  1  0.17217193  0.00459017  0.62968767  1
  In  In56  1  0.16719081  0.33267008  0.12980960  1
  In  In57  1  0.15797905  0.32753764  0.63220463  1
  In  In58  1  0.15070960  0.65507750  0.10226744  1
  In  In59  1  0.17057017  0.67552347  0.63398022  1
  In  In60  1  0.48709476  0.00460161  0.13316266  1
  In  In61  1  0.48822472  0.00945548  0.62969843  1
  In  In62  1  0.49835088  0.31853196  0.10810934  1
  In  In63  1  0.50829509  0.33986888  0.62384452  1
  In  In64  1  0.50773754  0.66968220  0.12140504  1
  In  In65  1  0.50227483  0.66201454  0.64640900  1
  In  In66  1  0.83344994  -0.00046970  0.13558904  1
  In  In67  1  0.81993628  0.00035880  0.62151717  1
  In  In68  1  0.84229889  0.35284271  0.11480728  1
  In  In69  1  0.83159317  0.33495775  0.62172289  1
  In  In70  1  0.84247027  0.65259504  0.12755639  1
  In  In71  1  0.82953838  0.65609561  0.62585065  1
  In  In72  1  0.67252518  0.33490978  0.24182151  1
  In  In73  1  0.00036556  0.66054537  0.75457749  1
  In  In74  1  0.50147776  0.83314631  0.50399332  1
  In  In75  1  0.16739220  0.49342360  0.49462791  1
  In  In76  1  -0.00052363  0.00026432  0.75384868  1
  In  In77  1  0.33389005  0.33568855  0.76200845  1
  In  In78  1  0.83573660  0.83472003  -0.00261181  1
  In  In79  1  0.16059430  0.84172880  0.48977567  1
  In  In80  1  0.83684350  0.17278593  0.00366708  1
  In  In81  1  0.16135315  0.16604806  0.48321515  1
  In  In82  1  0.49449263  0.83359343  -0.00419840  1
  In  In83  1  0.33255868  0.66790702  0.24160207  1
  In  In84  1  0.83009253  0.82867701  0.49719478  1
  In  In85  1  0.51068493  0.49060055  0.50004275  1
  Cu  Cu86  1  0.50153380  0.49206145  0.24268058  1
  Cu  Cu87  1  0.82546985  0.17330473  0.75005506  1
  Cu  Cu88  1  0.66746043  0.01284551  0.49815394  1
  Cu  Cu89  1  0.67209123  0.66001126  0.00136683  1
  Cu  Cu90  1  0.16825703  0.50897821  0.23766096  1
  Cu  Cu91  1  0.33220604  0.66381279  0.50871880  1
  Cu  Cu92  1  0.65843702  -0.00145176  -0.00491063  1
  Cu  Cu93  1  0.32472231  0.31969223  0.49265473  1
  Cu  Cu94  1  0.16527689  0.16288993  0.75368509  1
  Cu  Cu95  1  0.82586443  0.82980110  0.24987024  1
  Cu  Cu96  1  0.32952762  0.33100888  0.00164806  1
  Cu  Cu97  1  0.82619335  0.17349762  0.25192146  1
  Cu  Cu98  1  0.50243007  0.17511184  0.74973663  1
  Cu  Cu99  1  0.83642516  0.83405768  0.75401851  1
  Cu  Cu100  1  0.00451665  0.00225151  0.01516204  1
  Cu  Cu101  1  0.83040364  0.49617880  0.75038179  1
  Cu  Cu102  1  0.66788032  0.33697127  0.50266737  1
  Cu  Cu103  1  0.33773699  -0.00150769  0.50053257  1
  Cu  Cu104  1  0.49992036  0.83091573  0.24778220  1
  Cu  Cu105  1  -0.00036878  0.01210636  0.48983182  1
  Cu  Cu106  1  0.16578939  0.50363987  0.76549541  1
  Cu  Cu107  1  0.83447520  0.50334848  0.24529327  1
  Cu  Cu108  1  0.49899753  0.50456183  0.76183128  1
  Cu  Cu109  1  0.66971584  0.66500165  0.50557253  1
  Cu  Cu110  1  0.33521270  0.01089505  0.00612302  1
  Cu  Cu111  1  0.17807427  0.82568788  0.76320057  1
  Cu  Cu112  1  -0.00484379  0.66347394  0.48948647  1
  Cu  Cu113  1  0.49717003  0.16365787  0.24380889  1
  Cu  Cu114  1  0.00610447  0.32636207  0.00794922  1
  Se  Se115  1  0.08898905  0.09115280  0.06071529  1
  Se  Se116  1  0.08136427  0.08074282  0.55804712  1
  Se  Se117  1  0.08812714  0.41556624  0.05745242  1
  Se  Se118  1  0.07745689  0.40751818  0.55804465  1
  Se  Se119  1  0.07586045  0.76229097  0.05087900  1
  Se  Se120  1  0.07888834  0.73967198  0.55272950  1
  Se  Se121  1  0.42185565  0.09025106  0.05834698  1
  Se  Se122  1  0.41665604  0.08736156  0.55116844  1
  Se  Se123  1  0.41638760  0.41604793  0.04990061  1
  Se  Se124  1  0.40336050  0.40513266  0.55232433  1
  Se  Se125  1  0.40755393  0.74402319  0.05728395  1
  Se  Se126  1  0.41326480  0.74207949  0.56770866  1
  Se  Se127  1  0.74688576  0.07057712  0.05545343  1
  Se  Se128  1  0.75452222  0.09198585  0.55148380  1
  Se  Se129  1  0.74255740  0.39697537  0.04261373  1
  Se  Se130  1  0.74572428  0.42435963  0.55657564  1
  Se  Se131  1  0.74578862  0.74620672  0.06076765  1
  Se  Se132  1  0.73834863  0.75387312  0.56727747  1
  Se  Se133  1  0.24806913  0.24955585  0.05871342  1
  Se  Se134  1  0.24607242  0.24763192  0.55894495  1
  Se  Se135  1  0.25271147  0.59064198  0.03941351  1
  Se  Se136  1  0.25401642  0.57992674  0.56571414  1
  Se  Se137  1  0.25172419  0.92229706  0.05389648  1
  Se  Se138  1  0.25714480  0.91604851  0.56046900  1
  Se  Se139  1  0.59521991  0.25007305  0.04210615  1
  Se  Se140  1  0.57921416  0.25490990  0.55172193  1
  Se  Se141  1  0.58397781  0.58128240  0.05376197  1
  Se  Se142  1  0.58499718  0.58768014  0.56567405  1
  Se  Se143  1  0.58393524  0.91913454  0.06083204  1
  Se  Se144  1  0.59181206  0.92757728  0.55983098  1
  Se  Se145  1  0.93209304  0.24351270  0.07112952  1
  Se  Se146  1  0.91669526  0.25511260  0.55247378  1
  Se  Se147  1  0.90487424  0.56643713  0.05288838  1
  Se  Se148  1  0.91208486  0.58852891  0.54884908  1
  Se  Se149  1  0.91894914  0.91851192  0.06565010  1
  Se  Se150  1  0.92586287  0.92607676  0.55193399  1
  Se  Se151  1  0.07514567  0.26740646  0.43395422  1
  Se  Se152  1  0.08546816  0.24318156  0.95052469  1
  Se  Se153  1  0.08248711  0.58775836  0.43290215  1
  Se  Se154  1  0.07441412  0.58810977  0.95879223  1
  Se  Se155  1  0.08308250  0.93924521  0.42691986  1
  Se  Se156  1  0.08318429  0.92028939  0.95589369  1
  Se  Se157  1  0.41416179  0.23896299  0.44354368  1
  Se  Se158  1  0.41548961  0.24722917  0.95112802  1
  Se  Se159  1  0.41142973  0.58358744  0.44600549  1
  Se  Se160  1  0.41458502  0.59430065  0.95344144  1
  Se  Se161  1  0.41369751  0.91729086  0.43698618  1
  Se  Se162  1  0.40987279  0.93139018  0.93946636  1
  Se  Se163  1  0.74947541  0.25086192  0.44989931  1
  Se  Se164  1  0.75123241  0.24675725  0.93205441  1
  Se  Se165  1  0.75267869  0.58682907  0.44799368  1
  Se  Se166  1  0.75507336  0.57539220  0.94933415  1
  Se  Se167  1  0.74459108  0.92600725  0.43898884  1
  Se  Se168  1  0.73634066  0.91544497  0.93640878  1
  Se  Se169  1  0.25468843  0.06841135  0.43296887  1
  Se  Se170  1  0.24874219  0.09093779  0.95134051  1
  Se  Se171  1  0.25025006  0.40072038  0.43062775  1
  Se  Se172  1  0.24634630  0.41746512  0.95085778  1
  Se  Se173  1  0.25801288  0.74164430  0.44193556  1
  Se  Se174  1  0.24081522  0.77269441  0.94769428  1
  Se  Se175  1  0.57873206  0.09178071  0.44628981  1
  Se  Se176  1  0.57727880  0.08478276  0.94410090  1
  Se  Se177  1  0.59307061  0.40611162  0.42952869  1
  Se  Se178  1  0.57031848  0.43300549  0.95218918  1
  Se  Se179  1  0.58651372  0.73736010  0.44180659  1
  Se  Se180  1  0.59459929  0.74576482  0.94276133  1
  Se  Se181  1  0.91207720  0.09443362  0.44173224  1
  Se  Se182  1  0.92543436  0.07247607  0.94582330  1
  Se  Se183  1  0.91332982  0.43378990  0.44813409  1
  Se  Se184  1  0.92124814  0.40455002  0.95027875  1
  Se  Se185  1  0.92729863  0.75579393  0.43044276  1
  Se  Se186  1  0.92311884  0.73475303  0.94572847  1
  Se  Se187  1  0.26489089  0.25292220  0.29035596  1
  Se  Se188  1  0.24045377  0.24489911  0.81651148  1
  Se  Se189  1  0.24884219  0.57662590  0.30904648  1
  Se  Se190  1  0.24941671  0.58616355  0.81697861  1
  Se  Se191  1  0.23274166  0.89685699  0.28743855  1
  Se  Se192  1  0.25479623  0.92319913  0.80709778  1
  Se  Se193  1  0.58026260  0.24512493  0.30286934  1
  Se  Se194  1  0.58208002  0.25688727  0.80613005  1
  Se  Se195  1  0.58602107  0.57524014  0.29439509  1
  Se  Se196  1  0.58933563  0.58351370  0.81215107  1
  Se  Se197  1  0.58360588  0.91475559  0.30255826  1
  Se  Se198  1  0.59937371  0.93851279  0.80040258  1
  Se  Se199  1  0.90756318  0.25801529  0.30576006  1
  Se  Se200  1  0.91780500  0.24858234  0.80076223  1
  Se  Se201  1  0.91842620  0.59108793  0.29617865  1
  Se  Se202  1  0.91090678  0.57203937  0.81484317  1
  Se  Se203  1  0.91089354  0.91698097  0.29975989  1
  Se  Se204  1  0.91580056  0.90693605  0.81853186  1
  Se  Se205  1  0.09050554  0.11161636  0.29321136  1
  Se  Se206  1  0.08890694  0.08273184  0.81834313  1
  Se  Se207  1  0.08696729  0.42971655  0.29785846  1
  Se  Se208  1  0.07783616  0.41768612  0.80884725  1
  Se  Se209  1  0.08653914  0.75014545  0.28633049  1
  Se  Se210  1  0.09305340  0.74336008  0.81623897  1
  Se  Se211  1  0.41846359  0.07892774  0.30109973  1
  Se  Se212  1  0.41584427  0.09209922  0.80050777  1
  Se  Se213  1  0.41862140  0.40860816  0.29503302  1
  Se  Se214  1  0.42464346  0.41981310  0.82266585  1
  Se  Se215  1  0.42025224  0.75236807  0.31231737  1
  Se  Se216  1  0.43862176  0.76642561  0.81095967  1
  Se  Se217  1  0.74292258  0.08714920  0.30293749  1
  Se  Se218  1  0.74811220  0.08161872  0.79960584  1
  Se  Se219  1  0.75931545  0.41970307  0.30868433  1
  Se  Se220  1  0.74711474  0.41387479  0.80589903  1
  Se  Se221  1  0.74435733  0.74335765  0.30363840  1
  Se  Se222  1  0.75268349  0.74586908  0.80141736  1
  Se  Se223  1  0.25914021  0.07354415  0.19844685  1
  Se  Se224  1  0.25145015  0.08062403  0.70348009  1
  Se  Se225  1  0.25563805  0.42343964  0.19201726  1
  Se  Se226  1  0.24174382  0.42349995  0.69831929  1
  Se  Se227  1  0.24019578  0.74461121  0.17764233  1
  Se  Se228  1  0.25796902  0.74008927  0.70811773  1
  Se  Se229  1  0.58581508  0.08134717  0.19402261  1
  Se  Se230  1  0.58092201  0.09261512  0.69039454  1
  Se  Se231  1  0.57999767  0.41620608  0.17940573  1
  Se  Se232  1  0.57441495  0.41892608  0.70233073  1
  Se  Se233  1  0.58247882  0.74288999  0.19993261  1
  Se  Se234  1  0.58636796  0.74456659  0.71053174  1
  Se  Se235  1  0.91181796  0.08585832  0.20410326  1
  Se  Se236  1  0.90914133  0.08879797  0.69166115  1
  Se  Se237  1  0.91834035  0.41686234  0.19650161  1
  Se  Se238  1  0.91474449  0.41566290  0.69485203  1
  Se  Se239  1  0.90967030  0.75058281  0.19427269  1
  Se  Se240  1  0.91666210  0.75747439  0.69033631  1
  Se  Se241  1  0.07504377  0.26913608  0.20310454  1
  Se  Se242  1  0.08067177  0.24707708  0.70408605  1
  Se  Se243  1  0.08162453  0.58972417  0.18764410  1
  Se  Se244  1  0.08884885  0.57127973  0.69017509  1
  Se  Se245  1  0.06294313  0.94128884  0.19299055  1
  Se  Se246  1  0.09648365  0.90348164  0.69909178  1
  Se  Se247  1  0.42228567  0.25176866  0.18889926  1
  Se  Se248  1  0.41544044  0.25151574  0.68981592  1
  Se  Se249  1  0.41996297  0.57367051  0.18351570  1
  Se  Se250  1  0.40889848  0.58323540  0.71034262  1
  Se  Se251  1  0.41208154  0.91367622  0.20019690  1
  Se  Se252  1  0.42581080  0.91883038  0.70195721  1
  Se  Se253  1  0.75900618  0.24533938  0.17899605  1
  Se  Se254  1  0.74586750  0.25575268  0.69165738  1
  Se  Se255  1  0.74413753  0.57755884  0.19079201  1
  Se  Se256  1  0.74876154  0.58567205  0.70127514  1
  Se  Se257  1  0.74331069  0.91734867  0.19920938  1
  Se  Se258  1  0.75580798  0.91849351  0.69922793  1
