# generated using pymatgen
data_In86Cu29Se144
_symmetry_space_group_name_H-M   'P 1'
_cell_length_a   17.59475946
_cell_length_b   17.59337592
_cell_length_c   23.45911697
_cell_angle_alpha   90.01023583
_cell_angle_beta   90.01253375
_cell_angle_gamma   89.98959813
_symmetry_Int_Tables_number   1
_chemical_formula_structural   In86Cu29Se144
_chemical_formula_sum   'In86 Cu29 Se144'
_cell_volume   7261.79780716
_cell_formula_units_Z   1
loop_
 _symmetry_equiv_pos_site_id
 _symmetry_equiv_pos_as_xyz
  1  'x, y, z'
loop_
 _atom_site_type_symbol
 _atom_site_label
 _atom_site_symmetry_multiplicity
 _atom_site_fract_x
 _atom_site_fract_y
 _atom_site_fract_z
 _atom_site_occupancy
  In  In0  1  -0.01133032  0.15724680  0.11635088  1
  In  In1  1  -0.01995996  0.15773788  0.61897440  1
  In  In2  1  0.00054065  0.51456420  0.12455177  1
  In  In3  1  0.00162038  0.48939482  0.61768331  1
  In  In4  1  -0.01618810  0.81997807  0.10740306  1
  In  In5  1  -0.01195771  0.84881514  0.63715857  1
  In  In6  1  0.36429940  0.14693293  0.15210267  1
  In  In7  1  0.34123807  0.15731445  0.62218763  1
  In  In8  1  0.35214610  0.49370408  0.14682941  1
  In  In9  1  0.34249806  0.50893445  0.60971537  1
  In  In10  1  0.33601862  0.83186496  0.12878377  1
  In  In11  1  0.33127782  0.82713719  0.61817559  1
  In  In12  1  0.65067871  0.15595522  0.12520400  1
  In  In13  1  0.67209253  0.16570185  0.62461165  1
  In  In14  1  0.67520312  0.51141987  0.12152474  1
  In  In15  1  0.65471850  0.50633813  0.62917587  1
  In  In16  1  0.67130446  0.83910870  0.12814769  1
  In  In17  1  0.66174853  0.82645782  0.61906988  1
  In  In18  1  0.16719246  -0.00525668  0.37347765  1
  In  In19  1  0.15397916  -0.00932209  0.87402791  1
  In  In20  1  0.18434556  0.33485083  0.37500509  1
  In  In21  1  0.16926117  0.34051356  0.87538622  1
  In  In22  1  0.16364285  0.66308901  0.37173640  1
  In  In23  1  0.17386944  0.67233308  0.88006626  1
  In  In24  1  0.50125930  0.00080665  0.37311138  1
  In  In25  1  0.50621182  -0.00154279  0.88711694  1
  In  In26  1  0.49709427  0.34248527  0.37828699  1
  In  In27  1  0.51424199  0.32674815  0.88486034  1
  In  In28  1  0.50492168  0.66793259  0.36465167  1
  In  In29  1  0.50829872  0.65827671  0.88759872  1
  In  In30  1  0.83228144  -0.00042254  0.38179630  1
  In  In31  1  0.85458335  -0.01990526  0.89725147  1
  In  In32  1  0.82266545  0.32107242  0.37508639  1
  In  In33  1  0.82057871  0.34428027  0.88468479  1
  In  In34  1  0.84194758  0.68104405  0.35603160  1
  In  In35  1  0.81247991  0.68721374  0.88230744  1
  In  In36  1  -0.01760014  0.15522805  0.37753948  1
  In  In37  1  -0.00682658  0.14593385  0.87508340  1
  In  In38  1  -0.00142262  0.51994938  0.37615905  1
  In  In39  1  -0.00820441  0.48174558  0.87074215  1
  In  In40  1  0.00094133  0.83075122  0.37804885  1
  In  In41  1  -0.00216198  0.84252801  0.88482896  1
  In  In42  1  0.35673778  0.18544807  0.35482397  1
  In  In43  1  0.33820343  0.17705146  0.88280161  1
  In  In44  1  0.34101229  0.50112890  0.36762683  1
  In  In45  1  0.33730895  0.51487326  0.88135755  1
  In  In46  1  0.34514281  0.84999224  0.36087889  1
  In  In47  1  0.33761191  0.83157121  0.89086054  1
  In  In48  1  0.67418421  0.15613210  0.38172765  1
  In  In49  1  0.66634097  0.17067239  0.87946807  1
  In  In50  1  0.64939518  0.50783432  0.37200661  1
  In  In51  1  0.66484241  0.50316446  0.87839808  1
  In  In52  1  0.66747948  0.83092775  0.37001130  1
  In  In53  1  0.67135386  0.82528117  0.88004555  1
  In  In54  1  0.17760905  -0.00151245  0.12457851  1
  In  In55  1  0.14598956  -0.01248611  0.62204732  1
  In  In56  1  0.17909826  0.33996047  0.12405207  1
  In  In57  1  0.15758230  0.34039623  0.61928205  1
  In  In58  1  0.15992296  0.67226089  0.13170918  1
  In  In59  1  0.17678681  0.66983244  0.61766503  1
  In  In60  1  0.51003322  0.00175224  0.13131850  1
  In  In61  1  0.50448260  0.00183724  0.61108981  1
  In  In62  1  0.49745656  0.32905573  0.12878582  1
  In  In63  1  0.50752724  0.34226894  0.61881894  1
  In  In64  1  0.50283038  0.66837922  0.12976253  1
  In  In65  1  0.50621329  0.67072592  0.61301862  1
  In  In66  1  0.81319561  -0.02209024  0.10892270  1
  In  In67  1  0.83422185  -0.00409852  0.61928014  1
  In  In68  1  0.81852967  0.32872375  0.11588286  1
  In  In69  1  0.82892087  0.31962827  0.62657380  1
  In  In70  1  0.83599000  0.67587361  0.12656203  1
  In  In71  1  0.81253500  0.66207067  0.62330875  1
  In  In72  1  0.17599370  0.17356600  0.49843958  1
  In  In73  1  0.00951610  0.33990490  0.24102349  1
  In  In74  1  -0.00157397  -0.01062114  0.24995450  1
  In  In75  1  0.82697505  0.49695833  0.49558967  1
  In  In76  1  0.33534846  -0.00294361  0.75378489  1
  In  In77  1  0.16557635  0.83232636  0.49394079  1
  In  In78  1  -0.00416598  0.67034017  0.75953286  1
  In  In79  1  -0.01074478  0.32416603  0.74255169  1
  In  In80  1  0.33292540  0.33338602  0.75598947  1
  In  In81  1  0.33797230  0.67297046  0.74307121  1
  In  In82  1  0.16957878  0.50753865  0.00162135  1
  In  In83  1  0.17404761  0.16638525  -0.00014521  1
  In  In84  1  0.67233076  -0.00314627  0.75335500  1
  In  In85  1  0.66052585  0.33660367  0.25566261  1
  Cu  Cu86  1  -0.00444841  0.66427114  -0.00038253  1
  Cu  Cu87  1  0.50842255  0.49758209  0.75383793  1
  Cu  Cu88  1  0.81881481  0.50345349  0.75459123  1
  Cu  Cu89  1  0.33827182  0.66497660  0.49055312  1
  Cu  Cu90  1  0.66473531  0.66849815  0.49219408  1
  Cu  Cu91  1  0.83495095  0.50490539  0.24541331  1
  Cu  Cu92  1  0.82979667  0.16143650  0.25187251  1
  Cu  Cu93  1  0.34131431  0.00089123  0.01081237  1
  Cu  Cu94  1  0.15824278  0.15269108  0.74867079  1
  Cu  Cu95  1  0.16210684  0.82976605  0.24909677  1
  Cu  Cu96  1  0.66067450  0.00804916  0.00423063  1
  Cu  Cu97  1  0.66742913  0.67327482  0.00621754  1
  Cu  Cu98  1  0.66417980  -0.00886286  0.49734051  1
  Cu  Cu99  1  -0.00575552  0.32931395  0.00013991  1
  Cu  Cu100  1  0.50639501  0.83709797  0.24779853  1
  Cu  Cu101  1  0.00543987  0.33670230  0.49653290  1
  Cu  Cu102  1  0.50562633  0.17174178  0.75488772  1
  Cu  Cu103  1  0.33770198  0.00618702  0.49003660  1
  Cu  Cu104  1  0.82789332  0.16024657  0.75139448  1
  Cu  Cu105  1  0.66418446  0.32472761  0.49795843  1
  Cu  Cu106  1  0.33903858  0.66569960  0.01263228  1
  Cu  Cu107  1  0.16925044  0.50221296  0.25212800  1
  Cu  Cu108  1  0.16758622  0.50470344  0.73808790  1
  Cu  Cu109  1  0.49942475  0.82682757  0.74546798  1
  Cu  Cu110  1  0.66269694  0.34086939  0.00375315  1
  Cu  Cu111  1  0.34341933  0.34170131  0.49231756  1
  Cu  Cu112  1  -0.00245489  0.67089532  0.49653713  1
  Cu  Cu113  1  0.16715797  0.16623392  0.24612182  1
  Cu  Cu114  1  0.34573224  0.32967592  0.01075883  1
  Se  Se115  1  0.08235449  0.07378004  0.05459943  1
  Se  Se116  1  0.07887157  0.08363413  0.55216454  1
  Se  Se117  1  0.07708648  0.41072632  0.05769681  1
  Se  Se118  1  0.09005183  0.42353746  0.54382131  1
  Se  Se119  1  0.08622599  0.74220828  0.05067091  1
  Se  Se120  1  0.07463066  0.74972771  0.56025308  1
  Se  Se121  1  0.42344675  0.08678427  0.06197852  1
  Se  Se122  1  0.42076088  0.08875433  0.54610725  1
  Se  Se123  1  0.41807516  0.42205527  0.06312696  1
  Se  Se124  1  0.42742086  0.42271915  0.54750188  1
  Se  Se125  1  0.42296080  0.75366203  0.05901123  1
  Se  Se126  1  0.41414098  0.75018158  0.54879353  1
  Se  Se127  1  0.74698968  0.09035053  0.05627082  1
  Se  Se128  1  0.74303554  0.07502711  0.55549336  1
  Se  Se129  1  0.75181226  0.42584138  0.05009990  1
  Se  Se130  1  0.74216421  0.40887971  0.56019855  1
  Se  Se131  1  0.75328726  0.75727706  0.05613246  1
  Se  Se132  1  0.74869529  0.74821017  0.54841169  1
  Se  Se133  1  0.26492817  0.24481038  0.06601900  1
  Se  Se134  1  0.26598871  0.26541168  0.56048909  1
  Se  Se135  1  0.25766681  0.58279521  0.07035172  1
  Se  Se136  1  0.25065684  0.58693792  0.54583242  1
  Se  Se137  1  0.25522319  0.91411115  0.05534465  1
  Se  Se138  1  0.25550843  0.92961569  0.55335038  1
  Se  Se139  1  0.58375870  0.25442102  0.05813388  1
  Se  Se140  1  0.58348421  0.24503872  0.55703755  1
  Se  Se141  1  0.58289035  0.58802351  0.05577633  1
  Se  Se142  1  0.58712278  0.58120723  0.54770357  1
  Se  Se143  1  0.58477644  0.91888164  0.05801136  1
  Se  Se144  1  0.57907038  0.90738678  0.54907622  1
  Se  Se145  1  0.91038613  0.24821898  0.05265484  1
  Se  Se146  1  0.92025647  0.25925275  0.55215861  1
  Se  Se147  1  0.91211344  0.58461921  0.05470643  1
  Se  Se148  1  0.91867652  0.58782252  0.55734724  1
  Se  Se149  1  0.92277235  0.92597476  0.04793235  1
  Se  Se150  1  0.92172031  0.91383220  0.55414514  1
  Se  Se151  1  0.07890246  0.25388307  0.43375213  1
  Se  Se152  1  0.07834675  0.25546571  0.93771998  1
  Se  Se153  1  0.08573961  0.58745299  0.44917964  1
  Se  Se154  1  0.07246655  0.58390039  0.93501848  1
  Se  Se155  1  0.07182992  0.93128623  0.44560924  1
  Se  Se156  1  0.09511723  0.90884125  0.95205749  1
  Se  Se157  1  0.41893899  0.24795971  0.44338905  1
  Se  Se158  1  0.42507892  0.24826011  0.95266717  1
  Se  Se159  1  0.42329617  0.58500703  0.43712656  1
  Se  Se160  1  0.41915276  0.58107314  0.95687521  1
  Se  Se161  1  0.41833979  0.91514285  0.44342162  1
  Se  Se162  1  0.42294672  0.91654773  0.95441143  1
  Se  Se163  1  0.75439071  0.24284527  0.45194947  1
  Se  Se164  1  0.74538284  0.25372414  0.95123901  1
  Se  Se165  1  0.74803448  0.59008081  0.43223759  1
  Se  Se166  1  0.74631421  0.58858732  0.94763973  1
  Se  Se167  1  0.74829582  0.90963219  0.44410167  1
  Se  Se168  1  0.73853900  0.92120655  0.94854214  1
  Se  Se169  1  0.25814287  0.08693338  0.43158837  1
  Se  Se170  1  0.26204833  0.07129257  0.93998908  1
  Se  Se171  1  0.25628610  0.42411407  0.44330532  1
  Se  Se172  1  0.26332154  0.40765379  0.94811308  1
  Se  Se173  1  0.26037733  0.75111216  0.43219887  1
  Se  Se174  1  0.25398397  0.74328781  0.95485347  1
  Se  Se175  1  0.58245616  0.07935902  0.44736473  1
  Se  Se176  1  0.58002295  0.09351931  0.94957638  1
  Se  Se177  1  0.58868686  0.41607004  0.44642443  1
  Se  Se178  1  0.57982436  0.42551916  0.95054539  1
  Se  Se179  1  0.58011706  0.75049718  0.43938333  1
  Se  Se180  1  0.58154275  0.75462156  0.95101947  1
  Se  Se181  1  0.90727261  0.08570665  0.45300218  1
  Se  Se182  1  0.91230281  0.09161392  0.95509765  1
  Se  Se183  1  0.92210487  0.41004481  0.43346517  1
  Se  Se184  1  0.91389392  0.41980644  0.95105099  1
  Se  Se185  1  0.91161508  0.74693255  0.44120849  1
  Se  Se186  1  0.91489790  0.75026330  0.94669720  1
  Se  Se187  1  0.24784503  0.25295933  0.29766998  1
  Se  Se188  1  0.23612732  0.23566957  0.80787262  1
  Se  Se189  1  0.25212399  0.58667332  0.30367209  1
  Se  Se190  1  0.24472838  0.57927032  0.80351893  1
  Se  Se191  1  0.24283329  0.91908109  0.29883273  1
  Se  Se192  1  0.25157279  0.90441821  0.81338357  1
  Se  Se193  1  0.58110492  0.24170453  0.31701226  1
  Se  Se194  1  0.58881343  0.25421796  0.80618311  1
  Se  Se195  1  0.57302173  0.57420390  0.29445096  1
  Se  Se196  1  0.58247976  0.58754396  0.80796244  1
  Se  Se197  1  0.58650039  0.92070528  0.30373377  1
  Se  Se198  1  0.57221224  0.91088677  0.80883084  1
  Se  Se199  1  0.91556147  0.24805449  0.30084206  1
  Se  Se200  1  0.90606901  0.24473821  0.81331872  1
  Se  Se201  1  0.92302561  0.58527542  0.29602860  1
  Se  Se202  1  0.90516669  0.57579370  0.81337247  1
  Se  Se203  1  0.90559217  0.90464481  0.30956996  1
  Se  Se204  1  0.91304741  0.91204338  0.81146078  1
  Se  Se205  1  0.08413898  0.09216384  0.30755343  1
  Se  Se206  1  0.07521647  0.07171560  0.80182682  1
  Se  Se207  1  0.08734247  0.42389052  0.31304554  1
  Se  Se208  1  0.09012421  0.41809937  0.79590574  1
  Se  Se209  1  0.08074090  0.75089073  0.30702826  1
  Se  Se210  1  0.09219167  0.75770288  0.81246821  1
  Se  Se211  1  0.40369420  0.06577366  0.30402678  1
  Se  Se212  1  0.42398326  0.09191625  0.81229362  1
  Se  Se213  1  0.41497949  0.40734426  0.30152636  1
  Se  Se214  1  0.42217521  0.42495628  0.81537549  1
  Se  Se215  1  0.41893107  0.75383946  0.29804491  1
  Se  Se216  1  0.42275242  0.75349002  0.81315608  1
  Se  Se217  1  0.75187334  0.07783792  0.30773563  1
  Se  Se218  1  0.75893949  0.08047730  0.81899937  1
  Se  Se219  1  0.76020379  0.42668586  0.31056219  1
  Se  Se220  1  0.74199226  0.41448410  0.80743231  1
  Se  Se221  1  0.72909601  0.73304293  0.29948424  1
  Se  Se222  1  0.74423732  0.75527220  0.80047341  1
  Se  Se223  1  0.25065918  0.07690603  0.20054934  1
  Se  Se224  1  0.24373207  0.08164379  0.68773965  1
  Se  Se225  1  0.24994259  0.41403488  0.20199619  1
  Se  Se226  1  0.25297627  0.42326666  0.68493966  1
  Se  Se227  1  0.25039515  0.74975608  0.19769988  1
  Se  Se228  1  0.23771387  0.76428498  0.69365927  1
  Se  Se229  1  0.57483393  0.09293045  0.20458311  1
  Se  Se230  1  0.57451729  0.08367316  0.69284743  1
  Se  Se231  1  0.58383451  0.42634207  0.18846762  1
  Se  Se232  1  0.58486423  0.41147295  0.69777499  1
  Se  Se233  1  0.58982655  0.75247144  0.19595900  1
  Se  Se234  1  0.58109340  0.74461139  0.69123606  1
  Se  Se235  1  0.90948592  0.08210259  0.19216696  1
  Se  Se236  1  0.90998451  0.07903170  0.69502642  1
  Se  Se237  1  0.90681691  0.41914286  0.18499778  1
  Se  Se238  1  0.90111863  0.42805179  0.69087402  1
  Se  Se239  1  0.92705520  0.75172744  0.19349805  1
  Se  Se240  1  0.90410835  0.74520528  0.69154049  1
  Se  Se241  1  0.08961352  0.23904794  0.18138003  1
  Se  Se242  1  0.08750894  0.23742919  0.68486884  1
  Se  Se243  1  0.08236666  0.58273560  0.19993789  1
  Se  Se244  1  0.08170472  0.58459762  0.68504238  1
  Se  Se245  1  0.08593284  0.90700618  0.18400650  1
  Se  Se246  1  0.08643865  0.91232841  0.70284758  1
  Se  Se247  1  0.41485596  0.26315991  0.20606517  1
  Se  Se248  1  0.42143716  0.24572409  0.69291531  1
  Se  Se249  1  0.41324662  0.60139894  0.20356245  1
  Se  Se250  1  0.42731862  0.57460790  0.69037863  1
  Se  Se251  1  0.41927229  0.91791421  0.19546685  1
  Se  Se252  1  0.42301293  0.91046887  0.68695669  1
  Se  Se253  1  0.75071927  0.24549645  0.19466424  1
  Se  Se254  1  0.74667983  0.24668440  0.70005155  1
  Se  Se255  1  0.75227894  0.59037850  0.19503920  1
  Se  Se256  1  0.73847985  0.58581646  0.69912881  1
  Se  Se257  1  0.75366488  0.92139834  0.19777577  1
  Se  Se258  1  0.75284874  0.90658900  0.68890335  1
