# generated using pymatgen
data_In86Cu29Se144
_symmetry_space_group_name_H-M   'P 1'
_cell_length_a   17.57889009
_cell_length_b   17.58310334
_cell_length_c   23.44444710
_cell_angle_alpha   89.95507838
_cell_angle_beta   90.00463951
_cell_angle_gamma   89.97633991
_symmetry_Int_Tables_number   1
_chemical_formula_structural   In86Cu29Se144
_chemical_formula_sum   'In86 Cu29 Se144'
_cell_volume   7246.47506939
_cell_formula_units_Z   1
loop_
 _symmetry_equiv_pos_site_id
 _symmetry_equiv_pos_as_xyz
  1  'x, y, z'
loop_
 _atom_site_type_symbol
 _atom_site_label
 _atom_site_symmetry_multiplicity
 _atom_site_fract_x
 _atom_site_fract_y
 _atom_site_fract_z
 _atom_site_occupancy
  In  In0  1  -0.00144200  0.16327236  0.13818934  1
  In  In1  1  -0.01197643  0.15293902  0.61437020  1
  In  In2  1  -0.00212780  0.50060725  0.14008578  1
  In  In3  1  -0.00441812  0.49324920  0.60685675  1
  In  In4  1  -0.00513778  0.83833615  0.12878878  1
  In  In5  1  -0.01071094  0.85185477  0.62177119  1
  In  In6  1  0.34236766  0.17139797  0.13417233  1
  In  In7  1  0.35833993  0.14871282  0.63461257  1
  In  In8  1  0.34067049  0.49339791  0.13468312  1
  In  In9  1  0.32767994  0.48694185  0.61651187  1
  In  In10  1  0.32558746  0.83085116  0.12250555  1
  In  In11  1  0.34414935  0.85266477  0.62687619  1
  In  In12  1  0.66657725  0.15544690  0.14320412  1
  In  In13  1  0.67125427  0.16366681  0.62170199  1
  In  In14  1  0.66716400  0.49686776  0.13672178  1
  In  In15  1  0.65027040  0.48677008  0.60343725  1
  In  In16  1  0.66998382  0.83537726  0.12741507  1
  In  In17  1  0.67645088  0.83083820  0.62689591  1
  In  In18  1  0.15647952  0.00871526  0.37807071  1
  In  In19  1  0.15945603  -0.00884243  0.86502421  1
  In  In20  1  0.17787966  0.34215502  0.37245144  1
  In  In21  1  0.16946773  0.31740749  0.87388853  1
  In  In22  1  0.15788537  0.65939975  0.36715173  1
  In  In23  1  0.18194924  0.68191989  0.87781947  1
  In  In24  1  0.51265363  0.00319853  0.38197523  1
  In  In25  1  0.48352815  -0.01928751  0.84715516  1
  In  In26  1  0.50644158  0.33089132  0.37670017  1
  In  In27  1  0.49090087  0.32146134  0.85226013  1
  In  In28  1  0.49304847  0.65929668  0.36701865  1
  In  In29  1  0.51300396  0.67016682  0.87781772  1
  In  In30  1  0.83034757  0.00086201  0.38918576  1
  In  In31  1  0.82764224  -0.00453882  0.87175955  1
  In  In32  1  0.83133541  0.33147267  0.37648952  1
  In  In33  1  0.82045821  0.33829843  0.86889115  1
  In  In34  1  0.83204612  0.66821533  0.37049535  1
  In  In35  1  0.84712882  0.67091774  0.87450345  1
  In  In36  1  -0.02110758  0.14908334  0.37022869  1
  In  In37  1  0.01337657  0.15721275  0.87334900  1
  In  In38  1  0.00215884  0.50325021  0.37384790  1
  In  In39  1  -0.01008611  0.50063008  0.87561803  1
  In  In40  1  -0.00636240  0.82910470  0.36958756  1
  In  In41  1  -0.01085578  0.85558086  0.89641369  1
  In  In42  1  0.33473947  0.17689885  0.37838823  1
  In  In43  1  0.33797770  0.15879588  0.85756910  1
  In  In44  1  0.33628333  0.49712521  0.37943212  1
  In  In45  1  0.34294963  0.49942057  0.87111803  1
  In  In46  1  0.34768613  0.82928259  0.37132927  1
  In  In47  1  0.32942360  0.83833822  0.88051781  1
  In  In48  1  0.65939082  0.16504810  0.38445907  1
  In  In49  1  0.64461051  0.14830720  0.84932399  1
  In  In50  1  0.66658190  0.49711080  0.37469007  1
  In  In51  1  0.66689611  0.49133997  0.86765702  1
  In  In52  1  0.68208033  0.84901241  0.37072257  1
  In  In53  1  0.65861294  0.84949276  0.89016748  1
  In  In54  1  0.16033827  -0.01325214  0.12111729  1
  In  In55  1  0.17001021  0.00169218  0.62847806  1
  In  In56  1  0.16588383  0.32986075  0.13669700  1
  In  In57  1  0.17156783  0.34064761  0.61772645  1
  In  In58  1  0.15594182  0.67756505  0.13600382  1
  In  In59  1  0.17375657  0.65966242  0.62145005  1
  In  In60  1  0.51732082  0.00040799  0.13099504  1
  In  In61  1  0.49951653  0.00870181  0.63010762  1
  In  In62  1  0.50143014  0.31871865  0.14550729  1
  In  In63  1  0.50046237  0.32647391  0.62299140  1
  In  In64  1  0.49527178  0.67361631  0.13301629  1
  In  In65  1  0.51123556  0.67080296  0.61786012  1
  In  In66  1  0.84071057  -0.01110335  0.13386931  1
  In  In67  1  0.83215799  -0.00323523  0.62223136  1
  In  In68  1  0.82627486  0.33445695  0.14081195  1
  In  In69  1  0.81697813  0.31534231  0.60354892  1
  In  In70  1  0.82560018  0.67707975  0.13625662  1
  In  In71  1  0.83261253  0.66729283  0.61087080  1
  In  In72  1  0.16529793  0.51268754  0.00275305  1
  In  In73  1  -0.00288798  0.31990352  0.73893023  1
  In  In74  1  0.50335297  0.16196096  -0.00214237  1
  In  In75  1  0.33261331  0.66688001  0.75225466  1
  In  In76  1  0.16697967  0.17022490  0.49865887  1
  In  In77  1  0.32778540  0.00315682  0.25170457  1
  In  In78  1  0.50622915  0.83842099  0.50161280  1
  In  In79  1  0.82777274  0.16417698  -0.00797331  1
  In  In80  1  0.82789064  0.51094780  0.00299621  1
  In  In81  1  0.00252809  0.66948962  0.75561821  1
  In  In82  1  0.16160358  0.82753048  0.50263116  1
  In  In83  1  0.67093090  0.66974583  0.74462375  1
  In  In84  1  0.17063006  0.15599012  0.00917503  1
  In  In85  1  0.50276938  0.50495537  -0.00086181  1
  Cu  Cu86  1  -0.00610214  0.32939429  0.01249027  1
  Cu  Cu87  1  0.33144908  0.68099007  0.01021739  1
  Cu  Cu88  1  0.00831765  0.33572425  0.48696781  1
  Cu  Cu89  1  0.15726561  0.49113763  0.74406152  1
  Cu  Cu90  1  0.66791549  0.33377987  0.49550642  1
  Cu  Cu91  1  0.33896681  0.33734676  -0.00263552  1
  Cu  Cu92  1  0.66951619  -0.00322292  0.00251595  1
  Cu  Cu93  1  0.34353184  0.33158509  0.50080404  1
  Cu  Cu94  1  0.00208992  0.68123692  0.00748843  1
  Cu  Cu95  1  -0.00102491  0.66443985  0.49206571  1
  Cu  Cu96  1  0.83680308  0.49865700  0.25806579  1
  Cu  Cu97  1  0.50183576  0.49404172  0.25717487  1
  Cu  Cu98  1  0.33828995  0.00122377  -0.00599762  1
  Cu  Cu99  1  0.17315213  0.49931269  0.25423908  1
  Cu  Cu100  1  0.83693127  0.83791039  0.75144963  1
  Cu  Cu101  1  0.17393480  0.16476012  0.74625012  1
  Cu  Cu102  1  0.66419909  0.66758748  0.48867510  1
  Cu  Cu103  1  0.15738437  0.16845678  0.25688495  1
  Cu  Cu104  1  0.82482918  0.16418781  0.26114804  1
  Cu  Cu105  1  0.16823952  0.83989266  0.74997043  1
  Cu  Cu106  1  0.83489106  0.16394339  0.74014597  1
  Cu  Cu107  1  0.67095993  0.67884189  0.00472913  1
  Cu  Cu108  1  0.33079573  0.66174958  0.49667067  1
  Cu  Cu109  1  0.82091295  0.48761030  0.73443720  1
  Cu  Cu110  1  0.50652394  0.83274608  0.25211572  1
  Cu  Cu111  1  0.16384818  0.83248768  0.24789708  1
  Cu  Cu112  1  0.66014544  0.32887715  -0.00080633  1
  Cu  Cu113  1  0.49415682  0.49385227  0.73778026  1
  Cu  Cu114  1  0.82846672  0.84116533  0.25385983  1
  Se  Se115  1  0.06554028  0.07528395  0.05989325  1
  Se  Se116  1  0.07944334  0.06730605  0.55134601  1
  Se  Se117  1  0.07849388  0.41462047  0.06302904  1
  Se  Se118  1  0.09074137  0.41619737  0.54464224  1
  Se  Se119  1  0.08776576  0.76004561  0.06021062  1
  Se  Se120  1  0.06885696  0.73915771  0.56443970  1
  Se  Se121  1  0.41117772  0.07639658  0.06191819  1
  Se  Se122  1  0.42815297  0.08543727  0.55116324  1
  Se  Se123  1  0.42226820  0.40707963  0.06116353  1
  Se  Se124  1  0.42611840  0.41846967  0.55230580  1
  Se  Se125  1  0.42460992  0.75800551  0.05846392  1
  Se  Se126  1  0.40573441  0.74672683  0.55726614  1
  Se  Se127  1  0.74445420  0.08155886  0.06276607  1
  Se  Se128  1  0.77622374  0.10369841  0.55708257  1
  Se  Se129  1  0.74203838  0.40807143  0.05812745  1
  Se  Se130  1  0.75573308  0.42284099  0.54224342  1
  Se  Se131  1  0.75814251  0.75621090  0.05733965  1
  Se  Se132  1  0.74216182  0.74877031  0.54859669  1
  Se  Se133  1  0.25977386  0.25902554  0.05928166  1
  Se  Se134  1  0.26360564  0.24876089  0.56101912  1
  Se  Se135  1  0.25837850  0.59095246  0.06800878  1
  Se  Se136  1  0.24794131  0.57761651  0.55009643  1
  Se  Se137  1  0.25553907  0.92266572  0.05207813  1
  Se  Se138  1  0.25596768  0.92358246  0.55354136  1
  Se  Se139  1  0.58774283  0.25049879  0.06471309  1
  Se  Se140  1  0.58952079  0.25155938  0.55391971  1
  Se  Se141  1  0.59527066  0.58912459  0.06160999  1
  Se  Se142  1  0.57791863  0.58789418  0.54241297  1
  Se  Se143  1  0.58376787  0.91579629  0.05608583  1
  Se  Se144  1  0.59485668  0.92493638  0.56257250  1
  Se  Se145  1  0.90905973  0.25055124  0.06563289  1
  Se  Se146  1  0.93202420  0.25780645  0.54960779  1
  Se  Se147  1  0.92481461  0.59105732  0.06425653  1
  Se  Se148  1  0.91209097  0.58059411  0.54386282  1
  Se  Se149  1  0.91460497  0.91774894  0.05659644  1
  Se  Se150  1  0.89435334  0.90188491  0.54843495  1
  Se  Se151  1  0.07948869  0.24737906  0.42891155  1
  Se  Se152  1  0.07663790  0.25409767  0.95073920  1
  Se  Se153  1  0.08830592  0.58193949  0.44576691  1
  Se  Se154  1  0.07214245  0.59879064  0.93927399  1
  Se  Se155  1  0.07327510  0.91794179  0.44340773  1
  Se  Se156  1  0.09765593  0.92231412  0.94949104  1
  Se  Se157  1  0.42450810  0.24739720  0.44808965  1
  Se  Se158  1  0.41197690  0.25392491  0.93660990  1
  Se  Se159  1  0.42061020  0.58385969  0.44587771  1
  Se  Se160  1  0.40495110  0.59837888  0.94439701  1
  Se  Se161  1  0.40893377  0.92369573  0.44406369  1
  Se  Se162  1  0.42415665  0.92329150  0.93902057  1
  Se  Se163  1  0.75316061  0.24779558  0.44719419  1
  Se  Se164  1  0.73360229  0.25050760  0.93357373  1
  Se  Se165  1  0.75077303  0.58411679  0.44022271  1
  Se  Se166  1  0.73711779  0.59466190  0.93587248  1
  Se  Se167  1  0.75242235  0.90874033  0.45535147  1
  Se  Se168  1  0.76061349  0.91731924  0.95249010  1
  Se  Se169  1  0.25877548  0.07568160  0.44231046  1
  Se  Se170  1  0.25811829  0.08249637  0.93566697  1
  Se  Se171  1  0.25505504  0.41310896  0.45025859  1
  Se  Se172  1  0.25142271  0.41483384  0.94106209  1
  Se  Se173  1  0.25408455  0.74542151  0.43720395  1
  Se  Se174  1  0.24782607  0.76174022  0.95504658  1
  Se  Se175  1  0.57932127  0.08479114  0.45764944  1
  Se  Se176  1  0.59081573  0.07261195  0.93790717  1
  Se  Se177  1  0.58257100  0.41997740  0.44683708  1
  Se  Se178  1  0.57980831  0.40602795  0.93603592  1
  Se  Se179  1  0.58397768  0.75162001  0.43109970  1
  Se  Se180  1  0.58019334  0.75435361  0.95226022  1
  Se  Se181  1  0.91265358  0.08858407  0.45590091  1
  Se  Se182  1  0.92650981  0.07563621  0.94023426  1
  Se  Se183  1  0.91838935  0.41857202  0.44098890  1
  Se  Se184  1  0.91515339  0.40659922  0.94656107  1
  Se  Se185  1  0.91536036  0.74878638  0.44228066  1
  Se  Se186  1  0.91171202  0.75290793  0.95163541  1
  Se  Se187  1  0.24849420  0.24678290  0.30515953  1
  Se  Se188  1  0.25327471  0.25242628  0.79863749  1
  Se  Se189  1  0.25660283  0.58230296  0.30788038  1
  Se  Se190  1  0.23485451  0.57303440  0.80735114  1
  Se  Se191  1  0.24068795  0.90977667  0.31345109  1
  Se  Se192  1  0.25827675  0.91795578  0.80260723  1
  Se  Se193  1  0.59223089  0.25159313  0.30910429  1
  Se  Se194  1  0.60734855  0.27285235  0.79926231  1
  Se  Se195  1  0.58671582  0.58189055  0.30347998  1
  Se  Se196  1  0.57318715  0.57415132  0.80070132  1
  Se  Se197  1  0.58241130  0.91986934  0.30689330  1
  Se  Se198  1  0.59983787  0.91422284  0.80336077  1
  Se  Se199  1  0.91509272  0.25035390  0.30534238  1
  Se  Se200  1  0.90970121  0.23996625  0.81073460  1
  Se  Se201  1  0.92122702  0.58711763  0.30391939  1
  Se  Se202  1  0.90042025  0.56739380  0.79832050  1
  Se  Se203  1  0.90924173  0.92283915  0.31142164  1
  Se  Se204  1  0.92240573  0.91507973  0.80815439  1
  Se  Se205  1  0.07539744  0.07777080  0.30240848  1
  Se  Se206  1  0.08564426  0.08252523  0.79615489  1
  Se  Se207  1  0.08616847  0.41806516  0.30610460  1
  Se  Se208  1  0.07953293  0.41324473  0.80859241  1
  Se  Se209  1  0.08010829  0.74912122  0.30150580  1
  Se  Se210  1  0.08980639  0.76286822  0.81295511  1
  Se  Se211  1  0.41933448  0.08533237  0.31354378  1
  Se  Se212  1  0.45357667  0.11058841  0.80189890  1
  Se  Se213  1  0.41666829  0.41307522  0.30986923  1
  Se  Se214  1  0.40781587  0.41736650  0.79433601  1
  Se  Se215  1  0.41700783  0.74770444  0.29640109  1
  Se  Se216  1  0.42374919  0.75279290  0.81228851  1
  Se  Se217  1  0.74644897  0.08000829  0.31720726  1
  Se  Se218  1  0.75605209  0.08094017  0.79867238  1
  Se  Se219  1  0.74983488  0.41435444  0.30551688  1
  Se  Se220  1  0.74024872  0.41038268  0.79310081  1
  Se  Se221  1  0.74667282  0.75120526  0.30263851  1
  Se  Se222  1  0.75677321  0.75549526  0.81110444  1
  Se  Se223  1  0.23455618  0.09090776  0.18952431  1
  Se  Se224  1  0.25798681  0.07723854  0.69699162  1
  Se  Se225  1  0.25307794  0.41300658  0.20028647  1
  Se  Se226  1  0.24856810  0.41515755  0.69450938  1
  Se  Se227  1  0.25402914  0.75137769  0.19912355  1
  Se  Se228  1  0.24487118  0.75900547  0.68882759  1
  Se  Se229  1  0.55963822  0.09878602  0.20453369  1
  Se  Se230  1  0.58628141  0.09233488  0.69486034  1
  Se  Se231  1  0.58668683  0.41098365  0.20316856  1
  Se  Se232  1  0.58549715  0.41772004  0.68770050  1
  Se  Se233  1  0.58908736  0.75003300  0.19682798  1
  Se  Se234  1  0.57248039  0.76095464  0.69446190  1
  Se  Se235  1  0.90797461  0.08487085  0.20216779  1
  Se  Se236  1  0.92042932  0.07684014  0.69384693  1
  Se  Se237  1  0.91871762  0.41160950  0.20485915  1
  Se  Se238  1  0.91000634  0.41219003  0.67923490  1
  Se  Se239  1  0.91453507  0.75748418  0.20119926  1
  Se  Se240  1  0.90958552  0.74987794  0.69065182  1
  Se  Se241  1  0.07539413  0.25459504  0.20344142  1
  Se  Se242  1  0.09287286  0.23565444  0.67984959  1
  Se  Se243  1  0.08615015  0.58325575  0.20295171  1
  Se  Se244  1  0.08058264  0.57552276  0.68749805  1
  Se  Se245  1  0.08115829  0.91967274  0.19889669  1
  Se  Se246  1  0.08337384  0.91575720  0.69223382  1
  Se  Se247  1  0.40118679  0.25660630  0.21017195  1
  Se  Se248  1  0.40116774  0.26620229  0.69146778  1
  Se  Se249  1  0.42310210  0.57910382  0.19942279  1
  Se  Se250  1  0.41853703  0.58401248  0.68273220  1
  Se  Se251  1  0.42021712  0.91274266  0.19284995  1
  Se  Se252  1  0.42582728  0.91833104  0.70092824  1
  Se  Se253  1  0.74336500  0.24936149  0.20605535  1
  Se  Se254  1  0.75467457  0.25278368  0.69110210  1
  Se  Se255  1  0.75430518  0.57990282  0.20053238  1
  Se  Se256  1  0.74737155  0.57538734  0.67731490  1
  Se  Se257  1  0.74223125  0.92306130  0.20017844  1
  Se  Se258  1  0.75183722  0.91692803  0.69692488  1
