# generated using pymatgen
data_In86Cu29Se144
_symmetry_space_group_name_H-M   'P 1'
_cell_length_a   17.57665387
_cell_length_b   17.57577044
_cell_length_c   23.43483675
_cell_angle_alpha   89.99705362
_cell_angle_beta   89.98157371
_cell_angle_gamma   89.98384644
_symmetry_Int_Tables_number   1
_chemical_formula_structural   In86Cu29Se144
_chemical_formula_sum   'In86 Cu29 Se144'
_cell_volume   7239.56487746
_cell_formula_units_Z   1
loop_
 _symmetry_equiv_pos_site_id
 _symmetry_equiv_pos_as_xyz
  1  'x, y, z'
loop_
 _atom_site_type_symbol
 _atom_site_label
 _atom_site_symmetry_multiplicity
 _atom_site_fract_x
 _atom_site_fract_y
 _atom_site_fract_z
 _atom_site_occupancy
  In  In0  1  -0.00412832  0.16242660  0.11628255  1
  In  In1  1  -0.00214525  0.16447509  0.63832867  1
  In  In2  1  0.00004181  0.51553584  0.12300115  1
  In  In3  1  -0.01272902  0.49502805  0.62520312  1
  In  In4  1  -0.00756840  0.82185504  0.11900092  1
  In  In5  1  0.00590352  0.84480728  0.62516829  1
  In  In6  1  0.33496238  0.17114854  0.12205652  1
  In  In7  1  0.33649461  0.16315253  0.62913145  1
  In  In8  1  0.35278469  0.48252372  0.13986457  1
  In  In9  1  0.33341986  0.49946402  0.63052668  1
  In  In10  1  0.32249813  0.84320603  0.12759965  1
  In  In11  1  0.33854127  0.83389428  0.63414817  1
  In  In12  1  0.67113236  0.17942765  0.12443008  1
  In  In13  1  0.66498281  0.18336864  0.62777392  1
  In  In14  1  0.65432016  0.48517001  0.11496364  1
  In  In15  1  0.67472840  0.49219595  0.63271706  1
  In  In16  1  0.68014595  0.83059737  0.12149984  1
  In  In17  1  0.66667043  0.81698608  0.62699995  1
  In  In18  1  0.17209241  -0.00252340  0.36977035  1
  In  In19  1  0.16757032  0.00130142  0.87770096  1
  In  In20  1  0.17669311  0.32532169  0.37131870  1
  In  In21  1  0.15828525  0.32159274  0.87183152  1
  In  In22  1  0.16871695  0.67400937  0.36841899  1
  In  In23  1  0.18299627  0.66388078  0.87737912  1
  In  In24  1  0.49871382  0.01684398  0.37070448  1
  In  In25  1  0.49750723  0.01919421  0.88012689  1
  In  In26  1  0.49901438  0.32549087  0.35983525  1
  In  In27  1  0.50031258  0.33510696  0.87492654  1
  In  In28  1  0.49615031  0.66167684  0.36744700  1
  In  In29  1  0.49225293  0.65546243  0.87305993  1
  In  In30  1  0.82586296  -0.00722092  0.37743775  1
  In  In31  1  0.84150299  -0.00902576  0.88303750  1
  In  In32  1  0.83881474  0.35074712  0.37330937  1
  In  In33  1  0.83109981  0.33284491  0.87818256  1
  In  In34  1  0.83194587  0.66126175  0.37515080  1
  In  In35  1  0.82668903  0.67090589  0.87908823  1
  In  In36  1  0.00593165  0.17303712  0.37129669  1
  In  In37  1  0.00051911  0.16473654  0.87906974  1
  In  In38  1  -0.02303491  0.49565511  0.37475525  1
  In  In39  1  -0.00074898  0.48205310  0.87370211  1
  In  In40  1  -0.00283323  0.82286041  0.37157396  1
  In  In41  1  -0.00399475  0.84269859  0.87957002  1
  In  In42  1  0.35256745  0.19330648  0.34191772  1
  In  In43  1  0.33373995  0.16942442  0.87623464  1
  In  In44  1  0.33936131  0.49711842  0.36218643  1
  In  In45  1  0.34351436  0.50510191  0.87285160  1
  In  In46  1  0.32935101  0.83272451  0.36600186  1
  In  In47  1  0.32453038  0.82590289  0.87612737  1
  In  In48  1  0.65492764  0.16596325  0.37058722  1
  In  In49  1  0.65402810  0.18017633  0.88358964  1
  In  In50  1  0.67370118  0.50293274  0.37087723  1
  In  In51  1  0.66619966  0.49848055  0.87506793  1
  In  In52  1  0.67367935  0.83414765  0.37838213  1
  In  In53  1  0.68100431  0.83139360  0.87798098  1
  In  In54  1  0.17974621  0.01233190  0.11334745  1
  In  In55  1  0.16734908  -0.00086954  0.63616044  1
  In  In56  1  0.17846843  0.32789280  0.12477989  1
  In  In57  1  0.16898095  0.33040820  0.63423426  1
  In  In58  1  0.16186778  0.66970414  0.12629121  1
  In  In59  1  0.17264729  0.67562118  0.62701015  1
  In  In60  1  0.48193272  0.01042273  0.12928020  1
  In  In61  1  0.48468772  0.00257302  0.62777685  1
  In  In62  1  0.50064059  0.33169051  0.12478153  1
  In  In63  1  0.50664281  0.32876955  0.62922400  1
  In  In64  1  0.50126127  0.64670511  0.12780651  1
  In  In65  1  0.50129137  0.66946297  0.63440325  1
  In  In66  1  0.83650202  0.00179455  0.11945334  1
  In  In67  1  0.84539136  0.00325757  0.62866290  1
  In  In68  1  0.81496006  0.31991000  0.12013858  1
  In  In69  1  0.83027540  0.33278399  0.63285486  1
  In  In70  1  0.84418360  0.67356274  0.11690860  1
  In  In71  1  0.82777240  0.65342233  0.62009275  1
  In  In72  1  0.16630499  0.83534235  0.49648304  1
  In  In73  1  0.66475756  0.65895565  0.25081358  1
  In  In74  1  0.16154823  0.50350646  0.50649075  1
  In  In75  1  0.17009576  0.49868765  0.00282797  1
  In  In76  1  0.50272644  0.83406464  0.50364574  1
  In  In77  1  0.50401730  0.83478067  0.00741389  1
  In  In78  1  0.66702118  0.00114014  0.75886109  1
  In  In79  1  0.82967381  0.17072329  0.50537824  1
  In  In80  1  0.00391283  0.66462983  0.74479308  1
  In  In81  1  0.50104176  0.49976757  0.49405333  1
  In  In82  1  0.66437558  0.00697223  0.24318541  1
  In  In83  1  0.16773801  0.16600332  0.49221298  1
  In  In84  1  -0.00059042  0.33799379  0.24789557  1
  In  In85  1  0.00301725  0.00171671  0.24185203  1
  Cu  Cu86  1  0.17356828  0.49411781  0.75564105  1
  Cu  Cu87  1  0.16480293  0.83497260  0.24457481  1
  Cu  Cu88  1  0.50267556  0.49780135  0.75182098  1
  Cu  Cu89  1  -0.00119411  0.66832100  -0.00294911  1
  Cu  Cu90  1  0.33815970  0.32922303  0.49151848  1
  Cu  Cu91  1  0.33688667  0.33220875  0.00056816  1
  Cu  Cu92  1  0.49642232  0.17108949  0.75450780  1
  Cu  Cu93  1  0.66902496  0.00638424  -0.00068763  1
  Cu  Cu94  1  0.83505671  0.83166228  0.75523698  1
  Cu  Cu95  1  0.66639939  0.33327811  0.50392454  1
  Cu  Cu96  1  0.66524710  0.33639970  -0.00121510  1
  Cu  Cu97  1  0.16928958  0.83512296  0.75373690  1
  Cu  Cu98  1  -0.00531176  0.33073484  -0.00176999  1
  Cu  Cu99  1  0.67250775  0.65946790  0.50120978  1
  Cu  Cu100  1  -0.01028623  0.66367394  0.49449623  1
  Cu  Cu101  1  0.49989994  0.83271598  0.24886827  1
  Cu  Cu102  1  0.66391781  0.00084395  0.49607469  1
  Cu  Cu103  1  0.83058503  0.50525414  0.24450255  1
  Cu  Cu104  1  -0.00590011  0.00292796  0.50573210  1
  Cu  Cu105  1  0.00453182  -0.00260865  0.00037033  1
  Cu  Cu106  1  0.33195715  0.00465424  0.00049924  1
  Cu  Cu107  1  0.33475924  0.66313560  0.00170290  1
  Cu  Cu108  1  0.49698745  0.83228753  0.75565868  1
  Cu  Cu109  1  0.66961946  0.66164911  0.00131084  1
  Cu  Cu110  1  0.17039904  0.16392702  0.75648540  1
  Cu  Cu111  1  0.83493495  0.16846327  0.75758906  1
  Cu  Cu112  1  0.16238934  0.50922769  0.24883237  1
  Cu  Cu113  1  0.33668508  0.00542782  0.50012216  1
  Cu  Cu114  1  0.83162528  0.49717252  0.75143090  1
  Se  Se115  1  0.08560673  0.08736644  0.04862972  1
  Se  Se116  1  0.08068775  0.07956600  0.56176064  1
  Se  Se117  1  0.07560077  0.40896245  0.06098305  1
  Se  Se118  1  0.07800596  0.40519928  0.56178606  1
  Se  Se119  1  0.08477050  0.74763136  0.05094394  1
  Se  Se120  1  0.07306226  0.74095438  0.55506872  1
  Se  Se121  1  0.41774586  0.08861282  0.04955889  1
  Se  Se122  1  0.41847556  0.08934314  0.55331385  1
  Se  Se123  1  0.41824484  0.41756958  0.05395562  1
  Se  Se124  1  0.41177480  0.41054119  0.55585758  1
  Se  Se125  1  0.41294918  0.74374706  0.06458220  1
  Se  Se126  1  0.41101957  0.74329828  0.55973649  1
  Se  Se127  1  0.74955094  0.08802807  0.05735983  1
  Se  Se128  1  0.74004998  0.07698494  0.56425713  1
  Se  Se129  1  0.75376565  0.41767366  0.04986429  1
  Se  Se130  1  0.75116912  0.41222055  0.55871635  1
  Se  Se131  1  0.75366834  0.75030171  0.04784256  1
  Se  Se132  1  0.75197650  0.74744190  0.55377014  1
  Se  Se133  1  0.24904027  0.24852273  0.04861258  1
  Se  Se134  1  0.25555091  0.25588996  0.55544296  1
  Se  Se135  1  0.25974176  0.58160826  0.06635613  1
  Se  Se136  1  0.26008980  0.59309539  0.55777628  1
  Se  Se137  1  0.24973425  0.91375569  0.04719117  1
  Se  Se138  1  0.25739020  0.92405776  0.55959461  1
  Se  Se139  1  0.58315149  0.25153011  0.05263803  1
  Se  Se140  1  0.57946958  0.24897762  0.55200075  1
  Se  Se141  1  0.58008154  0.58028849  0.04896693  1
  Se  Se142  1  0.58732574  0.58527113  0.56152486  1
  Se  Se143  1  0.59067961  0.93059650  0.06607783  1
  Se  Se144  1  0.59068897  0.92468944  0.56550982  1
  Se  Se145  1  0.91058637  0.24867818  0.05293834  1
  Se  Se146  1  0.92571924  0.25297256  0.56382813  1
  Se  Se147  1  0.91582041  0.58152346  0.04669873  1
  Se  Se148  1  0.91486764  0.57670156  0.55082030  1
  Se  Se149  1  0.91739375  0.91560732  0.05276479  1
  Se  Se150  1  0.91364783  0.91474776  0.55534672  1
  Se  Se151  1  0.07458464  0.26549038  0.44386416  1
  Se  Se152  1  0.08347742  0.24840280  0.94947681  1
  Se  Se153  1  0.07746851  0.58858933  0.43665849  1
  Se  Se154  1  0.07866513  0.58497408  0.93761900  1
  Se  Se155  1  0.07285808  0.92738794  0.44046169  1
  Se  Se156  1  0.08845164  0.91376604  0.94733751  1
  Se  Se157  1  0.41675268  0.24793393  0.43352315  1
  Se  Se158  1  0.42004542  0.25000417  0.94470887  1
  Se  Se159  1  0.40545984  0.58919467  0.44021489  1
  Se  Se160  1  0.41881501  0.57921156  0.95105315  1
  Se  Se161  1  0.41287990  0.91996283  0.43981713  1
  Se  Se162  1  0.41440687  0.91993342  0.94279428  1
  Se  Se163  1  0.74529851  0.25587242  0.43860314  1
  Se  Se164  1  0.75081210  0.24960259  0.94925921  1
  Se  Se165  1  0.75325325  0.57626469  0.44607315  1
  Se  Se166  1  0.75157354  0.57933395  0.94526046  1
  Se  Se167  1  0.75068238  0.91366890  0.45219335  1
  Se  Se168  1  0.75011232  0.91641878  0.95165853  1
  Se  Se169  1  0.26174806  0.08123420  0.43432884  1
  Se  Se170  1  0.24945384  0.08738667  0.94524203  1
  Se  Se171  1  0.25457188  0.41661352  0.44139908  1
  Se  Se172  1  0.25475765  0.41042951  0.93797404  1
  Se  Se173  1  0.26040662  0.74399996  0.44387530  1
  Se  Se174  1  0.24970692  0.74816078  0.95320776  1
  Se  Se175  1  0.58116445  0.08629993  0.44648314  1
  Se  Se176  1  0.58042551  0.09002188  0.95346154  1
  Se  Se177  1  0.58931985  0.40705809  0.43674224  1
  Se  Se178  1  0.58101273  0.41895198  0.94495906  1
  Se  Se179  1  0.58900708  0.73695616  0.44143481  1
  Se  Se180  1  0.58721023  0.74452701  0.94181763  1
  Se  Se181  1  0.92143696  0.08303257  0.44071398  1
  Se  Se182  1  0.91789153  0.08180286  0.94915908  1
  Se  Se183  1  0.91577497  0.41447980  0.45292091  1
  Se  Se184  1  0.91310806  0.41812230  0.94869963  1
  Se  Se185  1  0.91004767  0.75194046  0.44324693  1
  Se  Se186  1  0.91522107  0.75262442  0.94387019  1
  Se  Se187  1  0.23428110  0.24636181  0.29160845  1
  Se  Se188  1  0.25372521  0.25234053  0.80456886  1
  Se  Se189  1  0.25049045  0.58667460  0.30322631  1
  Se  Se190  1  0.25535939  0.58323385  0.80307556  1
  Se  Se191  1  0.24920305  0.91731153  0.29770423  1
  Se  Se192  1  0.25216914  0.91811851  0.80813933  1
  Se  Se193  1  0.59926613  0.25748062  0.29623065  1
  Se  Se194  1  0.58453969  0.25355991  0.80334687  1
  Se  Se195  1  0.56942940  0.56390683  0.30175083  1
  Se  Se196  1  0.58457820  0.58335140  0.80502963  1
  Se  Se197  1  0.58067440  0.91137720  0.30965798  1
  Se  Se198  1  0.57502779  0.91111203  0.81874738  1
  Se  Se199  1  0.90797609  0.24630679  0.30724145  1
  Se  Se200  1  0.91924857  0.25161863  0.81064496  1
  Se  Se201  1  0.91357866  0.58530867  0.30067273  1
  Se  Se202  1  0.91514653  0.57903745  0.80928721  1
  Se  Se203  1  0.91319513  0.91424062  0.30582816  1
  Se  Se204  1  0.91759026  0.91838072  0.80397915  1
  Se  Se205  1  0.09305962  0.09230770  0.30307746  1
  Se  Se206  1  0.08293977  0.08239584  0.80808064  1
  Se  Se207  1  0.08756261  0.42689000  0.31288318  1
  Se  Se208  1  0.08387145  0.41118104  0.80120544  1
  Se  Se209  1  0.08275774  0.75236314  0.29953232  1
  Se  Se210  1  0.08898943  0.75074137  0.81166633  1
  Se  Se211  1  0.40982510  0.07355133  0.29604081  1
  Se  Se212  1  0.41392643  0.08411139  0.80395640  1
  Se  Se213  1  0.40422254  0.40078991  0.29658355  1
  Se  Se214  1  0.41674614  0.41526443  0.80367489  1
  Se  Se215  1  0.41681618  0.74901164  0.30168894  1
  Se  Se216  1  0.41325915  0.74745629  0.80868054  1
  Se  Se217  1  0.75807715  0.08816257  0.30879544  1
  Se  Se218  1  0.75407519  0.09029847  0.82008133  1
  Se  Se219  1  0.75225553  0.42033733  0.29998342  1
  Se  Se220  1  0.74921054  0.41404978  0.80642869  1
  Se  Se221  1  0.75470065  0.75610291  0.30411185  1
  Se  Se222  1  0.74911591  0.74700872  0.80250107  1
  Se  Se223  1  0.26137975  0.07667329  0.18917532  1
  Se  Se224  1  0.25347096  0.08277461  0.69914585  1
  Se  Se225  1  0.24038289  0.42146218  0.19603022  1
  Se  Se226  1  0.25636804  0.41243284  0.69885310  1
  Se  Se227  1  0.24977257  0.74928872  0.19430022  1
  Se  Se228  1  0.25203969  0.75074299  0.70010200  1
  Se  Se229  1  0.57120831  0.09889596  0.19143593  1
  Se  Se230  1  0.57848784  0.08865848  0.69424486  1
  Se  Se231  1  0.58386499  0.41519369  0.19378348  1
  Se  Se232  1  0.58574086  0.41328917  0.69813811  1
  Se  Se233  1  0.58026139  0.75607225  0.18768795  1
  Se  Se234  1  0.58365647  0.75126806  0.70359869  1
  Se  Se235  1  0.90559879  0.09509103  0.19343242  1
  Se  Se236  1  0.91592630  0.08037598  0.70607729  1
  Se  Se237  1  0.90970008  0.42272044  0.18380503  1
  Se  Se238  1  0.91794785  0.41352253  0.70111198  1
  Se  Se239  1  0.91620762  0.74727086  0.19480017  1
  Se  Se240  1  0.91115758  0.75514205  0.68763089  1
  Se  Se241  1  0.08349689  0.24351491  0.18775640  1
  Se  Se242  1  0.08625610  0.24674799  0.70154786  1
  Se  Se243  1  0.07707016  0.59121052  0.19784258  1
  Se  Se244  1  0.09581876  0.57046833  0.68809056  1
  Se  Se245  1  0.09044500  0.91395538  0.17946469  1
  Se  Se246  1  0.08158857  0.91665539  0.70253963  1
  Se  Se247  1  0.40380078  0.26310961  0.19212180  1
  Se  Se248  1  0.41560748  0.25193903  0.69551038  1
  Se  Se249  1  0.41006414  0.59052270  0.20162453  1
  Se  Se250  1  0.41818498  0.58147423  0.69783404  1
  Se  Se251  1  0.41531295  0.91472585  0.19641153  1
  Se  Se252  1  0.41649942  0.91926015  0.70326860  1
  Se  Se253  1  0.74239718  0.25588896  0.20280203  1
  Se  Se254  1  0.74996247  0.24882758  0.70292034  1
  Se  Se255  1  0.75060438  0.58017903  0.18008927  1
  Se  Se256  1  0.75032825  0.58490067  0.69919929  1
  Se  Se257  1  0.76085296  0.91186974  0.19432844  1
  Se  Se258  1  0.75341299  0.91207317  0.69329173  1
