# generated using pymatgen
data_In86Cu29Se144
_symmetry_space_group_name_H-M   'P 1'
_cell_length_a   17.58393963
_cell_length_b   17.59605698
_cell_length_c   23.45865592
_cell_angle_alpha   89.99620706
_cell_angle_beta   89.99902495
_cell_angle_gamma   89.99201538
_symmetry_Int_Tables_number   1
_chemical_formula_structural   In86Cu29Se144
_chemical_formula_sum   'In86 Cu29 Se144'
_cell_volume   7258.29580601
_cell_formula_units_Z   1
loop_
 _symmetry_equiv_pos_site_id
 _symmetry_equiv_pos_as_xyz
  1  'x, y, z'
loop_
 _atom_site_type_symbol
 _atom_site_label
 _atom_site_symmetry_multiplicity
 _atom_site_fract_x
 _atom_site_fract_y
 _atom_site_fract_z
 _atom_site_occupancy
  In  In0  1  -0.01895888  0.16669214  0.12711989  1
  In  In1  1  -0.00468708  0.15721416  0.61351791  1
  In  In2  1  0.00938910  0.51164470  0.11932128  1
  In  In3  1  -0.00101164  0.50943345  0.62975905  1
  In  In4  1  -0.00311186  0.83152296  0.12219250  1
  In  In5  1  -0.01537625  0.82689002  0.62879412  1
  In  In6  1  0.35106176  0.16974148  0.12573164  1
  In  In7  1  0.34376031  0.17595633  0.61378982  1
  In  In8  1  0.33623168  0.49710976  0.12420001  1
  In  In9  1  0.34547344  0.50233061  0.62424565  1
  In  In10  1  0.33220400  0.82886471  0.11351369  1
  In  In11  1  0.32736060  0.82879336  0.63286802  1
  In  In12  1  0.67217246  0.17565321  0.12152596  1
  In  In13  1  0.66496071  0.16928584  0.62814646  1
  In  In14  1  0.66550813  0.49775783  0.12107140  1
  In  In15  1  0.64780240  0.51563018  0.63251503  1
  In  In16  1  0.65494499  0.81902677  0.11159814  1
  In  In17  1  0.67300424  0.82832058  0.63837782  1
  In  In18  1  0.16261731  0.01314607  0.37350397  1
  In  In19  1  0.15309503  -0.00509880  0.87514847  1
  In  In20  1  0.17212809  0.32293805  0.37209723  1
  In  In21  1  0.17830107  0.34027313  0.87770063  1
  In  In22  1  0.16120952  0.67110193  0.37420792  1
  In  In23  1  0.16827587  0.66588390  0.88029705  1
  In  In24  1  0.51501639  0.01358161  0.37808283  1
  In  In25  1  0.51171650  -0.00595988  0.87683722  1
  In  In26  1  0.50372579  0.33266616  0.37160976  1
  In  In27  1  0.51651401  0.32259020  0.88545951  1
  In  In28  1  0.50839761  0.64751934  0.39219553  1
  In  In29  1  0.50235534  0.66678033  0.87596079  1
  In  In30  1  0.84224847  -0.00423766  0.37368341  1
  In  In31  1  0.82446110  0.00935189  0.88320810  1
  In  In32  1  0.81619291  0.34010078  0.37315196  1
  In  In33  1  0.82009576  0.34531813  0.88353285  1
  In  In34  1  0.82867314  0.66683735  0.36521103  1
  In  In35  1  0.82891818  0.66865496  0.87405118  1
  In  In36  1  0.00557283  0.16202684  0.37638404  1
  In  In37  1  -0.00767610  0.15453415  0.87419555  1
  In  In38  1  -0.01086448  0.51003675  0.36960869  1
  In  In39  1  -0.01467368  0.51509030  0.88742763  1
  In  In40  1  -0.01309634  0.82826251  0.36445040  1
  In  In41  1  0.00697827  0.82643016  0.88554209  1
  In  In42  1  0.33205640  0.17672620  0.37536891  1
  In  In43  1  0.34682994  0.17930915  0.87102695  1
  In  In44  1  0.37430109  0.50448397  0.37060916  1
  In  In45  1  0.32920583  0.50612899  0.88386338  1
  In  In46  1  0.33088046  0.82319148  0.37534738  1
  In  In47  1  0.34652519  0.82029172  0.88391055  1
  In  In48  1  0.65170511  0.17559181  0.39515591  1
  In  In49  1  0.66325837  0.16915172  0.87250580  1
  In  In50  1  0.65724791  0.49564930  0.36435988  1
  In  In51  1  0.66467796  0.50068261  0.87626463  1
  In  In52  1  0.67665162  0.83515488  0.37287795  1
  In  In53  1  0.67072404  0.82876154  0.87491299  1
  In  In54  1  0.16357884  -0.01681867  0.12167813  1
  In  In55  1  0.15936850  0.00145566  0.62218625  1
  In  In56  1  0.16969822  0.34897802  0.12622369  1
  In  In57  1  0.18037692  0.33365739  0.61892853  1
  In  In58  1  0.16201961  0.66179700  0.12090268  1
  In  In59  1  0.15936332  0.67132376  0.63643701  1
  In  In60  1  0.50436629  0.00207291  0.11373050  1
  In  In61  1  0.51461544  0.01401435  0.62316262  1
  In  In62  1  0.50820892  0.33769457  0.12602421  1
  In  In63  1  0.50683737  0.33908683  0.62386352  1
  In  In64  1  0.50429487  0.66477376  0.12017802  1
  In  In65  1  0.50501518  0.65783141  0.62901387  1
  In  In66  1  0.83609300  0.00419550  0.11971805  1
  In  In67  1  0.80392242  0.00357015  0.63109989  1
  In  In68  1  0.81964689  0.32747718  0.11900392  1
  In  In69  1  0.82636732  0.31599799  0.62075380  1
  In  In70  1  0.83069871  0.66606311  0.11851112  1
  In  In71  1  0.83218139  0.67140668  0.63846541  1
  In  In72  1  0.34073152  -0.00290768  0.75511327  1
  In  In73  1  -0.00270600  0.33873552  0.75036995  1
  In  In74  1  0.67568324  0.00074971  0.25104092  1
  In  In75  1  -0.00849090  -0.00945050  0.74696638  1
  In  In76  1  0.17018708  0.49768291  0.49509756  1
  In  In77  1  0.34228223  0.33965566  0.74373297  1
  In  In78  1  0.82791866  0.50112267  0.49942273  1
  In  In79  1  0.49889353  0.83412536  0.50790076  1
  In  In80  1  0.83035109  0.83464523  0.50658316  1
  In  In81  1  -0.00203228  0.33933983  0.24602842  1
  In  In82  1  0.16593820  0.16693708  -0.00620855  1
  In  In83  1  0.32729496  0.00107107  0.24784963  1
  In  In84  1  0.16427508  0.83416455  0.50509214  1
  In  In85  1  0.33797113  0.65985361  0.24553373  1
  Cu  Cu86  1  -0.00210560  0.33371285  0.00667748  1
  Cu  Cu87  1  0.00113286  0.66654901  0.00101358  1
  Cu  Cu88  1  0.83092031  0.16643104  0.24955307  1
  Cu  Cu89  1  0.83015801  0.82762098  0.24204820  1
  Cu  Cu90  1  0.16289576  0.16286014  0.25131190  1
  Cu  Cu91  1  0.33853575  0.33616179  0.00107663  1
  Cu  Cu92  1  0.33919424  0.32916255  0.49570505  1
  Cu  Cu93  1  0.00107164  0.00300895  0.49682242  1
  Cu  Cu94  1  0.82675837  0.49979244  0.75712682  1
  Cu  Cu95  1  0.16247570  0.51045468  0.75769695  1
  Cu  Cu96  1  0.66651736  0.00016127  -0.00237584  1
  Cu  Cu97  1  0.33611896  0.66542190  0.00122627  1
  Cu  Cu98  1  0.00363247  0.32779595  0.49764895  1
  Cu  Cu99  1  0.50640402  0.17571814  0.25046936  1
  Cu  Cu100  1  0.15374828  0.83095809  0.24779214  1
  Cu  Cu101  1  0.66802676  0.66360423  -0.00501887  1
  Cu  Cu102  1  0.49685742  0.50187653  0.75567497  1
  Cu  Cu103  1  0.82963565  0.50745493  0.24328543  1
  Cu  Cu104  1  0.49823591  0.82918061  0.24270657  1
  Cu  Cu105  1  -0.00454993  -0.00254440  0.00013804  1
  Cu  Cu106  1  0.33530964  0.00038537  -0.00320669  1
  Cu  Cu107  1  0.17226722  0.50449788  0.24624923  1
  Cu  Cu108  1  0.34170906  0.00750802  0.49526505  1
  Cu  Cu109  1  0.16886742  0.16761001  0.73800090  1
  Cu  Cu110  1  0.82129595  0.17099965  0.75319141  1
  Cu  Cu111  1  0.66229075  0.33593983  0.50068318  1
  Cu  Cu112  1  0.66378360  0.33331946  0.00015316  1
  Cu  Cu113  1  0.50266472  0.83012690  0.75663373  1
  Cu  Cu114  1  0.16790630  0.82162099  0.75870918  1
  Se  Se115  1  0.07668167  0.08230645  0.05926088  1
  Se  Se116  1  0.09053349  0.08444229  0.54743677  1
  Se  Se117  1  0.08560326  0.41820544  0.05294940  1
  Se  Se118  1  0.07511298  0.41200146  0.55949936  1
  Se  Se119  1  0.08491913  0.75121857  0.05416946  1
  Se  Se120  1  0.07105734  0.74269474  0.55904460  1
  Se  Se121  1  0.41616141  0.08549799  0.04983818  1
  Se  Se122  1  0.42539370  0.08487275  0.55204589  1
  Se  Se123  1  0.42176489  0.41712240  0.05610564  1
  Se  Se124  1  0.41538934  0.41276630  0.55463484  1
  Se  Se125  1  0.42288479  0.74952350  0.05113529  1
  Se  Se126  1  0.40655844  0.74334879  0.56290272  1
  Se  Se127  1  0.74721126  0.08409128  0.05441831  1
  Se  Se128  1  0.76206309  0.10143907  0.55905931  1
  Se  Se129  1  0.75074902  0.41874442  0.04913011  1
  Se  Se130  1  0.74022735  0.41549158  0.56358412  1
  Se  Se131  1  0.75204164  0.74973507  0.04648195  1
  Se  Se132  1  0.74210415  0.73815095  0.56071205  1
  Se  Se133  1  0.25392681  0.25346089  0.05895581  1
  Se  Se134  1  0.24993756  0.24813229  0.54641461  1
  Se  Se135  1  0.25408550  0.58310829  0.05758228  1
  Se  Se136  1  0.24553548  0.58719825  0.56533586  1
  Se  Se137  1  0.25071883  0.91697859  0.04823179  1
  Se  Se138  1  0.26344800  0.92753712  0.55747545  1
  Se  Se139  1  0.58078876  0.24826835  0.05351208  1
  Se  Se140  1  0.58262570  0.25023169  0.55566488  1
  Se  Se141  1  0.58471209  0.58168688  0.05041359  1
  Se  Se142  1  0.57523873  0.58078719  0.55110534  1
  Se  Se143  1  0.58059180  0.91414907  0.04692950  1
  Se  Se144  1  0.59879633  0.91667430  0.56276789  1
  Se  Se145  1  0.91115626  0.24807530  0.05266496  1
  Se  Se146  1  0.91646070  0.24782888  0.54945707  1
  Se  Se147  1  0.91614190  0.58126133  0.05135826  1
  Se  Se148  1  0.91627433  0.59202005  0.55943651  1
  Se  Se149  1  0.91244576  0.91357799  0.05292719  1
  Se  Se150  1  0.92147294  0.93080519  0.56260940  1
  Se  Se151  1  0.08801438  0.24793835  0.44310646  1
  Se  Se152  1  0.07267336  0.25882568  0.93665988  1
  Se  Se153  1  0.07162090  0.58986598  0.44426708  1
  Se  Se154  1  0.08751617  0.58138790  0.95028546  1
  Se  Se155  1  0.07539064  0.91704694  0.43698888  1
  Se  Se156  1  0.08617956  0.91655070  0.95287163  1
  Se  Se157  1  0.42495011  0.24652303  0.44336684  1
  Se  Se158  1  0.41949982  0.24858095  0.95058878  1
  Se  Se159  1  0.40335156  0.59049268  0.45517515  1
  Se  Se160  1  0.42112226  0.58396926  0.94786666  1
  Se  Se161  1  0.41390857  0.92113395  0.43578671  1
  Se  Se162  1  0.42090099  0.91792266  0.94472635  1
  Se  Se163  1  0.75278399  0.25638421  0.45002863  1
  Se  Se164  1  0.74636098  0.24813967  0.94578778  1
  Se  Se165  1  0.74160976  0.58691700  0.43547588  1
  Se  Se166  1  0.75334723  0.57934732  0.94426674  1
  Se  Se167  1  0.74406259  0.92802554  0.44509152  1
  Se  Se168  1  0.74931934  0.91421687  0.94664063  1
  Se  Se169  1  0.25373106  0.08435042  0.44095534  1
  Se  Se170  1  0.25832682  0.07908302  0.93211369  1
  Se  Se171  1  0.26273111  0.41265596  0.43419158  1
  Se  Se172  1  0.24951544  0.41873826  0.95314260  1
  Se  Se173  1  0.25469207  0.73907800  0.44864766  1
  Se  Se174  1  0.25049078  0.74999869  0.94971224  1
  Se  Se175  1  0.58868809  0.07454523  0.45897160  1
  Se  Se176  1  0.58375467  0.08583742  0.94527355  1
  Se  Se177  1  0.58412056  0.41763539  0.44169114  1
  Se  Se178  1  0.58193872  0.42239938  0.94993015  1
  Se  Se179  1  0.59268572  0.75195518  0.44457230  1
  Se  Se180  1  0.58340505  0.75077146  0.94536468  1
  Se  Se181  1  0.91621890  0.08411004  0.44335227  1
  Se  Se182  1  0.91417582  0.08735309  0.95181205  1
  Se  Se183  1  0.92356004  0.41025387  0.43968154  1
  Se  Se184  1  0.91543363  0.41550299  0.94995892  1
  Se  Se185  1  0.91544557  0.74437728  0.44110559  1
  Se  Se186  1  0.91431269  0.74555538  0.94703918  1
  Se  Se187  1  0.25110799  0.24624444  0.29792044  1
  Se  Se188  1  0.24397265  0.24667743  0.80137988  1
  Se  Se189  1  0.25042453  0.57645147  0.31473508  1
  Se  Se190  1  0.25341819  0.58586392  0.80946640  1
  Se  Se191  1  0.23848528  0.90704620  0.30868759  1
  Se  Se192  1  0.24598306  0.90907561  0.81350500  1
  Se  Se193  1  0.59414337  0.24677337  0.30843912  1
  Se  Se194  1  0.58374451  0.25503016  0.80390396  1
  Se  Se195  1  0.57529716  0.59083347  0.30591967  1
  Se  Se196  1  0.58419773  0.58453769  0.80598677  1
  Se  Se197  1  0.57448814  0.91158491  0.30557393  1
  Se  Se198  1  0.58893060  0.91444366  0.80422205  1
  Se  Se199  1  0.91146620  0.25024244  0.30947688  1
  Se  Se200  1  0.90880696  0.24732011  0.81106401  1
  Se  Se201  1  0.91560198  0.58888393  0.29545874  1
  Se  Se202  1  0.91456618  0.58248381  0.80559778  1
  Se  Se203  1  0.90998759  0.91521679  0.29595272  1
  Se  Se204  1  0.91407047  0.91406975  0.82099768  1
  Se  Se205  1  0.07608164  0.08015046  0.29922327  1
  Se  Se206  1  0.08908975  0.08986629  0.79925517  1
  Se  Se207  1  0.09018067  0.42570402  0.30930197  1
  Se  Se208  1  0.08505448  0.42505034  0.81521543  1
  Se  Se209  1  0.07705469  0.74415560  0.30235922  1
  Se  Se210  1  0.07989820  0.74439716  0.81096486  1
  Se  Se211  1  0.42483837  0.08776876  0.30482446  1
  Se  Se212  1  0.43203939  0.09174395  0.80663143  1
  Se  Se213  1  0.41269357  0.40226700  0.30070040  1
  Se  Se214  1  0.42092926  0.41915124  0.81715111  1
  Se  Se215  1  0.42500514  0.75045171  0.30841814  1
  Se  Se216  1  0.41580793  0.74623670  0.80435098  1
  Se  Se217  1  0.75209754  0.09394888  0.31646163  1
  Se  Se218  1  0.74643862  0.08009907  0.80569074  1
  Se  Se219  1  0.74947426  0.42093054  0.29656426  1
  Se  Se220  1  0.74296463  0.41337033  0.80486029  1
  Se  Se221  1  0.74422148  0.75088686  0.29845345  1
  Se  Se222  1  0.73717051  0.73652651  0.80397617  1
  Se  Se223  1  0.24106623  0.08995189  0.18343559  1
  Se  Se224  1  0.25413094  0.08572278  0.68605447  1
  Se  Se225  1  0.25603860  0.41794000  0.19867593  1
  Se  Se226  1  0.23933921  0.43002907  0.69413688  1
  Se  Se227  1  0.24566243  0.75742026  0.19173765  1
  Se  Se228  1  0.25346017  0.74371577  0.70340428  1
  Se  Se229  1  0.57910183  0.08651913  0.19119819  1
  Se  Se230  1  0.60264723  0.07114287  0.69812640  1
  Se  Se231  1  0.60354127  0.40428190  0.19389323  1
  Se  Se232  1  0.57883664  0.41929639  0.69980885  1
  Se  Se233  1  0.58395822  0.74709491  0.19227981  1
  Se  Se234  1  0.58086079  0.74587150  0.69852650  1
  Se  Se235  1  0.91137723  0.07931332  0.19897891  1
  Se  Se236  1  0.90843811  0.09417541  0.69401576  1
  Se  Se237  1  0.90974160  0.42493895  0.18307608  1
  Se  Se238  1  0.90238622  0.42225417  0.68910759  1
  Se  Se239  1  0.91583761  0.74561141  0.18986483  1
  Se  Se240  1  0.92148184  0.74715495  0.70561973  1
  Se  Se241  1  0.08747207  0.24529201  0.18698762  1
  Se  Se242  1  0.08472302  0.24916085  0.68390409  1
  Se  Se243  1  0.08479052  0.58601487  0.19732654  1
  Se  Se244  1  0.07505662  0.58761575  0.70339138  1
  Se  Se245  1  0.07562906  0.91785403  0.19457324  1
  Se  Se246  1  0.09439193  0.90310753  0.69328534  1
  Se  Se247  1  0.42139556  0.25573520  0.19680151  1
  Se  Se248  1  0.42891589  0.23984915  0.69267567  1
  Se  Se249  1  0.43333711  0.57022882  0.19308103  1
  Se  Se250  1  0.41437301  0.58386372  0.69998852  1
  Se  Se251  1  0.41955435  0.91334040  0.18690261  1
  Se  Se252  1  0.42928557  0.91127965  0.68992747  1
  Se  Se253  1  0.74885684  0.25111301  0.19801030  1
  Se  Se254  1  0.74293249  0.25749114  0.69964870  1
  Se  Se255  1  0.74513483  0.58810545  0.18894428  1
  Se  Se256  1  0.74660821  0.58179751  0.69883028  1
  Se  Se257  1  0.74833731  0.90747783  0.18256619  1
  Se  Se258  1  0.77989600  0.89267060  0.69807314  1
