# generated using pymatgen
data_In86Cu29Se144
_symmetry_space_group_name_H-M   'P 1'
_cell_length_a   17.58436627
_cell_length_b   17.58386197
_cell_length_c   23.43955757
_cell_angle_alpha   90.02662707
_cell_angle_beta   90.01561577
_cell_angle_gamma   90.01822988
_symmetry_Int_Tables_number   1
_chemical_formula_structural   In86Cu29Se144
_chemical_formula_sum   'In86 Cu29 Se144'
_cell_volume   7247.53484566
_cell_formula_units_Z   1
loop_
 _symmetry_equiv_pos_site_id
 _symmetry_equiv_pos_as_xyz
  1  'x, y, z'
loop_
 _atom_site_type_symbol
 _atom_site_label
 _atom_site_symmetry_multiplicity
 _atom_site_fract_x
 _atom_site_fract_y
 _atom_site_fract_z
 _atom_site_occupancy
  In  In0  1  0.00817011  0.17155695  0.11431441  1
  In  In1  1  0.00421875  0.16919654  0.61721588  1
  In  In2  1  -0.00618367  0.49037760  0.12729643  1
  In  In3  1  0.00508867  0.49247413  0.63456204  1
  In  In4  1  0.00069150  0.84515140  0.10781005  1
  In  In5  1  -0.01156985  0.82353489  0.62061222  1
  In  In6  1  0.33615150  0.15684655  0.12628741  1
  In  In7  1  0.31997767  0.17173368  0.62560354  1
  In  In8  1  0.31742766  0.49167113  0.12516566  1
  In  In9  1  0.33695803  0.50545026  0.61490665  1
  In  In10  1  0.32411048  0.84747618  0.12924380  1
  In  In11  1  0.32058406  0.84505588  0.63159952  1
  In  In12  1  0.66874753  0.16430645  0.12962371  1
  In  In13  1  0.67984934  0.15567913  0.62409325  1
  In  In14  1  0.66742140  0.49863394  0.13425346  1
  In  In15  1  0.67043197  0.51504252  0.61780637  1
  In  In16  1  0.68432971  0.82556232  0.13843067  1
  In  In17  1  0.67285148  0.82154567  0.62825113  1
  In  In18  1  0.16798638  0.00111861  0.37404321  1
  In  In19  1  0.16904593  -0.00805320  0.88616772  1
  In  In20  1  0.16630015  0.32636767  0.37390827  1
  In  In21  1  0.15844425  0.33594617  0.87547882  1
  In  In22  1  0.15989123  0.67417120  0.38534921  1
  In  In23  1  0.16645622  0.67158396  0.86391082  1
  In  In24  1  0.50004374  -0.00173477  0.36451802  1
  In  In25  1  0.50269122  0.01100134  0.88091549  1
  In  In26  1  0.50143905  0.33776995  0.37206094  1
  In  In27  1  0.49753940  0.32437172  0.88167222  1
  In  In28  1  0.50588965  0.65704136  0.37903515  1
  In  In29  1  0.49807931  0.67194394  0.86373930  1
  In  In30  1  0.83792594  0.00030899  0.37301886  1
  In  In31  1  0.84568961  -0.00529195  0.89629033  1
  In  In32  1  0.82891493  0.32675643  0.37165026  1
  In  In33  1  0.84150599  0.32425160  0.87756299  1
  In  In34  1  0.83205842  0.68037226  0.37575699  1
  In  In35  1  0.85541977  0.68702011  0.84320564  1
  In  In36  1  0.00230363  0.17421879  0.37932712  1
  In  In37  1  -0.00169320  0.16982824  0.88544257  1
  In  In38  1  0.01338835  0.49249930  0.38548011  1
  In  In39  1  -0.00360383  0.50108292  0.85730777  1
  In  In40  1  0.00054269  0.83549463  0.38006378  1
  In  In41  1  0.00336786  0.83377551  0.87958732  1
  In  In42  1  0.31525437  0.15596377  0.36119691  1
  In  In43  1  0.33683399  0.15883782  0.88308568  1
  In  In44  1  0.33995399  0.49742526  0.38138187  1
  In  In45  1  0.32270296  0.50124487  0.86961452  1
  In  In46  1  0.31971453  0.84344796  0.37134251  1
  In  In47  1  0.32022907  0.82907352  0.86515864  1
  In  In48  1  0.67423085  0.17024494  0.36717908  1
  In  In49  1  0.67757600  0.15875242  0.88959619  1
  In  In50  1  0.65731872  0.49194211  0.37061552  1
  In  In51  1  0.66068668  0.50957752  0.87115282  1
  In  In52  1  0.68861682  0.84413321  0.35602495  1
  In  In53  1  0.67680624  0.82885991  0.87434879  1
  In  In54  1  0.16652903  0.00740233  0.11977475  1
  In  In55  1  0.17170294  0.00616419  0.61979669  1
  In  In56  1  0.19674934  0.29152630  0.16554149  1
  In  In57  1  0.14579073  0.32578473  0.60718127  1
  In  In58  1  0.15320696  0.67695516  0.12249349  1
  In  In59  1  0.16540963  0.67000196  0.62383353  1
  In  In60  1  0.49063993  0.00893743  0.13473156  1
  In  In61  1  0.49871914  -0.00971033  0.62522597  1
  In  In62  1  0.51345470  0.31983799  0.13633711  1
  In  In63  1  0.48595460  0.33346336  0.61756360  1
  In  In64  1  0.50701332  0.67630115  0.12302041  1
  In  In65  1  0.50509406  0.65770623  0.62644819  1
  In  In66  1  0.82962590  -0.01221515  0.11978460  1
  In  In67  1  0.83789918  0.00180890  0.61680962  1
  In  In68  1  0.84903043  0.32032808  0.14116139  1
  In  In69  1  0.86961297  0.33609618  0.61862553  1
  In  In70  1  0.82733631  0.66854229  0.12426969  1
  In  In71  1  0.82738738  0.67190326  0.63876633  1
  In  In72  1  0.67281625  0.33778179  0.74885503  1
  In  In73  1  0.66968213  -0.00181753  0.75735305  1
  In  In74  1  0.00230126  0.00178242  0.24840758  1
  In  In75  1  0.49994676  0.17127288  0.48987641  1
  In  In76  1  0.83632932  0.50049270  0.50468622  1
  In  In77  1  0.34033734  0.66396371  0.25120277  1
  In  In78  1  0.82906839  0.49977248  -0.00358583  1
  In  In79  1  0.50345682  0.82475524  0.50269662  1
  In  In80  1  0.49729381  0.49459874  -0.00454453  1
  In  In81  1  0.49728375  0.84430575  0.00839037  1
  In  In82  1  0.00292805  -0.00315793  0.76050650  1
  In  In83  1  0.16127628  0.49308176  -0.00180481  1
  In  In84  1  -0.00371803  0.66775054  0.25511187  1
  In  In85  1  0.32699337  0.34146391  0.74711119  1
  Cu  Cu86  1  0.50057652  0.50380128  0.74277247  1
  Cu  Cu87  1  0.66303799  0.00366909  0.00871137  1
  Cu  Cu88  1  0.49955939  0.16354532  0.75987541  1
  Cu  Cu89  1  0.67009182  0.67200993  -0.00164268  1
  Cu  Cu90  1  0.67329386  0.32558935  0.01068283  1
  Cu  Cu91  1  -0.00008273  0.67114796  0.50442729  1
  Cu  Cu92  1  0.33634142  0.31927044  0.01049017  1
  Cu  Cu93  1  0.67002119  0.66890256  0.50252465  1
  Cu  Cu94  1  0.16533881  0.49696970  0.25859363  1
  Cu  Cu95  1  0.16508225  0.16790093  0.74392074  1
  Cu  Cu96  1  0.83187076  0.16103252  0.24992544  1
  Cu  Cu97  1  0.48783719  0.83425915  0.74735057  1
  Cu  Cu98  1  0.50756617  0.82916886  0.24790164  1
  Cu  Cu99  1  0.32383638  0.33686329  0.49580886  1
  Cu  Cu100  1  0.32774833  0.66971649  0.49976308  1
  Cu  Cu101  1  0.49974125  0.50015461  0.25350071  1
  Cu  Cu102  1  0.84447834  0.17023268  0.75455608  1
  Cu  Cu103  1  0.68021095  -0.00419668  0.49309428  1
  Cu  Cu104  1  0.32265622  0.67534938  -0.00879703  1
  Cu  Cu105  1  0.16009300  0.83560421  0.74944407  1
  Cu  Cu106  1  0.32823146  0.00078038  0.00348222  1
  Cu  Cu107  1  0.66683889  0.33325073  0.49432765  1
  Cu  Cu108  1  0.49807411  0.17138476  0.25100145  1
  Cu  Cu109  1  0.33204851  0.00424165  0.49777306  1
  Cu  Cu110  1  -0.00242027  0.67146379  -0.00850671  1
  Cu  Cu111  1  0.00745307  0.33113861  0.00573134  1
  Cu  Cu112  1  0.16820406  0.50409600  0.74238012  1
  Cu  Cu113  1  0.83155193  0.49874856  0.25457543  1
  Cu  Cu114  1  0.00611939  -0.00018997  0.49789992  1
  Se  Se115  1  0.07193540  0.07119209  0.04983115  1
  Se  Se116  1  0.08818824  0.08568890  0.55056543  1
  Se  Se117  1  0.08813062  0.40527015  0.06848181  1
  Se  Se118  1  0.07065262  0.42532638  0.55042250  1
  Se  Se119  1  0.08340824  0.75237838  0.04458326  1
  Se  Se120  1  0.08645442  0.75655913  0.55396458  1
  Se  Se121  1  0.41955055  0.07940513  0.05319432  1
  Se  Se122  1  0.41537914  0.08225171  0.55779551  1
  Se  Se123  1  0.41477100  0.40845239  0.06403094  1
  Se  Se124  1  0.41434610  0.41693851  0.54542157  1
  Se  Se125  1  0.40317786  0.74492753  0.05885673  1
  Se  Se126  1  0.40679195  0.74665696  0.56449777  1
  Se  Se127  1  0.75143326  0.08548593  0.05839753  1
  Se  Se128  1  0.75644353  0.08455195  0.54704800  1
  Se  Se129  1  0.75255567  0.41059437  0.06677111  1
  Se  Se130  1  0.74633989  0.40482198  0.56275638  1
  Se  Se131  1  0.75044235  0.75385063  0.05403865  1
  Se  Se132  1  0.75626296  0.74692637  0.55659403  1
  Se  Se133  1  0.24598526  0.24719148  0.06567995  1
  Se  Se134  1  0.24759469  0.24858667  0.55005713  1
  Se  Se135  1  0.25057405  0.59190114  0.05539853  1
  Se  Se136  1  0.24466796  0.58528167  0.55233552  1
  Se  Se137  1  0.24436237  0.91379019  0.05179307  1
  Se  Se138  1  0.25124548  0.91844289  0.55111991  1
  Se  Se139  1  0.58324639  0.24463402  0.05763339  1
  Se  Se140  1  0.59076642  0.25130639  0.55984616  1
  Se  Se141  1  0.59122997  0.58566072  0.05441634  1
  Se  Se142  1  0.57958769  0.58423781  0.54713238  1
  Se  Se143  1  0.59088841  0.92130213  0.07249567  1
  Se  Se144  1  0.59763776  0.92241954  0.55669883  1
  Se  Se145  1  0.91252041  0.25534024  0.05440578  1
  Se  Se146  1  0.90047091  0.22816870  0.55141675  1
  Se  Se147  1  0.92565829  0.58900456  0.05583214  1
  Se  Se148  1  0.92002966  0.59266531  0.56640329  1
  Se  Se149  1  0.90343852  0.91097229  0.04310865  1
  Se  Se150  1  0.91999099  0.91739330  0.55042834  1
  Se  Se151  1  0.08756166  0.25078696  0.44892130  1
  Se  Se152  1  0.09135752  0.25099323  0.94979920  1
  Se  Se153  1  0.08302809  0.58626612  0.45296572  1
  Se  Se154  1  0.07613260  0.58483655  0.93462996  1
  Se  Se155  1  0.08908501  0.91660208  0.44440562  1
  Se  Se156  1  0.06113980  0.93469920  0.94690523  1
  Se  Se157  1  0.40155970  0.25398477  0.43373607  1
  Se  Se158  1  0.42030163  0.24277957  0.95173002  1
  Se  Se159  1  0.41601626  0.58817284  0.44924521  1
  Se  Se160  1  0.40706109  0.59170436  0.93896413  1
  Se  Se161  1  0.41772698  0.92209447  0.44330981  1
  Se  Se162  1  0.40583878  0.91980631  0.93942870  1
  Se  Se163  1  0.74822792  0.24688425  0.44441813  1
  Se  Se164  1  0.75805535  0.25199515  0.95095597  1
  Se  Se165  1  0.74573133  0.58475719  0.44003300  1
  Se  Se166  1  0.74854301  0.59498168  0.93575924  1
  Se  Se167  1  0.75885934  0.90867052  0.44063580  1
  Se  Se168  1  0.73783676  0.91994116  0.94818740  1
  Se  Se169  1  0.24806821  0.08657187  0.44493505  1
  Se  Se170  1  0.24563510  0.08606978  0.95076454  1
  Se  Se171  1  0.24276716  0.42100687  0.44176552  1
  Se  Se172  1  0.26472302  0.40374250  0.94509281  1
  Se  Se173  1  0.25203353  0.75805336  0.44584800  1
  Se  Se174  1  0.23794989  0.75542437  0.93950243  1
  Se  Se175  1  0.59145065  0.07324869  0.43832549  1
  Se  Se176  1  0.58112641  0.08722755  0.95456515  1
  Se  Se177  1  0.57982374  0.41673986  0.44704054  1
  Se  Se178  1  0.59936050  0.40523016  0.94415801  1
  Se  Se179  1  0.59847912  0.75099239  0.43664736  1
  Se  Se180  1  0.57837864  0.74755835  0.94405507  1
  Se  Se181  1  0.92189878  0.07983446  0.44169488  1
  Se  Se182  1  0.90547415  0.10198405  0.95369161  1
  Se  Se183  1  0.91864963  0.40540486  0.44474989  1
  Se  Se184  1  0.93307875  0.41573376  0.94289163  1
  Se  Se185  1  0.91723215  0.75182117  0.44818220  1
  Se  Se186  1  0.90856367  0.74535393  0.93642457  1
  Se  Se187  1  0.24941614  0.25643568  0.29731279  1
  Se  Se188  1  0.24705469  0.24497161  0.80869889  1
  Se  Se189  1  0.24319830  0.58447107  0.31397147  1
  Se  Se190  1  0.25097448  0.58514080  0.79806354  1
  Se  Se191  1  0.25410818  0.93087699  0.29982305  1
  Se  Se192  1  0.24027104  0.92301237  0.80334756  1
  Se  Se193  1  0.58306297  0.25232404  0.30510272  1
  Se  Se194  1  0.58776999  0.24190743  0.81303269  1
  Se  Se195  1  0.58474645  0.58565933  0.30238633  1
  Se  Se196  1  0.58163368  0.58664716  0.79841994  1
  Se  Se197  1  0.58756415  0.91884421  0.29793462  1
  Se  Se198  1  0.57082844  0.90788958  0.81194844  1
  Se  Se199  1  0.91424357  0.24369796  0.30504704  1
  Se  Se200  1  0.92927328  0.25224849  0.80658175  1
  Se  Se201  1  0.91343315  0.57335005  0.31845268  1
  Se  Se202  1  0.91400713  0.57649419  0.78769931  1
  Se  Se203  1  0.91353875  0.90462664  0.30331002  1
  Se  Se204  1  0.90217031  0.91171921  0.81207256  1
  Se  Se205  1  0.08931270  0.09515846  0.30566594  1
  Se  Se206  1  0.09297850  0.09301881  0.81340967  1
  Se  Se207  1  0.07940336  0.41301326  0.30712788  1
  Se  Se208  1  0.09090388  0.41718168  0.79897605  1
  Se  Se209  1  0.09235273  0.75972116  0.30691161  1
  Se  Se210  1  0.07481309  0.75381036  0.80205615  1
  Se  Se211  1  0.41550071  0.08297337  0.30045710  1
  Se  Se212  1  0.41372352  0.07973792  0.80831162  1
  Se  Se213  1  0.41368056  0.41921424  0.30499331  1
  Se  Se214  1  0.42849382  0.42218639  0.80885085  1
  Se  Se215  1  0.42568212  0.75698339  0.31381590  1
  Se  Se216  1  0.40626367  0.74723416  0.79870434  1
  Se  Se217  1  0.75035378  0.07630945  0.30284279  1
  Se  Se218  1  0.76564180  0.08733623  0.81366925  1
  Se  Se219  1  0.74698768  0.41340111  0.30513924  1
  Se  Se220  1  0.75896962  0.42234881  0.81440011  1
  Se  Se221  1  0.75412310  0.74050418  0.29512704  1
  Se  Se222  1  0.73433427  0.74335730  0.79785747  1
  Se  Se223  1  0.25189351  0.07458991  0.19370810  1
  Se  Se224  1  0.25084743  0.08216732  0.69637563  1
  Se  Se225  1  0.25426715  0.41788403  0.20644885  1
  Se  Se226  1  0.23955534  0.41924410  0.67893954  1
  Se  Se227  1  0.24389046  0.75077821  0.19471757  1
  Se  Se228  1  0.24568837  0.75249121  0.69673977  1
  Se  Se229  1  0.58248154  0.08585312  0.19995485  1
  Se  Se230  1  0.57852182  0.08862088  0.69436265  1
  Se  Se231  1  0.58506036  0.41564348  0.20131075  1
  Se  Se232  1  0.57585203  0.41784450  0.68469578  1
  Se  Se233  1  0.58950808  0.74176556  0.19866114  1
  Se  Se234  1  0.57384136  0.75540289  0.69269453  1
  Se  Se235  1  0.91232929  0.08724395  0.18515533  1
  Se  Se236  1  0.91761346  0.08479739  0.69317655  1
  Se  Se237  1  0.92092115  0.41755656  0.20567242  1
  Se  Se238  1  0.90605295  0.42380606  0.69958439  1
  Se  Se239  1  0.92149503  0.75535904  0.18391690  1
  Se  Se240  1  0.91518097  0.75724223  0.70116552  1
  Se  Se241  1  0.06219629  0.25639396  0.19523161  1
  Se  Se242  1  0.08247062  0.24981266  0.69033463  1
  Se  Se243  1  0.08952331  0.57602760  0.19396497  1
  Se  Se244  1  0.08201701  0.59013423  0.69493025  1
  Se  Se245  1  0.08733656  0.90865428  0.18702556  1
  Se  Se246  1  0.08339600  0.91614201  0.68691467  1
  Se  Se247  1  0.41164203  0.24938002  0.19585801  1
  Se  Se248  1  0.42292190  0.24282733  0.69618456  1
  Se  Se249  1  0.42444049  0.57388150  0.18408154  1
  Se  Se250  1  0.41069570  0.58266237  0.69240120  1
  Se  Se251  1  0.41861134  0.91076941  0.19879196  1
  Se  Se252  1  0.41058565  0.92555880  0.69791480  1
  Se  Se253  1  0.74679609  0.25029189  0.20126657  1
  Se  Se254  1  0.76191129  0.24411760  0.69147709  1
  Se  Se255  1  0.75543592  0.58292096  0.19676534  1
  Se  Se256  1  0.74024225  0.58210553  0.69803958  1
  Se  Se257  1  0.75013517  0.92623239  0.20055164  1
  Se  Se258  1  0.75755398  0.91636197  0.69118331  1
