# generated using pymatgen
data_In86Cu29Se144
_symmetry_space_group_name_H-M   'P 1'
_cell_length_a   17.58851823
_cell_length_b   17.58775933
_cell_length_c   23.44144518
_cell_angle_alpha   90.00025556
_cell_angle_beta   90.00329044
_cell_angle_gamma   90.00600677
_symmetry_Int_Tables_number   1
_chemical_formula_structural   In86Cu29Se144
_chemical_formula_sum   'In86 Cu29 Se144'
_cell_volume   7251.43814936
_cell_formula_units_Z   1
loop_
 _symmetry_equiv_pos_site_id
 _symmetry_equiv_pos_as_xyz
  1  'x, y, z'
loop_
 _atom_site_type_symbol
 _atom_site_label
 _atom_site_symmetry_multiplicity
 _atom_site_fract_x
 _atom_site_fract_y
 _atom_site_fract_z
 _atom_site_occupancy
  In  In0  1  0.00169281  0.15113025  0.12835444  1
  In  In1  1  0.00137478  0.16470419  0.62159431  1
  In  In2  1  0.02959310  0.48847456  0.13525280  1
  In  In3  1  0.00320628  0.48839912  0.62579628  1
  In  In4  1  -0.00084045  0.83531503  0.13758576  1
  In  In5  1  0.01250512  0.84861359  0.61759210  1
  In  In6  1  0.32778159  0.17578648  0.13579547  1
  In  In7  1  0.32774017  0.16109608  0.61465890  1
  In  In8  1  0.31868901  0.50623931  0.14379616  1
  In  In9  1  0.34596288  0.51486561  0.60488928  1
  In  In10  1  0.32917363  0.83379614  0.13711537  1
  In  In11  1  0.33061368  0.84130528  0.62932449  1
  In  In12  1  0.67392320  0.16399071  0.14155570  1
  In  In13  1  0.65939441  0.16123645  0.61306305  1
  In  In14  1  0.65084328  0.49625253  0.12994093  1
  In  In15  1  0.66610167  0.51417874  0.62253218  1
  In  In16  1  0.67477400  0.83962915  0.12567478  1
  In  In17  1  0.67002254  0.82592417  0.62689154  1
  In  In18  1  0.16680777  -0.00110847  0.37640782  1
  In  In19  1  0.17592332  0.00831496  0.86934133  1
  In  In20  1  0.16812845  0.33043207  0.37407539  1
  In  In21  1  0.16387023  0.33954205  0.87748648  1
  In  In22  1  0.17570081  0.66966751  0.38433183  1
  In  In23  1  0.16988462  0.65488529  0.87458516  1
  In  In24  1  0.51191864  0.01052041  0.36881783  1
  In  In25  1  0.50301297  0.00246189  0.86165602  1
  In  In26  1  0.50266515  0.33314075  0.38810669  1
  In  In27  1  0.49889217  0.33978069  0.87594996  1
  In  In28  1  0.47250461  0.66254787  0.38178797  1
  In  In29  1  0.51028814  0.68264360  0.85031194  1
  In  In30  1  0.83215258  0.00534647  0.37999154  1
  In  In31  1  0.83137031  0.00572319  0.85896513  1
  In  In32  1  0.81566078  0.32703640  0.37648879  1
  In  In33  1  0.83841521  0.30902320  0.87116718  1
  In  In34  1  0.84413074  0.66704785  0.37592365  1
  In  In35  1  0.83402050  0.67804574  0.87038277  1
  In  In36  1  0.00511938  0.15664423  0.37876167  1
  In  In37  1  0.00556704  0.17766802  0.86174925  1
  In  In38  1  0.00681904  0.51628430  0.36699027  1
  In  In39  1  0.02207409  0.50209101  0.87517203  1
  In  In40  1  -0.00102178  0.83576196  0.38297468  1
  In  In41  1  -0.00856712  0.83484072  0.87165510  1
  In  In42  1  0.33267293  0.16439375  0.37565961  1
  In  In43  1  0.33058596  0.15654932  0.87257469  1
  In  In44  1  0.33226760  0.50448101  0.38256486  1
  In  In45  1  0.32043950  0.50126310  0.87371462  1
  In  In46  1  0.32033938  0.82314156  0.37410150  1
  In  In47  1  0.34299040  0.83773102  0.85808620  1
  In  In48  1  0.66765574  0.16639116  0.38427293  1
  In  In49  1  0.67033375  0.15191816  0.87216850  1
  In  In50  1  0.65928704  0.48299518  0.38008611  1
  In  In51  1  0.65116095  0.49810783  0.87073715  1
  In  In52  1  0.66387107  0.85360945  0.37790378  1
  In  In53  1  0.67481641  0.84596651  0.85646698  1
  In  In54  1  0.15693766  0.00633816  0.13157782  1
  In  In55  1  0.16707094  0.00326677  0.62342261  1
  In  In56  1  0.17202342  0.33626955  0.12112725  1
  In  In57  1  0.16062373  0.32897210  0.61438638  1
  In  In58  1  0.17742952  0.65407255  0.13913557  1
  In  In59  1  0.18199231  0.68113896  0.60371925  1
  In  In60  1  0.50028717  -0.00216658  0.13168760  1
  In  In61  1  0.49096377  0.00082100  0.63103625  1
  In  In62  1  0.50070880  0.33074905  0.14237979  1
  In  In63  1  0.51006809  0.32551160  0.60279808  1
  In  In64  1  0.49170778  0.65288742  0.12964973  1
  In  In65  1  0.50191055  0.67348711  0.62835785  1
  In  In66  1  0.83123452  0.00827956  0.13986292  1
  In  In67  1  0.84060636  0.00249519  0.62242828  1
  In  In68  1  0.83431219  0.30856476  0.13766214  1
  In  In69  1  0.85020568  0.33367328  0.62483043  1
  In  In70  1  0.83973075  0.68003854  0.13056388  1
  In  In71  1  0.81878954  0.66744258  0.62315906  1
  In  In72  1  0.47836222  0.49943258  0.00184936  1
  In  In73  1  0.49484730  0.83475500  0.50026945  1
  In  In74  1  0.00272354  0.66602808  0.74861531  1
  In  In75  1  0.67235664  0.33063200  0.74392345  1
  In  In76  1  0.83681093  0.15751878  0.00683690  1
  In  In77  1  0.66128661  0.66877130  0.24818890  1
  In  In78  1  0.16763227  0.83246130  -0.00057431  1
  In  In79  1  0.83981644  0.49701444  0.00351961  1
  In  In80  1  -0.00233616  0.33113018  0.25972955  1
  In  In81  1  0.49547243  0.16682743  -0.00511137  1
  In  In82  1  0.33078367  0.33489723  0.74005943  1
  In  In83  1  0.83517048  0.83994267  -0.00947692  1
  In  In84  1  0.49872117  0.83542946  0.00235362  1
  In  In85  1  0.83694582  0.49756740  0.49514878  1
  Cu  Cu86  1  0.83404523  0.84155944  0.25836210  1
  Cu  Cu87  1  0.83235960  0.49680243  0.25591362  1
  Cu  Cu88  1  0.49400676  0.83673653  0.25839026  1
  Cu  Cu89  1  0.33394852  -0.00171786  0.49905888  1
  Cu  Cu90  1  0.50150031  0.16825940  0.74332312  1
  Cu  Cu91  1  0.83635008  0.83391058  0.74245460  1
  Cu  Cu92  1  0.16980212  0.83647427  0.74229829  1
  Cu  Cu93  1  0.00013573  0.66942819  0.49701572  1
  Cu  Cu94  1  0.32803134  0.32740500  0.49452957  1
  Cu  Cu95  1  -0.00293260  0.00080557  0.00189019  1
  Cu  Cu96  1  0.16872707  0.16406529  0.25544032  1
  Cu  Cu97  1  0.01265077  0.65858209  0.01044451  1
  Cu  Cu98  1  0.32101503  0.33569247  0.00811843  1
  Cu  Cu99  1  0.00187984  0.00335768  0.50064876  1
  Cu  Cu100  1  0.66532929  0.66834826  -0.01147496  1
  Cu  Cu101  1  0.16723568  0.16501657  0.73979962  1
  Cu  Cu102  1  0.66009256  0.66850438  0.49987070  1
  Cu  Cu103  1  0.49578200  0.49621385  0.26049881  1
  Cu  Cu104  1  0.50110930  0.16829611  0.26046824  1
  Cu  Cu105  1  0.00009551  0.33025564  0.49485453  1
  Cu  Cu106  1  0.83247054  0.49631981  0.74481571  1
  Cu  Cu107  1  0.49971360  0.50619582  0.74052416  1
  Cu  Cu108  1  0.17029895  0.50135566  0.74423871  1
  Cu  Cu109  1  0.66907921  0.32772219  0.01277992  1
  Cu  Cu110  1  0.32764320  0.65986110  -0.00017086  1
  Cu  Cu111  1  0.67310455  0.00092570  0.49864815  1
  Cu  Cu112  1  0.32836112  0.00383581  -0.00207789  1
  Cu  Cu113  1  0.16053135  0.83210704  0.25879159  1
  Cu  Cu114  1  0.00864251  0.33400140  -0.00485413  1
  Se  Se115  1  0.08445252  0.08210389  0.05244293  1
  Se  Se116  1  0.08846431  0.08628000  0.55168248  1
  Se  Se117  1  0.08881024  0.41755891  0.05008328  1
  Se  Se118  1  0.07946029  0.41784005  0.54745685  1
  Se  Se119  1  0.08379880  0.74823736  0.06720473  1
  Se  Se120  1  0.08223726  0.75750444  0.54678705  1
  Se  Se121  1  0.41049498  0.07931493  0.06044889  1
  Se  Se122  1  0.42092910  0.07937164  0.55274957  1
  Se  Se123  1  0.40633947  0.40760709  0.07053990  1
  Se  Se124  1  0.41423070  0.40892547  0.54718156  1
  Se  Se125  1  0.40709635  0.74061076  0.05996039  1
  Se  Se126  1  0.40539575  0.74483738  0.55795996  1
  Se  Se127  1  0.73876595  0.07368885  0.06282878  1
  Se  Se128  1  0.75637466  0.08339718  0.55200696  1
  Se  Se129  1  0.74947790  0.41042553  0.06886024  1
  Se  Se130  1  0.75156866  0.41730248  0.56352448  1
  Se  Se131  1  0.74572415  0.74400356  0.05205559  1
  Se  Se132  1  0.74790537  0.75042718  0.54918322  1
  Se  Se133  1  0.24634814  0.24024073  0.05608307  1
  Se  Se134  1  0.24450047  0.24430491  0.54832389  1
  Se  Se135  1  0.25150416  0.57953151  0.06038721  1
  Se  Se136  1  0.22729756  0.56207264  0.55058669  1
  Se  Se137  1  0.25531121  0.92238566  0.06103594  1
  Se  Se138  1  0.25110767  0.91806961  0.55526290  1
  Se  Se139  1  0.58235790  0.24889712  0.06644072  1
  Se  Se140  1  0.60350667  0.25500329  0.53724288  1
  Se  Se141  1  0.58672992  0.58996809  0.05210687  1
  Se  Se142  1  0.57714388  0.58778330  0.55419246  1
  Se  Se143  1  0.59266346  0.92618387  0.05647921  1
  Se  Se144  1  0.58903856  0.92115558  0.55923261  1
  Se  Se145  1  0.92929919  0.25644052  0.05811038  1
  Se  Se146  1  0.91923811  0.24909575  0.55064195  1
  Se  Se147  1  0.92477843  0.58503741  0.06873518  1
  Se  Se148  1  0.92172379  0.58875519  0.56049309  1
  Se  Se149  1  0.91788932  0.92290982  0.06289676  1
  Se  Se150  1  0.91699413  0.91609536  0.55005076  1
  Se  Se151  1  0.08565894  0.24755972  0.44289147  1
  Se  Se152  1  0.08479085  0.24589509  0.94068823  1
  Se  Se153  1  0.08191996  0.58318088  0.44672463  1
  Se  Se154  1  0.09349340  0.58045716  0.95198069  1
  Se  Se155  1  0.08579085  0.91872971  0.44896222  1
  Se  Se156  1  0.07597798  0.92143979  0.93968824  1
  Se  Se157  1  0.41557513  0.24175079  0.44810951  1
  Se  Se158  1  0.40202012  0.26431765  0.94145249  1
  Se  Se159  1  0.41487748  0.57792794  0.45844503  1
  Se  Se160  1  0.41398974  0.59568290  0.93205456  1
  Se  Se161  1  0.41388314  0.92356120  0.43415323  1
  Se  Se162  1  0.41045352  0.92537105  0.93870615  1
  Se  Se163  1  0.74397203  0.25498827  0.45494979  1
  Se  Se164  1  0.74090979  0.24890507  0.94715337  1
  Se  Se165  1  0.74135672  0.58930694  0.43822533  1
  Se  Se166  1  0.74819166  0.58325009  0.93653833  1
  Se  Se167  1  0.75614175  0.91339601  0.45065129  1
  Se  Se168  1  0.74300191  0.93070482  0.93580105  1
  Se  Se169  1  0.24992630  0.08181592  0.44578620  1
  Se  Se170  1  0.24537700  0.08880039  0.94743905  1
  Se  Se171  1  0.24512214  0.41428712  0.44534552  1
  Se  Se172  1  0.24739731  0.42022821  0.94788815  1
  Se  Se173  1  0.25401224  0.75300013  0.45563129  1
  Se  Se174  1  0.26049962  0.74865152  0.93701661  1
  Se  Se175  1  0.58069382  0.08020890  0.45093803  1
  Se  Se176  1  0.58678283  0.07075985  0.94336912  1
  Se  Se177  1  0.58187755  0.41911044  0.45814202  1
  Se  Se178  1  0.58889864  0.41009756  0.95262518  1
  Se  Se179  1  0.58447393  0.74598516  0.43481032  1
  Se  Se180  1  0.58927948  0.75361639  0.93234872  1
  Se  Se181  1  0.91552337  0.08731461  0.45071335  1
  Se  Se182  1  0.92150828  0.07833036  0.93576995  1
  Se  Se183  1  0.92572310  0.41212253  0.43051969  1
  Se  Se184  1  0.92224484  0.40780276  0.93539666  1
  Se  Se185  1  0.91071217  0.75176332  0.45040778  1
  Se  Se186  1  0.93219240  0.73567523  0.94748205  1
  Se  Se187  1  0.25148377  0.24932804  0.30528770  1
  Se  Se188  1  0.24525510  0.24623132  0.80434488  1
  Se  Se189  1  0.25627059  0.59058296  0.31212329  1
  Se  Se190  1  0.25133180  0.58462192  0.79838313  1
  Se  Se191  1  0.24921221  0.91625288  0.30583183  1
  Se  Se192  1  0.24947402  0.92033120  0.79965444  1
  Se  Se193  1  0.58300398  0.25113703  0.31550302  1
  Se  Se194  1  0.57564142  0.24718816  0.80921438  1
  Se  Se195  1  0.57724110  0.58360355  0.31520286  1
  Se  Se196  1  0.58987346  0.58282894  0.79401724  1
  Se  Se197  1  0.58609720  0.92015158  0.29883897  1
  Se  Se198  1  0.57305685  0.91010759  0.79559992  1
  Se  Se199  1  0.90657142  0.23922391  0.31387582  1
  Se  Se200  1  0.91321731  0.24538278  0.79237479  1
  Se  Se201  1  0.91429039  0.58788119  0.29899126  1
  Se  Se202  1  0.91323809  0.57353751  0.81116805  1
  Se  Se203  1  0.91819381  0.92056635  0.31271135  1
  Se  Se204  1  0.91842580  0.91530801  0.79902267  1
  Se  Se205  1  0.08319459  0.07964263  0.30420977  1
  Se  Se206  1  0.08769863  0.08457558  0.80084620  1
  Se  Se207  1  0.09482255  0.42777266  0.30320020  1
  Se  Se208  1  0.09046114  0.41819713  0.80017323  1
  Se  Se209  1  0.08349073  0.74947329  0.31689840  1
  Se  Se210  1  0.09419407  0.75784389  0.80957548  1
  Se  Se211  1  0.41325968  0.08060045  0.30450739  1
  Se  Se212  1  0.41633348  0.08860723  0.79908613  1
  Se  Se213  1  0.41826582  0.41530050  0.31843574  1
  Se  Se214  1  0.42253419  0.42618660  0.80328786  1
  Se  Se215  1  0.41126299  0.74836937  0.30417907  1
  Se  Se216  1  0.39757003  0.73333180  0.79443868  1
  Se  Se217  1  0.73105941  0.06908761  0.31523268  1
  Se  Se218  1  0.74995541  0.09177304  0.79444277  1
  Se  Se219  1  0.74551732  0.41670492  0.30501384  1
  Se  Se220  1  0.75618896  0.41952034  0.81289599  1
  Se  Se221  1  0.74958980  0.75535276  0.31193989  1
  Se  Se222  1  0.75385911  0.74924632  0.79617187  1
  Se  Se223  1  0.24984453  0.08065675  0.19818428  1
  Se  Se224  1  0.25642550  0.08313463  0.69238279  1
  Se  Se225  1  0.25299845  0.39962511  0.19940913  1
  Se  Se226  1  0.24661942  0.42466010  0.67885027  1
  Se  Se227  1  0.24750246  0.75117571  0.20384277  1
  Se  Se228  1  0.24569798  0.74713655  0.69028999  1
  Se  Se229  1  0.57794196  0.08455044  0.20020626  1
  Se  Se230  1  0.58488044  0.08561230  0.69080349  1
  Se  Se231  1  0.58416262  0.41746992  0.20758762  1
  Se  Se232  1  0.57639760  0.41682525  0.68468775  1
  Se  Se233  1  0.56985072  0.76027265  0.18750176  1
  Se  Se234  1  0.59108942  0.74450127  0.69709451  1
  Se  Se235  1  0.91310213  0.09290873  0.20327970  1
  Se  Se236  1  0.93429666  0.07093190  0.69102938  1
  Se  Se237  1  0.91144813  0.42078615  0.19042785  1
  Se  Se238  1  0.92242084  0.41444770  0.70071920  1
  Se  Se239  1  0.91514902  0.75406442  0.20629739  1
  Se  Se240  1  0.91796367  0.75299472  0.68341865  1
  Se  Se241  1  0.08656634  0.24445941  0.19354360  1
  Se  Se242  1  0.08494786  0.25200575  0.69036631  1
  Se  Se243  1  0.06709780  0.59904269  0.19949138  1
  Se  Se244  1  0.09157076  0.58403023  0.68396939  1
  Se  Se245  1  0.08280673  0.91893946  0.20237333  1
  Se  Se246  1  0.08423300  0.92274793  0.69619255  1
  Se  Se247  1  0.41426781  0.24974269  0.20691480  1
  Se  Se248  1  0.42603847  0.24870271  0.68157718  1
  Se  Se249  1  0.41498132  0.58294628  0.20657175  1
  Se  Se250  1  0.41123082  0.58460961  0.68905116  1
  Se  Se251  1  0.41428476  0.91961296  0.19970381  1
  Se  Se252  1  0.42640556  0.90427630  0.69831524  1
  Se  Se253  1  0.73809772  0.25858309  0.20915526  1
  Se  Se254  1  0.75579434  0.24248299  0.68205607  1
  Se  Se255  1  0.75489409  0.57704946  0.18929286  1
  Se  Se256  1  0.74952697  0.58349125  0.69829618  1
  Se  Se257  1  0.74752301  0.91665867  0.20085054  1
  Se  Se258  1  0.75374706  0.91658693  0.68897194  1
