# generated using pymatgen
data_In86Cu29Se144
_symmetry_space_group_name_H-M   'P 1'
_cell_length_a   17.57643540
_cell_length_b   17.57955689
_cell_length_c   23.43387323
_cell_angle_alpha   90.01390873
_cell_angle_beta   90.01768111
_cell_angle_gamma   89.99535770
_symmetry_Int_Tables_number   1
_chemical_formula_structural   In86Cu29Se144
_chemical_formula_sum   'In86 Cu29 Se144'
_cell_volume   7240.73690987
_cell_formula_units_Z   1
loop_
 _symmetry_equiv_pos_site_id
 _symmetry_equiv_pos_as_xyz
  1  'x, y, z'
loop_
 _atom_site_type_symbol
 _atom_site_label
 _atom_site_symmetry_multiplicity
 _atom_site_fract_x
 _atom_site_fract_y
 _atom_site_fract_z
 _atom_site_occupancy
  In  In0  1  -0.00105704  0.15088620  0.12376040  1
  In  In1  1  -0.00325020  0.16571383  0.62594941  1
  In  In2  1  -0.00482356  0.51128570  0.12523875  1
  In  In3  1  -0.02556081  0.49337172  0.62241208  1
  In  In4  1  -0.00306091  0.84661420  0.12983584  1
  In  In5  1  0.01119285  0.84063783  0.61497210  1
  In  In6  1  0.32836630  0.17115526  0.13078395  1
  In  In7  1  0.31681507  0.16719846  0.62102251  1
  In  In8  1  0.34080510  0.47960467  0.13477876  1
  In  In9  1  0.34753695  0.49873791  0.61885406  1
  In  In10  1  0.35013785  0.82832685  0.12984680  1
  In  In11  1  0.34525154  0.84354890  0.61292735  1
  In  In12  1  0.65822315  0.17574883  0.14052457  1
  In  In13  1  0.69092388  0.16968817  0.61579727  1
  In  In14  1  0.66312796  0.49900347  0.12671347  1
  In  In15  1  0.66652590  0.49522281  0.62347776  1
  In  In16  1  0.66777478  0.83236473  0.13103700  1
  In  In17  1  0.66397772  0.83996528  0.60788110  1
  In  In18  1  0.16622467  0.00363421  0.37550208  1
  In  In19  1  0.17102855  0.00848047  0.86986701  1
  In  In20  1  0.16340226  0.32118793  0.37540536  1
  In  In21  1  0.15272799  0.33239760  0.87674118  1
  In  In22  1  0.18136196  0.67633948  0.38438331  1
  In  In23  1  0.16715097  0.66329837  0.87326970  1
  In  In24  1  0.49517488  -0.00732625  0.37031067  1
  In  In25  1  0.49120618  0.00265835  0.87492908  1
  In  In26  1  0.50996100  0.35282799  0.36053095  1
  In  In27  1  0.51423663  0.34117094  0.86853496  1
  In  In28  1  0.51272389  0.64824012  0.38593298  1
  In  In29  1  0.50853227  0.66443856  0.88475681  1
  In  In30  1  0.83262872  -0.00367861  0.37626268  1
  In  In31  1  0.83310149  -0.01264420  0.87256712  1
  In  In32  1  0.82019149  0.34207898  0.38663680  1
  In  In33  1  0.83588366  0.34416119  0.86566314  1
  In  In34  1  0.82191368  0.68144576  0.38586651  1
  In  In35  1  0.82923158  0.66949605  0.87950635  1
  In  In36  1  0.00634862  0.15521373  0.38404165  1
  In  In37  1  0.00675546  0.17509641  0.87216086  1
  In  In38  1  -0.00686514  0.49090201  0.38024046  1
  In  In39  1  -0.00630274  0.48543642  0.86933177  1
  In  In40  1  -0.01585009  0.84543809  0.38861796  1
  In  In41  1  -0.01460841  0.83056668  0.87098171  1
  In  In42  1  0.32756916  0.16217573  0.36969913  1
  In  In43  1  0.33569212  0.14873664  0.87462078  1
  In  In44  1  0.35148778  0.50700489  0.36742447  1
  In  In45  1  0.34012759  0.50784915  0.87535697  1
  In  In46  1  0.32496877  0.83821069  0.38502965  1
  In  In47  1  0.33259721  0.84553222  0.87610439  1
  In  In48  1  0.67475055  0.17112041  0.37255609  1
  In  In49  1  0.65657699  0.17773182  0.87283401  1
  In  In50  1  0.66415672  0.50480378  0.37101511  1
  In  In51  1  0.66901006  0.49773549  0.87798107  1
  In  In52  1  0.66932356  0.83269720  0.37356095  1
  In  In53  1  0.67051927  0.83228775  0.88427370  1
  In  In54  1  0.15694968  0.00634789  0.13145139  1
  In  In55  1  0.16314194  0.00379672  0.62464089  1
  In  In56  1  0.18322359  0.33058102  0.12423544  1
  In  In57  1  0.16442883  0.31500995  0.62186512  1
  In  In58  1  0.16707086  0.66349256  0.12847292  1
  In  In59  1  0.15199590  0.67525776  0.61434636  1
  In  In60  1  0.50911650  -0.00741477  0.13863811  1
  In  In61  1  0.50160692  -0.01299855  0.62130430  1
  In  In62  1  0.49680263  0.33973945  0.13387740  1
  In  In63  1  0.50978608  0.35214548  0.62207077  1
  In  In64  1  0.51156565  0.67834878  0.12302877  1
  In  In65  1  0.50077563  0.66938262  0.61272196  1
  In  In66  1  0.83970148  -0.00689216  0.13440705  1
  In  In67  1  0.83705069  0.01346312  0.61239722  1
  In  In68  1  0.81630571  0.33880297  0.12891184  1
  In  In69  1  0.83450954  0.33523797  0.62840692  1
  In  In70  1  0.82044916  0.65567879  0.12082933  1
  In  In71  1  0.83054565  0.66116246  0.61122664  1
  In  In72  1  0.33964471  0.66862794  0.25508514  1
  In  In73  1  0.00078768  0.32766770  0.25900643  1
  In  In74  1  0.16600951  0.49687259  0.00090740  1
  In  In75  1  0.49714379  0.16402247  -0.00014257  1
  In  In76  1  0.33301728  0.32784160  0.74953844  1
  In  In77  1  0.83102024  0.16282033  0.00498076  1
  In  In78  1  -0.00237335  0.66552226  0.74681068  1
  In  In79  1  0.66698585  0.66343299  0.74057904  1
  In  In80  1  0.17094914  0.50120091  0.50035293  1
  In  In81  1  0.00063118  0.67205098  0.25758746  1
  In  In82  1  0.50084597  0.16584997  0.48594891  1
  In  In83  1  0.16612686  0.83217257  0.00276363  1
  In  In84  1  0.66615898  0.00560183  0.74558282  1
  In  In85  1  0.33727890  0.67406725  0.73617215  1
  Cu  Cu86  1  0.50266253  0.83065334  0.25530574  1
  Cu  Cu87  1  0.66638326  0.66989058  0.00480026  1
  Cu  Cu88  1  0.16756584  0.16334354  0.25172106  1
  Cu  Cu89  1  0.16725013  0.84363404  0.25763992  1
  Cu  Cu90  1  0.66942876  -0.00685367  0.00945165  1
  Cu  Cu91  1  0.66718749  0.33529897  0.49672022  1
  Cu  Cu92  1  0.16012138  0.15951530  0.74775602  1
  Cu  Cu93  1  0.82715430  0.50092614  0.25303681  1
  Cu  Cu94  1  0.66675774  0.34263392  0.00060062  1
  Cu  Cu95  1  0.83669137  0.17035981  0.74614959  1
  Cu  Cu96  1  -0.01276281  0.66627826  -0.00054809  1
  Cu  Cu97  1  0.83706079  0.16179657  0.25476844  1
  Cu  Cu98  1  0.33542663  -0.00488212  0.00105255  1
  Cu  Cu99  1  0.32670553  0.00678071  0.49690272  1
  Cu  Cu100  1  0.49412801  0.83696843  0.74735261  1
  Cu  Cu101  1  0.33855823  0.33525334  0.49833478  1
  Cu  Cu102  1  0.16663591  0.84599745  0.74466503  1
  Cu  Cu103  1  -0.00025531  -0.00291947  0.00287835  1
  Cu  Cu104  1  0.66828839  0.66500850  0.49503588  1
  Cu  Cu105  1  -0.00778224  0.32760277  0.50180627  1
  Cu  Cu106  1  0.00104006  0.00508825  0.50076999  1
  Cu  Cu107  1  0.83142484  0.83205582  0.25637290  1
  Cu  Cu108  1  0.83623958  0.83710886  0.74396793  1
  Cu  Cu109  1  0.33943874  0.32817271  0.00471571  1
  Cu  Cu110  1  -0.00607506  0.33191653  -0.00414736  1
  Cu  Cu111  1  0.34372364  0.66191112  0.00471732  1
  Cu  Cu112  1  0.49893851  0.16561526  0.25678620  1
  Cu  Cu113  1  0.16519778  0.49471834  0.74436983  1
  Cu  Cu114  1  0.49653426  0.16556975  0.74585908  1
  Se  Se115  1  0.08654068  0.08141663  0.05094175  1
  Se  Se116  1  0.08372464  0.08939839  0.55511079  1
  Se  Se117  1  0.07448407  0.40841757  0.06175822  1
  Se  Se118  1  0.07774664  0.40986436  0.55963047  1
  Se  Se119  1  0.07184045  0.74052289  0.06076815  1
  Se  Se120  1  0.08304451  0.75720409  0.54109744  1
  Se  Se121  1  0.41422057  0.07448522  0.06435040  1
  Se  Se122  1  0.41281330  0.08431250  0.55625936  1
  Se  Se123  1  0.42050099  0.41384764  0.05568887  1
  Se  Se124  1  0.42516840  0.41937578  0.54603663  1
  Se  Se125  1  0.42245240  0.75382762  0.05243917  1
  Se  Se126  1  0.41553622  0.74951990  0.54777457  1
  Se  Se127  1  0.73967667  0.08097178  0.06948453  1
  Se  Se128  1  0.72668719  0.06154653  0.54887355  1
  Se  Se129  1  0.75210722  0.42377400  0.05342461  1
  Se  Se130  1  0.75115329  0.41380836  0.55531380  1
  Se  Se131  1  0.75037614  0.75427742  0.05723391  1
  Se  Se132  1  0.75057411  0.75110952  0.54754141  1
  Se  Se133  1  0.25233910  0.24358202  0.05115972  1
  Se  Se134  1  0.25022052  0.25134059  0.54493901  1
  Se  Se135  1  0.25979433  0.58373396  0.06234707  1
  Se  Se136  1  0.25903681  0.59231475  0.56151310  1
  Se  Se137  1  0.25596035  0.91821398  0.06501197  1
  Se  Se138  1  0.24747464  0.92336509  0.55443623  1
  Se  Se139  1  0.58904683  0.25442922  0.05732734  1
  Se  Se140  1  0.58584615  0.25249191  0.55558311  1
  Se  Se141  1  0.58350354  0.58379959  0.05623961  1
  Se  Se142  1  0.58967859  0.58192271  0.55346325  1
  Se  Se143  1  0.58109419  0.91442001  0.06147553  1
  Se  Se144  1  0.57240651  0.91471995  0.54330127  1
  Se  Se145  1  0.91893164  0.25687817  0.06454491  1
  Se  Se146  1  0.90967139  0.24604894  0.55785847  1
  Se  Se147  1  0.90949992  0.57796207  0.05166373  1
  Se  Se148  1  0.93252412  0.59301531  0.54977319  1
  Se  Se149  1  0.91350676  0.91705340  0.05521972  1
  Se  Se150  1  0.91705991  0.91883768  0.55160320  1
  Se  Se151  1  0.08143128  0.24959695  0.44984642  1
  Se  Se152  1  0.08316073  0.24769630  0.95093672  1
  Se  Se153  1  0.08064052  0.58671299  0.43862077  1
  Se  Se154  1  0.07226876  0.58794893  0.94030149  1
  Se  Se155  1  0.08457096  0.92235973  0.44668590  1
  Se  Se156  1  0.07769852  0.91790871  0.93860621  1
  Se  Se157  1  0.41463344  0.26212744  0.42998742  1
  Se  Se158  1  0.41343168  0.25500003  0.93412854  1
  Se  Se159  1  0.40750309  0.58674311  0.44855363  1
  Se  Se160  1  0.42302547  0.57762934  0.94925937  1
  Se  Se161  1  0.41452509  0.92380190  0.44799802  1
  Se  Se162  1  0.42153954  0.91529493  0.94817937  1
  Se  Se163  1  0.75056342  0.24381691  0.45189160  1
  Se  Se164  1  0.74534893  0.25579551  0.94344291  1
  Se  Se165  1  0.75076845  0.57732044  0.44425721  1
  Se  Se166  1  0.74547687  0.58710609  0.94594249  1
  Se  Se167  1  0.77343808  0.89031752  0.43970700  1
  Se  Se168  1  0.75376964  0.91825469  0.95005106  1
  Se  Se169  1  0.24477578  0.09218365  0.44534288  1
  Se  Se170  1  0.25121079  0.07806389  0.94828734  1
  Se  Se171  1  0.25650737  0.41285657  0.43600855  1
  Se  Se172  1  0.25928307  0.40753265  0.93982072  1
  Se  Se173  1  0.25276342  0.75454117  0.45884285  1
  Se  Se174  1  0.25936158  0.73865977  0.94369990  1
  Se  Se175  1  0.59329827  0.07212597  0.43532681  1
  Se  Se176  1  0.59493368  0.07336043  0.94344068  1
  Se  Se177  1  0.58436907  0.41827407  0.44264843  1
  Se  Se178  1  0.57870374  0.42096155  0.94749538  1
  Se  Se179  1  0.58489147  0.75118066  0.44440310  1
  Se  Se180  1  0.58282594  0.75512900  0.95146719  1
  Se  Se181  1  0.91033938  0.08318472  0.44840225  1
  Se  Se182  1  0.92048042  0.07768617  0.94044612  1
  Se  Se183  1  0.91164105  0.41791205  0.45392464  1
  Se  Se184  1  0.91146169  0.41703345  0.94543362  1
  Se  Se185  1  0.93124819  0.73392774  0.44791493  1
  Se  Se186  1  0.91042635  0.75566006  0.94708574  1
  Se  Se187  1  0.24878433  0.25150414  0.30137389  1
  Se  Se188  1  0.24153038  0.23963551  0.81052537  1
  Se  Se189  1  0.24133744  0.58158419  0.30935018  1
  Se  Se190  1  0.24588177  0.57810071  0.80010770  1
  Se  Se191  1  0.25572975  0.92191231  0.30908310  1
  Se  Se192  1  0.25216270  0.92040793  0.80317643  1
  Se  Se193  1  0.58655139  0.24952754  0.30490717  1
  Se  Se194  1  0.58057553  0.25031651  0.79608002  1
  Se  Se195  1  0.57309926  0.57756068  0.30229009  1
  Se  Se196  1  0.57799897  0.58218200  0.80693949  1
  Se  Se197  1  0.58766749  0.91691931  0.30401129  1
  Se  Se198  1  0.58103742  0.91088198  0.80854219  1
  Se  Se199  1  0.90885887  0.24403145  0.32002140  1
  Se  Se200  1  0.91753721  0.25122783  0.80481539  1
  Se  Se201  1  0.90816981  0.57943867  0.31283311  1
  Se  Se202  1  0.90619798  0.57924092  0.80760446  1
  Se  Se203  1  0.91918847  0.91598262  0.30476936  1
  Se  Se204  1  0.91896860  0.91959230  0.79762336  1
  Se  Se205  1  0.08069473  0.08361680  0.30474115  1
  Se  Se206  1  0.07577934  0.07995884  0.80407937  1
  Se  Se207  1  0.09129697  0.42511046  0.31023953  1
  Se  Se208  1  0.08400424  0.41352459  0.80018585  1
  Se  Se209  1  0.08982922  0.76143575  0.31751029  1
  Se  Se210  1  0.09293776  0.75881263  0.80533089  1
  Se  Se211  1  0.41325935  0.07961961  0.30360512  1
  Se  Se212  1  0.41706523  0.07926776  0.79820684  1
  Se  Se213  1  0.41238714  0.41767318  0.29362103  1
  Se  Se214  1  0.42128079  0.42617440  0.80251950  1
  Se  Se215  1  0.42334598  0.75597414  0.31981118  1
  Se  Se216  1  0.42139754  0.75389466  0.81065182  1
  Se  Se217  1  0.75091586  0.07924509  0.30570220  1
  Se  Se218  1  0.75595359  0.09350147  0.81092309  1
  Se  Se219  1  0.74839758  0.41351171  0.30650049  1
  Se  Se220  1  0.73302765  0.40866372  0.80446279  1
  Se  Se221  1  0.74768130  0.74360418  0.30281380  1
  Se  Se222  1  0.75374761  0.75932201  0.80371402  1
  Se  Se223  1  0.25093459  0.08013089  0.19717451  1
  Se  Se224  1  0.25019549  0.08236827  0.69613194  1
  Se  Se225  1  0.24056829  0.41899441  0.19913563  1
  Se  Se226  1  0.24786639  0.41894113  0.68398166  1
  Se  Se227  1  0.24167992  0.76012368  0.19526337  1
  Se  Se228  1  0.23962359  0.76198437  0.68349442  1
  Se  Se229  1  0.58585804  0.08176642  0.20571202  1
  Se  Se230  1  0.57923922  0.09290932  0.68159387  1
  Se  Se231  1  0.60326194  0.39795505  0.19427638  1
  Se  Se232  1  0.59140781  0.41589558  0.69848746  1
  Se  Se233  1  0.58704547  0.74856965  0.20188818  1
  Se  Se234  1  0.57767062  0.76218732  0.68695457  1
  Se  Se235  1  0.92117736  0.08078954  0.20084701  1
  Se  Se236  1  0.91232981  0.08028110  0.69364070  1
  Se  Se237  1  0.91345365  0.42214537  0.19600829  1
  Se  Se238  1  0.92097926  0.40881808  0.70063830  1
  Se  Se239  1  0.90912000  0.75231652  0.19100151  1
  Se  Se240  1  0.91192296  0.75450350  0.68317519  1
  Se  Se241  1  0.08636727  0.24320445  0.18955746  1
  Se  Se242  1  0.08030208  0.24847018  0.69713249  1
  Se  Se243  1  0.08992573  0.57575903  0.19842857  1
  Se  Se244  1  0.08681248  0.57595682  0.68509429  1
  Se  Se245  1  0.08008482  0.92006005  0.20184437  1
  Se  Se246  1  0.07614951  0.92237211  0.69351686  1
  Se  Se247  1  0.41833911  0.24702733  0.19753227  1
  Se  Se248  1  0.42167736  0.24654123  0.68179154  1
  Se  Se249  1  0.42425477  0.58426523  0.18797245  1
  Se  Se250  1  0.43378611  0.57794187  0.69135872  1
  Se  Se251  1  0.41625265  0.91445539  0.20408258  1
  Se  Se252  1  0.41175602  0.92055975  0.69466776  1
  Se  Se253  1  0.75546445  0.24954501  0.20359721  1
  Se  Se254  1  0.74786487  0.25065530  0.69661702  1
  Se  Se255  1  0.74517301  0.58337684  0.19791882  1
  Se  Se256  1  0.76549020  0.57482691  0.69040409  1
  Se  Se257  1  0.74963386  0.91654098  0.20064966  1
  Se  Se258  1  0.75139284  0.91313170  0.68502235  1
