# generated using pymatgen
data_In86Cu29Se144
_symmetry_space_group_name_H-M   'P 1'
_cell_length_a   17.57957644
_cell_length_b   17.57916615
_cell_length_c   23.44243174
_cell_angle_alpha   90.01344996
_cell_angle_beta   90.01986354
_cell_angle_gamma   89.98957186
_symmetry_Int_Tables_number   1
_chemical_formula_structural   In86Cu29Se144
_chemical_formula_sum   'In86 Cu29 Se144'
_cell_volume   7244.51461467
_cell_formula_units_Z   1
loop_
 _symmetry_equiv_pos_site_id
 _symmetry_equiv_pos_as_xyz
  1  'x, y, z'
loop_
 _atom_site_type_symbol
 _atom_site_label
 _atom_site_symmetry_multiplicity
 _atom_site_fract_x
 _atom_site_fract_y
 _atom_site_fract_z
 _atom_site_occupancy
  In  In0  1  0.00095406  0.17992699  0.12303042  1
  In  In1  1  0.01525410  0.15701300  0.62583593  1
  In  In2  1  -0.00013256  0.50143055  0.13854862  1
  In  In3  1  0.00098342  0.49801913  0.62958329  1
  In  In4  1  -0.01039885  0.82322015  0.12541741  1
  In  In5  1  -0.01187982  0.84586640  0.62566027  1
  In  In6  1  0.33681221  0.16891286  0.13450218  1
  In  In7  1  0.33133582  0.17066973  0.62577997  1
  In  In8  1  0.33719030  0.49250602  0.13450908  1
  In  In9  1  0.32328226  0.50779181  0.62869051  1
  In  In10  1  0.34047196  0.83071665  0.12706120  1
  In  In11  1  0.33538152  0.82965684  0.63138261  1
  In  In12  1  0.66090835  0.15274254  0.12353773  1
  In  In13  1  0.65136332  0.16688130  0.62268905  1
  In  In14  1  0.67274674  0.51458665  0.12647723  1
  In  In15  1  0.67402346  0.50230619  0.61622013  1
  In  In16  1  0.65822053  0.84373076  0.13029003  1
  In  In17  1  0.68806347  0.83443136  0.62043187  1
  In  In18  1  0.17835651  -0.00604776  0.37940924  1
  In  In19  1  0.16948264  -0.00000697  0.86626550  1
  In  In20  1  0.16471836  0.33422613  0.38011902  1
  In  In21  1  0.16768903  0.33257607  0.86483065  1
  In  In22  1  0.14848564  0.64711615  0.35636764  1
  In  In23  1  0.16553802  0.66467306  0.86849646  1
  In  In24  1  0.50247228  0.00073407  0.37252978  1
  In  In25  1  0.48990639  -0.01431829  0.86880603  1
  In  In26  1  0.48285455  0.33339884  0.37605107  1
  In  In27  1  0.50476117  0.34835482  0.87737353  1
  In  In28  1  0.49710840  0.66537073  0.36708112  1
  In  In29  1  0.49529112  0.67377293  0.88495580  1
  In  In30  1  0.81694349  -0.00222905  0.37686650  1
  In  In31  1  0.84052779  0.00901167  0.86428425  1
  In  In32  1  0.85528928  0.33401867  0.37603991  1
  In  In33  1  0.83005383  0.32607977  0.86816987  1
  In  In34  1  0.83271136  0.66147863  0.38330160  1
  In  In35  1  0.84705231  0.66104780  0.87225327  1
  In  In36  1  0.00096434  0.18144901  0.37896759  1
  In  In37  1  -0.00490644  0.16138337  0.86490209  1
  In  In38  1  0.00232664  0.49715499  0.38139608  1
  In  In39  1  0.00489189  0.50578115  0.85945416  1
  In  In40  1  0.00579301  0.81727557  0.37958003  1
  In  In41  1  -0.00141606  0.83164384  0.86728629  1
  In  In42  1  0.33134976  0.16629799  0.38010305  1
  In  In43  1  0.32951216  0.16057466  0.86856072  1
  In  In44  1  0.31114459  0.48364743  0.35656423  1
  In  In45  1  0.34107450  0.50718512  0.87029938  1
  In  In46  1  0.33162338  0.83262064  0.36665952  1
  In  In47  1  0.34392301  0.84001629  0.87014372  1
  In  In48  1  0.66692185  0.14929438  0.37557919  1
  In  In49  1  0.68421286  0.17000626  0.87587693  1
  In  In50  1  0.67244790  0.51692734  0.37727793  1
  In  In51  1  0.65928095  0.48729668  0.88077353  1
  In  In52  1  0.66791932  0.83238074  0.37361874  1
  In  In53  1  0.65070828  0.83086724  0.87432426  1
  In  In54  1  0.17276741  0.01344627  0.12717839  1
  In  In55  1  0.15473624  0.01386327  0.62823268  1
  In  In56  1  0.16728207  0.34027891  0.14152992  1
  In  In57  1  0.16756010  0.33522620  0.62524988  1
  In  In58  1  0.16530540  0.66284050  0.13731773  1
  In  In59  1  0.17413588  0.65658896  0.62519172  1
  In  In60  1  0.50163005  -0.00039471  0.12752710  1
  In  In61  1  0.48678901  0.00828995  0.63392527  1
  In  In62  1  0.48722682  0.32725427  0.12519233  1
  In  In63  1  0.50432350  0.31908687  0.62406372  1
  In  In64  1  0.50100017  0.66994060  0.12476529  1
  In  In65  1  0.49154094  0.65795105  0.62588008  1
  In  In66  1  0.81900582  -0.00319174  0.12288915  1
  In  In67  1  0.84721331  -0.01088799  0.62857572  1
  In  In68  1  0.84432400  0.33909403  0.12340474  1
  In  In69  1  0.84087696  0.35295640  0.62461375  1
  In  In70  1  0.83568908  0.65730672  0.13550852  1
  In  In71  1  0.83867304  0.67711383  0.61778917  1
  In  In72  1  0.82997073  0.49988322  -0.00037517  1
  In  In73  1  0.50216584  0.16889036  0.00076881  1
  In  In74  1  0.17006935  0.82933945  0.00821042  1
  In  In75  1  0.17116325  0.16788748  -0.00770874  1
  In  In76  1  0.49756454  0.49793579  0.49783434  1
  In  In77  1  0.82845445  0.83323271  -0.00507501  1
  In  In78  1  0.50244353  0.83560860  0.49401098  1
  In  In79  1  0.16528630  0.83231641  0.50040963  1
  In  In80  1  0.66704843  0.33087069  0.24493413  1
  In  In81  1  0.00107971  -0.00371968  0.25399748  1
  In  In82  1  0.66603779  0.66936130  0.74720833  1
  In  In83  1  0.16507314  0.50176544  0.00113856  1
  In  In84  1  0.83618915  0.16377308  0.50048496  1
  In  In85  1  0.66675579  0.33394384  0.75220196  1
  Cu  Cu86  1  0.83600746  0.16248201  0.25511783  1
  Cu  Cu87  1  0.66235402  -0.00353553  0.49990225  1
  Cu  Cu88  1  0.49598518  0.16567423  0.25224020  1
  Cu  Cu89  1  0.17280556  0.17085026  0.25492319  1
  Cu  Cu90  1  0.49557340  0.16291201  0.74925114  1
  Cu  Cu91  1  0.50463783  0.83550688  0.24824899  1
  Cu  Cu92  1  0.32767089  0.33130440  0.50018919  1
  Cu  Cu93  1  0.33923227  0.66640095  0.00098513  1
  Cu  Cu94  1  0.00756423  0.33857321  0.50377419  1
  Cu  Cu95  1  0.66348728  0.67171644  0.00439309  1
  Cu  Cu96  1  0.83635046  0.83715004  0.74776072  1
  Cu  Cu97  1  0.32761513  0.66206481  0.49237831  1
  Cu  Cu98  1  0.16605532  0.82772516  0.74524223  1
  Cu  Cu99  1  0.83039750  0.82410343  0.25276045  1
  Cu  Cu100  1  0.49972136  0.50749577  0.25023737  1
  Cu  Cu101  1  -0.00658687  0.33604539  -0.00009552  1
  Cu  Cu102  1  0.00110609  0.66055019  0.50082568  1
  Cu  Cu103  1  0.32944172  0.01102173  0.50621446  1
  Cu  Cu104  1  0.83558279  0.16879829  0.74425176  1
  Cu  Cu105  1  0.49531858  0.49975866  0.75039622  1
  Cu  Cu106  1  0.50004631  0.83378338  0.75089982  1
  Cu  Cu107  1  0.66835165  0.33113222  0.50018971  1
  Cu  Cu108  1  0.16802337  0.49568818  0.74624493  1
  Cu  Cu109  1  0.66381318  0.00343995  -0.00027541  1
  Cu  Cu110  1  0.16965403  0.83495379  0.25169196  1
  Cu  Cu111  1  0.83700367  0.49952589  0.25652375  1
  Cu  Cu112  1  0.16952756  0.16862472  0.74645979  1
  Cu  Cu113  1  -0.00410214  0.00400189  -0.01141498  1
  Cu  Cu114  1  0.33263438  0.33483909  0.00443675  1
  Se  Se115  1  0.07561317  0.07961156  0.05337865  1
  Se  Se116  1  0.08045241  0.07852132  0.54735313  1
  Se  Se117  1  0.07611075  0.40970201  0.06220847  1
  Se  Se118  1  0.08868845  0.42370691  0.55730805  1
  Se  Se119  1  0.07647351  0.73578616  0.05989710  1
  Se  Se120  1  0.07746052  0.74410948  0.56314508  1
  Se  Se121  1  0.40840427  0.08233312  0.05909090  1
  Se  Se122  1  0.41944113  0.08960363  0.55666143  1
  Se  Se123  1  0.41464353  0.41897612  0.05687005  1
  Se  Se124  1  0.41088422  0.40979298  0.56200386  1
  Se  Se125  1  0.41980235  0.75317615  0.05345593  1
  Se  Se126  1  0.40760759  0.74238108  0.55187735  1
  Se  Se127  1  0.75065599  0.08527575  0.05021611  1
  Se  Se128  1  0.74379873  0.07694783  0.56104788  1
  Se  Se129  1  0.74132364  0.41103624  0.06060357  1
  Se  Se130  1  0.75282812  0.41592891  0.54861719  1
  Se  Se131  1  0.74914625  0.74517891  0.06456633  1
  Se  Se132  1  0.74453994  0.74286867  0.54792537  1
  Se  Se133  1  0.24999661  0.25712934  0.06328873  1
  Se  Se134  1  0.24598404  0.24819791  0.55523024  1
  Se  Se135  1  0.25678613  0.58944237  0.06139651  1
  Se  Se136  1  0.24893409  0.57824387  0.54867766  1
  Se  Se137  1  0.25754625  0.92761637  0.05992706  1
  Se  Se138  1  0.25532774  0.92055306  0.56260226  1
  Se  Se139  1  0.59135342  0.25834970  0.06110562  1
  Se  Se140  1  0.58063996  0.24713195  0.54598044  1
  Se  Se141  1  0.58339917  0.58387298  0.05567304  1
  Se  Se142  1  0.58705484  0.59423404  0.55398230  1
  Se  Se143  1  0.58279297  0.92058030  0.05445193  1
  Se  Se144  1  0.58194652  0.92154428  0.56452605  1
  Se  Se145  1  0.91232605  0.24888845  0.05064923  1
  Se  Se146  1  0.92366330  0.25549560  0.56140207  1
  Se  Se147  1  0.92353367  0.58499304  0.06041807  1
  Se  Se148  1  0.91908291  0.58050274  0.55806806  1
  Se  Se149  1  0.92274380  0.92431447  0.05498936  1
  Se  Se150  1  0.90834709  0.91228033  0.54776411  1
  Se  Se151  1  0.08656918  0.24952310  0.45266322  1
  Se  Se152  1  0.07525525  0.25863576  0.93858178  1
  Se  Se153  1  0.08963761  0.58492940  0.44593836  1
  Se  Se154  1  0.07454933  0.58873259  0.94068618  1
  Se  Se155  1  0.07404129  0.92334845  0.44215516  1
  Se  Se156  1  0.08177273  0.91862830  0.94020829  1
  Se  Se157  1  0.41559457  0.24884888  0.45057968  1
  Se  Se158  1  0.40703860  0.25476988  0.93986582  1
  Se  Se159  1  0.40769967  0.58007530  0.43350881  1
  Se  Se160  1  0.41895984  0.57791404  0.94840404  1
  Se  Se161  1  0.40256939  0.92517949  0.44354300  1
  Se  Se162  1  0.42207860  0.90985013  0.94733113  1
  Se  Se163  1  0.74791569  0.25317573  0.43600622  1
  Se  Se164  1  0.74300745  0.26767693  0.94396860  1
  Se  Se165  1  0.75559430  0.57618979  0.45434955  1
  Se  Se166  1  0.74173940  0.59567359  0.93943552  1
  Se  Se167  1  0.74558628  0.91185842  0.44906344  1
  Se  Se168  1  0.74296629  0.92651605  0.93514551  1
  Se  Se169  1  0.24379860  0.08701918  0.44973446  1
  Se  Se170  1  0.26036668  0.06842139  0.94315883  1
  Se  Se171  1  0.25173937  0.42055124  0.44590916  1
  Se  Se172  1  0.25331630  0.41093917  0.94030506  1
  Se  Se173  1  0.24785842  0.74441782  0.43400627  1
  Se  Se174  1  0.25546375  0.74314259  0.94088895  1
  Se  Se175  1  0.57905424  0.08078294  0.44809784  1
  Se  Se176  1  0.58630068  0.08064942  0.93469713  1
  Se  Se177  1  0.58974626  0.40972676  0.43606109  1
  Se  Se178  1  0.57814225  0.41896907  0.95515045  1
  Se  Se179  1  0.58763327  0.73719664  0.44127303  1
  Se  Se180  1  0.58003862  0.75624314  0.95280848  1
  Se  Se181  1  0.92087011  0.07613336  0.43600066  1
  Se  Se182  1  0.91232904  0.09023059  0.94067748  1
  Se  Se183  1  0.91755443  0.41783373  0.45329146  1
  Se  Se184  1  0.92340889  0.41810461  0.93516595  1
  Se  Se185  1  0.91833600  0.74738307  0.45053071  1
  Se  Se186  1  0.92824410  0.74401382  0.94551554  1
  Se  Se187  1  0.25288844  0.25326737  0.31109858  1
  Se  Se188  1  0.25440953  0.24957821  0.80057904  1
  Se  Se189  1  0.27317747  0.60883658  0.30737613  1
  Se  Se190  1  0.24908731  0.57978591  0.80304914  1
  Se  Se191  1  0.25192403  0.92223670  0.30042267  1
  Se  Se192  1  0.24895185  0.90944045  0.80245541  1
  Se  Se193  1  0.57978241  0.24486908  0.31152953  1
  Se  Se194  1  0.57552007  0.24272266  0.81155809  1
  Se  Se195  1  0.58783992  0.58519726  0.30237324  1
  Se  Se196  1  0.57816425  0.57862108  0.81060125  1
  Se  Se197  1  0.58606127  0.91700088  0.30585005  1
  Se  Se198  1  0.58679851  0.91836059  0.79966729  1
  Se  Se199  1  0.92188958  0.24922594  0.30013361  1
  Se  Se200  1  0.91748898  0.25228953  0.79848124  1
  Se  Se201  1  0.91768207  0.58195253  0.31300319  1
  Se  Se202  1  0.91842673  0.58882115  0.79525454  1
  Se  Se203  1  0.90979015  0.90709581  0.31315558  1
  Se  Se204  1  0.92218320  0.92054947  0.80004606  1
  Se  Se205  1  0.09000945  0.08849630  0.31288949  1
  Se  Se206  1  0.08596312  0.08343324  0.79997512  1
  Se  Se207  1  0.07932221  0.41235155  0.31156600  1
  Se  Se208  1  0.08262102  0.41178044  0.79716697  1
  Se  Se209  1  0.07887012  0.75241563  0.29754123  1
  Se  Se210  1  0.08209453  0.74759231  0.80111135  1
  Se  Se211  1  0.41379451  0.08386824  0.30890351  1
  Se  Se212  1  0.41365796  0.07733428  0.80228505  1
  Se  Se213  1  0.41921967  0.41672249  0.29902708  1
  Se  Se214  1  0.41588905  0.41291603  0.80366042  1
  Se  Se215  1  0.41909864  0.75334287  0.30030040  1
  Se  Se216  1  0.42147520  0.74594896  0.80531096  1
  Se  Se217  1  0.74735443  0.07796817  0.29935708  1
  Se  Se218  1  0.75024118  0.08804389  0.79812214  1
  Se  Se219  1  0.75409450  0.41531389  0.31250650  1
  Se  Se220  1  0.75625281  0.43151032  0.80560072  1
  Se  Se221  1  0.75076480  0.74274555  0.31038998  1
  Se  Se222  1  0.75729771  0.75805866  0.81094695  1
  Se  Se223  1  0.25342703  0.08460339  0.20185822  1
  Se  Se224  1  0.25220764  0.08234696  0.69426073  1
  Se  Se225  1  0.24537214  0.42781667  0.20550837  1
  Se  Se226  1  0.25499948  0.41250994  0.69622835  1
  Se  Se227  1  0.25216057  0.75367564  0.19548981  1
  Se  Se228  1  0.25205804  0.74330915  0.69531085  1
  Se  Se229  1  0.58134042  0.08275586  0.19943076  1
  Se  Se230  1  0.58418214  0.08292117  0.69816821  1
  Se  Se231  1  0.57645498  0.42408888  0.18845145  1
  Se  Se232  1  0.57923131  0.42606003  0.68806928  1
  Se  Se233  1  0.58668591  0.74891723  0.19583413  1
  Se  Se234  1  0.57699197  0.75878365  0.68434383  1
  Se  Se235  1  0.91412201  0.08411046  0.18896914  1
  Se  Se236  1  0.92063866  0.08432011  0.69299485  1
  Se  Se237  1  0.91582918  0.41270712  0.20185833  1
  Se  Se238  1  0.91876756  0.41887831  0.70164865  1
  Se  Se239  1  0.91854968  0.74443441  0.20113325  1
  Se  Se240  1  0.91684387  0.75174344  0.69413594  1
  Se  Se241  1  0.08354594  0.24579797  0.19952878  1
  Se  Se242  1  0.08400539  0.25118493  0.69423596  1
  Se  Se243  1  0.08801977  0.57727796  0.20430498  1
  Se  Se244  1  0.08613806  0.58408976  0.69623318  1
  Se  Se245  1  0.08876912  0.91060325  0.18640047  1
  Se  Se246  1  0.08480832  0.91466661  0.69255640  1
  Se  Se247  1  0.41380789  0.25508938  0.20403487  1
  Se  Se248  1  0.41717898  0.25138841  0.69677864  1
  Se  Se249  1  0.41704664  0.58886192  0.19456878  1
  Se  Se250  1  0.41139316  0.58494768  0.69933917  1
  Se  Se251  1  0.41799923  0.91834576  0.19634332  1
  Se  Se252  1  0.41229209  0.91612913  0.70018708  1
  Se  Se253  1  0.75919618  0.23930916  0.18817496  1
  Se  Se254  1  0.75369728  0.24843985  0.68414818  1
  Se  Se255  1  0.74947926  0.58188820  0.20586085  1
  Se  Se256  1  0.75639112  0.58145980  0.68850401  1
  Se  Se257  1  0.75344114  0.91315679  0.19877101  1
  Se  Se258  1  0.75048320  0.92018667  0.69712843  1
