# generated using pymatgen
data_In86Cu29Se144
_symmetry_space_group_name_H-M   'P 1'
_cell_length_a   17.66289659
_cell_length_b   17.64961551
_cell_length_c   23.52206298
_cell_angle_alpha   89.95388776
_cell_angle_beta   89.92960684
_cell_angle_gamma   89.99346087
_symmetry_Int_Tables_number   1
_chemical_formula_structural   In86Cu29Se144
_chemical_formula_sum   'In86 Cu29 Se144'
_cell_volume   7332.83836837
_cell_formula_units_Z   1
loop_
 _symmetry_equiv_pos_site_id
 _symmetry_equiv_pos_as_xyz
  1  'x, y, z'
loop_
 _atom_site_type_symbol
 _atom_site_label
 _atom_site_symmetry_multiplicity
 _atom_site_fract_x
 _atom_site_fract_y
 _atom_site_fract_z
 _atom_site_occupancy
  In  In0  1  0.01633724  0.16523747  0.12790964  1
  In  In1  1  0.01107939  0.18259404  0.61840403  1
  In  In2  1  0.00180721  0.50467287  0.13671017  1
  In  In3  1  -0.00659015  0.49058223  0.62077687  1
  In  In4  1  -0.01044910  0.82726334  0.13366764  1
  In  In5  1  -0.00398132  0.82701527  0.61075115  1
  In  In6  1  0.33786627  0.17058796  0.11837707  1
  In  In7  1  0.32179398  0.17552573  0.63490117  1
  In  In8  1  0.34016166  0.50519593  0.12287864  1
  In  In9  1  0.32705120  0.50170168  0.62920194  1
  In  In10  1  0.33830599  0.83562174  0.13415761  1
  In  In11  1  0.33048389  0.83403708  0.62438173  1
  In  In12  1  0.66865851  0.19356789  0.11226171  1
  In  In13  1  0.67693755  0.17054859  0.62851084  1
  In  In14  1  0.70190477  0.54363403  0.05702544  1
  In  In15  1  0.66954433  0.49996294  0.63445198  1
  In  In16  1  0.67982381  0.82678286  0.11944641  1
  In  In17  1  0.65963086  0.82442929  0.62038595  1
  In  In18  1  0.17369083  -0.01102382  0.38352647  1
  In  In19  1  0.17700012  -0.00294073  0.87228971  1
  In  In20  1  0.15328719  0.35330013  0.39421748  1
  In  In21  1  0.15427481  0.32876961  0.86460336  1
  In  In22  1  0.16818449  0.66638770  0.37798828  1
  In  In23  1  0.17665641  0.65717677  0.86552353  1
  In  In24  1  0.48259999  0.00286779  0.37081890  1
  In  In25  1  0.50173413  0.00672539  0.87537542  1
  In  In26  1  0.49463606  0.32734206  0.37707629  1
  In  In27  1  0.49777525  0.33236678  0.87467638  1
  In  In28  1  0.50440947  0.68048688  0.37629314  1
  In  In29  1  0.49293770  0.66091822  0.86973383  1
  In  In30  1  0.83995945  -0.00312623  0.38137354  1
  In  In31  1  0.81653882  -0.00849267  0.88207816  1
  In  In32  1  0.83892587  0.32729480  0.38233547  1
  In  In33  1  0.84133763  0.34014359  0.87311441  1
  In  In34  1  0.83347024  0.65990567  0.37990928  1
  In  In35  1  0.82031712  0.67143495  0.88704843  1
  In  In36  1  -0.00214356  0.17372011  0.38023612  1
  In  In37  1  -0.00172129  0.17868624  0.87505051  1
  In  In38  1  -0.00250152  0.49919767  0.37461865  1
  In  In39  1  -0.00476415  0.48988197  0.87644961  1
  In  In40  1  0.00077863  0.82525148  0.37871135  1
  In  In41  1  -0.01936781  0.81957552  0.87865456  1
  In  In42  1  0.32957162  0.15856476  0.37684096  1
  In  In43  1  0.32812518  0.16385415  0.87172996  1
  In  In44  1  0.32123896  0.50244821  0.37994135  1
  In  In45  1  0.33741224  0.50955450  0.85993613  1
  In  In46  1  0.33455132  0.83230403  0.37680793  1
  In  In47  1  0.34741850  0.83734981  0.84933955  1
  In  In48  1  0.67010133  0.17880495  0.37730382  1
  In  In49  1  0.65330854  0.16704959  0.88048604  1
  In  In50  1  0.66900169  0.51073855  0.37852130  1
  In  In51  1  0.66050346  0.49134009  0.87985869  1
  In  In52  1  0.66758057  0.83100721  0.38346457  1
  In  In53  1  0.67195782  0.84006051  0.87912421  1
  In  In54  1  0.17189026  0.01623892  0.12750240  1
  In  In55  1  0.17620198  0.00922463  0.61740758  1
  In  In56  1  0.17252713  0.32382697  0.12540499  1
  In  In57  1  0.17012677  0.33216280  0.62448967  1
  In  In58  1  0.16913855  0.66623850  0.13777578  1
  In  In59  1  0.17031504  0.66869940  0.61391082  1
  In  In60  1  0.49126993  0.00064744  0.12366549  1
  In  In61  1  0.49477034  -0.01986846  0.62900308  1
  In  In62  1  0.52710088  0.36106767  0.08933364  1
  In  In63  1  0.49452447  0.34074453  0.63835314  1
  In  In64  1  0.51128189  0.65212506  0.12269529  1
  In  In65  1  0.48750845  0.69090736  0.64159198  1
  In  In66  1  0.83984006  -0.00418465  0.12500694  1
  In  In67  1  0.83246227  0.00203119  0.61827435  1
  In  In68  1  0.83487935  0.35503908  0.12059044  1
  In  In69  1  0.83275426  0.34001071  0.62938563  1
  In  In70  1  0.84465957  0.66216855  0.12862339  1
  In  In71  1  0.83052883  0.65967988  0.62107836  1
  In  In72  1  0.00914725  -0.00640424  0.26111751  1
  In  In73  1  0.67302922  0.66074788  0.24069449  1
  In  In74  1  0.66650747  0.34420477  0.23388442  1
  In  In75  1  0.66246782  0.00105534  0.75607482  1
  In  In76  1  0.50195376  0.83274987  -0.00240390  1
  In  In77  1  0.83447746  0.16512951  -0.00097245  1
  In  In78  1  -0.00020292  0.65965581  0.74655311  1
  In  In79  1  0.50032897  0.16246093  0.50400278  1
  In  In80  1  0.50322114  0.50346922  0.51420658  1
  In  In81  1  0.16981238  0.49715833  -0.00812639  1
  In  In82  1  0.16583940  0.83135726  -0.00347366  1
  In  In83  1  0.33347798  0.32772016  0.24745182  1
  In  In84  1  0.66390495  0.00195181  0.24023640  1
  In  In85  1  0.00110885  0.00226122  0.73758141  1
  Cu  Cu86  1  0.67195381  0.66788100  0.50401080  1
  Cu  Cu87  1  0.33726261  0.66830694  0.50294714  1
  Cu  Cu88  1  0.82728915  0.50544198  0.75171559  1
  Cu  Cu89  1  0.00399768  0.33221952  -0.00165554  1
  Cu  Cu90  1  0.33402862  -0.00426490  0.50095748  1
  Cu  Cu91  1  -0.00403928  0.33514743  0.50335247  1
  Cu  Cu92  1  0.83365047  0.49871674  0.25069929  1
  Cu  Cu93  1  0.67068308  0.33943968  0.50513087  1
  Cu  Cu94  1  0.00185074  0.66029224  0.49688646  1
  Cu  Cu95  1  -0.00602980  0.00178491  0.49715483  1
  Cu  Cu96  1  0.16554463  0.16712492  0.74430774  1
  Cu  Cu97  1  -0.00487019  0.66358556  0.00503715  1
  Cu  Cu98  1  0.51108442  0.49667911  0.75330797  1
  Cu  Cu99  1  0.66761375  0.00083601  0.50228521  1
  Cu  Cu100  1  0.16797913  0.82576196  0.74240328  1
  Cu  Cu101  1  0.49131982  0.50338420  0.24357600  1
  Cu  Cu102  1  0.16545577  0.50129047  0.26007026  1
  Cu  Cu103  1  0.49572335  0.17643695  0.24178812  1
  Cu  Cu104  1  0.33008600  0.32701249  -0.00704668  1
  Cu  Cu105  1  0.49617946  0.83628868  0.25163284  1
  Cu  Cu106  1  0.49663627  0.16434872  0.75494023  1
  Cu  Cu107  1  0.17199814  0.83491782  0.25904460  1
  Cu  Cu108  1  0.32977157  0.00455750  -0.00185824  1
  Cu  Cu109  1  0.83475921  0.17987988  0.75082296  1
  Cu  Cu110  1  0.33359847  0.67147378  -0.00756177  1
  Cu  Cu111  1  0.00283479  -0.00324162  0.00508784  1
  Cu  Cu112  1  0.84003930  0.16552537  0.25684681  1
  Cu  Cu113  1  0.82923122  0.83302988  0.75366348  1
  Cu  Cu114  1  0.17401504  0.17177039  0.25045832  1
  Se  Se115  1  0.08625468  0.08311666  0.05274137  1
  Se  Se116  1  0.07521310  0.07884186  0.55634576  1
  Se  Se117  1  0.08342055  0.41305976  0.05978975  1
  Se  Se118  1  0.08439319  0.41420584  0.55512283  1
  Se  Se119  1  0.08090237  0.74263806  0.06151874  1
  Se  Se120  1  0.08469235  0.74812447  0.54586238  1
  Se  Se121  1  0.41745734  0.08212267  0.05074381  1
  Se  Se122  1  0.41068447  0.07531649  0.56465132  1
  Se  Se123  1  0.40194741  0.41710511  0.04842880  1
  Se  Se124  1  0.41105669  0.40537398  0.55937389  1
  Se  Se125  1  0.41015592  0.74559229  0.05925274  1
  Se  Se126  1  0.41870620  0.75286538  0.55607722  1
  Se  Se127  1  0.74639527  0.07887644  0.06333264  1
  Se  Se128  1  0.74698478  0.08755530  0.55393334  1
  Se  Se129  1  0.71721345  0.39547216  0.06492090  1
  Se  Se130  1  0.74923973  0.42356164  0.56011817  1
  Se  Se131  1  0.73284800  0.71218627  0.06452669  1
  Se  Se132  1  0.75589083  0.75362044  0.55518858  1
  Se  Se133  1  0.24816784  0.24778964  0.05065269  1
  Se  Se134  1  0.23616854  0.23243237  0.55821358  1
  Se  Se135  1  0.25074127  0.59511279  0.05489219  1
  Se  Se136  1  0.25572000  0.57963814  0.55144841  1
  Se  Se137  1  0.25474235  0.92050705  0.05929199  1
  Se  Se138  1  0.24743096  0.91306216  0.55245585  1
  Se  Se139  1  0.56405362  0.23312115  0.04389783  1
  Se  Se140  1  0.58629844  0.25939300  0.56235706  1
  Se  Se141  1  0.55803037  0.56659829  0.04338663  1
  Se  Se142  1  0.58954417  0.59801310  0.56917428  1
  Se  Se143  1  0.59022145  0.91988211  0.06151386  1
  Se  Se144  1  0.58434415  0.91785399  0.55467788  1
  Se  Se145  1  0.92454974  0.25398051  0.06238446  1
  Se  Se146  1  0.91081288  0.25481194  0.55789346  1
  Se  Se147  1  0.92170636  0.57316054  0.05913257  1
  Se  Se148  1  0.91772435  0.58179191  0.55393300  1
  Se  Se149  1  0.92281052  0.91286644  0.05828377  1
  Se  Se150  1  0.91165445  0.91699875  0.55013979  1
  Se  Se151  1  0.08079442  0.25018266  0.45165968  1
  Se  Se152  1  0.08644525  0.25026719  0.94522839  1
  Se  Se153  1  0.08509137  0.57842218  0.44276942  1
  Se  Se154  1  0.07728649  0.59505089  0.93950118  1
  Se  Se155  1  0.07667480  0.91621838  0.44543872  1
  Se  Se156  1  0.07227392  0.91778856  0.93583872  1
  Se  Se157  1  0.40731928  0.25260589  0.44700717  1
  Se  Se158  1  0.41353670  0.24411094  0.93997990  1
  Se  Se159  1  0.41998650  0.58820918  0.44316318  1
  Se  Se160  1  0.40925780  0.58163931  0.94049820  1
  Se  Se161  1  0.41882495  0.91679885  0.44541817  1
  Se  Se162  1  0.40376047  0.91733542  0.93826729  1
  Se  Se163  1  0.74895947  0.25171898  0.45109637  1
  Se  Se164  1  0.74821816  0.25550010  0.93971377  1
  Se  Se165  1  0.75105161  0.58023811  0.45201837  1
  Se  Se166  1  0.75554260  0.56560881  0.94844285  1
  Se  Se167  1  0.75012483  0.91878936  0.44686215  1
  Se  Se168  1  0.75796185  0.90235374  0.95530379  1
  Se  Se169  1  0.25044292  0.08065770  0.44939858  1
  Se  Se170  1  0.24444087  0.08370683  0.94451308  1
  Se  Se171  1  0.26381335  0.40998165  0.45090727  1
  Se  Se172  1  0.25622460  0.40944269  0.93025888  1
  Se  Se173  1  0.25392332  0.74843028  0.44571111  1
  Se  Se174  1  0.25777025  0.75169490  0.93120947  1
  Se  Se175  1  0.58837329  0.07688788  0.43715594  1
  Se  Se176  1  0.60432122  0.05746212  0.94233950  1
  Se  Se177  1  0.58669304  0.41185281  0.44241646  1
  Se  Se178  1  0.57213649  0.41505161  0.94736772  1
  Se  Se179  1  0.58513603  0.74938454  0.45188246  1
  Se  Se180  1  0.58668192  0.74040872  0.93889980  1
  Se  Se181  1  0.91296133  0.08965407  0.44626999  1
  Se  Se182  1  0.92501201  0.07333331  0.93905187  1
  Se  Se183  1  0.91556066  0.41869780  0.44669867  1
  Se  Se184  1  0.91651389  0.41573801  0.95145177  1
  Se  Se185  1  0.91554055  0.74500367  0.44677138  1
  Se  Se186  1  0.90814832  0.74780799  0.95726256  1
  Se  Se187  1  0.24299044  0.25416456  0.31638419  1
  Se  Se188  1  0.24606022  0.24713786  0.80276866  1
  Se  Se189  1  0.25250766  0.58601521  0.30617751  1
  Se  Se190  1  0.23958545  0.57263978  0.79215155  1
  Se  Se191  1  0.25575974  0.92098986  0.30740340  1
  Se  Se192  1  0.24374635  0.91457857  0.79658840  1
  Se  Se193  1  0.58012515  0.25128611  0.30171920  1
  Se  Se194  1  0.58185584  0.24693906  0.80577556  1
  Se  Se195  1  0.57548701  0.57903756  0.30535625  1
  Se  Se196  1  0.58811871  0.58086817  0.80926848  1
  Se  Se197  1  0.58058651  0.91457679  0.30927121  1
  Se  Se198  1  0.57264304  0.90479490  0.80866691  1
  Se  Se199  1  0.91908892  0.25322677  0.30731631  1
  Se  Se200  1  0.92288770  0.25826889  0.80256843  1
  Se  Se201  1  0.91220577  0.58197728  0.30659759  1
  Se  Se202  1  0.90557232  0.58472345  0.81507686  1
  Se  Se203  1  0.90768564  0.90557561  0.30804112  1
  Se  Se204  1  0.91202267  0.91764042  0.80740531  1
  Se  Se205  1  0.09630619  0.09153301  0.31383269  1
  Se  Se206  1  0.08471076  0.08697166  0.80661659  1
  Se  Se207  1  0.08353180  0.41336294  0.30843006  1
  Se  Se208  1  0.09360656  0.43836000  0.80726362  1
  Se  Se209  1  0.08673664  0.75094369  0.30807272  1
  Se  Se210  1  0.08394186  0.75743209  0.80819272  1
  Se  Se211  1  0.41725136  0.09593330  0.30051457  1
  Se  Se212  1  0.41409316  0.07866179  0.80546360  1
  Se  Se213  1  0.42121260  0.42290060  0.30841971  1
  Se  Se214  1  0.42116534  0.41549055  0.80208727  1
  Se  Se215  1  0.41727729  0.75050143  0.30530968  1
  Se  Se216  1  0.40442595  0.72620440  0.79594993  1
  Se  Se217  1  0.75171527  0.08757793  0.30914423  1
  Se  Se218  1  0.75944220  0.09331337  0.81036209  1
  Se  Se219  1  0.75004828  0.42017380  0.31015029  1
  Se  Se220  1  0.75134404  0.41948229  0.80891116  1
  Se  Se221  1  0.74903682  0.74938774  0.31016122  1
  Se  Se222  1  0.75075778  0.75320901  0.81071232  1
  Se  Se223  1  0.25824265  0.09332743  0.19495273  1
  Se  Se224  1  0.24883227  0.07698705  0.69877287  1
  Se  Se225  1  0.24366422  0.42710755  0.19207224  1
  Se  Se226  1  0.26297047  0.40141057  0.69309485  1
  Se  Se227  1  0.25274124  0.75406636  0.20011092  1
  Se  Se228  1  0.24899436  0.74241729  0.68953880  1
  Se  Se229  1  0.58104512  0.10025980  0.18317819  1
  Se  Se230  1  0.57546651  0.08803299  0.68945887  1
  Se  Se231  1  0.57468991  0.43365335  0.18053310  1
  Se  Se232  1  0.59260718  0.41046574  0.70154822  1
  Se  Se233  1  0.57737721  0.75888402  0.18948298  1
  Se  Se234  1  0.59278758  0.75443820  0.70122998  1
  Se  Se235  1  0.91935567  0.08483579  0.19651997  1
  Se  Se236  1  0.90807077  0.09773778  0.68763135  1
  Se  Se237  1  0.91832331  0.41356023  0.19936269  1
  Se  Se238  1  0.91311765  0.42389209  0.69965325  1
  Se  Se239  1  0.91819773  0.74100823  0.20253815  1
  Se  Se240  1  0.91151373  0.75818115  0.69182923  1
  Se  Se241  1  0.08703699  0.25264230  0.19915131  1
  Se  Se242  1  0.08198942  0.25512473  0.69723652  1
  Se  Se243  1  0.08431941  0.58587048  0.20458218  1
  Se  Se244  1  0.08747385  0.57788437  0.68279467  1
  Se  Se245  1  0.09586550  0.91145797  0.19074244  1
  Se  Se246  1  0.08727187  0.90535737  0.68231027  1
  Se  Se247  1  0.42907189  0.26202657  0.17875124  1
  Se  Se248  1  0.41519362  0.24829758  0.70065488  1
  Se  Se249  1  0.41301109  0.59289656  0.19335334  1
  Se  Se250  1  0.43214585  0.57033879  0.68911191  1
  Se  Se251  1  0.41689382  0.92490096  0.20016202  1
  Se  Se252  1  0.40999751  0.90962017  0.69909749  1
  Se  Se253  1  0.76515129  0.24448797  0.19048053  1
  Se  Se254  1  0.74691394  0.25836646  0.69910974  1
  Se  Se255  1  0.75190801  0.56216159  0.18261881  1
  Se  Se256  1  0.74975274  0.59219263  0.69867509  1
  Se  Se257  1  0.76077800  0.90514889  0.19549021  1
  Se  Se258  1  0.75439146  0.91660254  0.69242265  1
