# generated using pymatgen
data_In86Cu29Se144
_symmetry_space_group_name_H-M   'P 1'
_cell_length_a   17.57599520
_cell_length_b   17.57382852
_cell_length_c   23.43194198
_cell_angle_alpha   89.97544279
_cell_angle_beta   89.99627783
_cell_angle_gamma   90.00452269
_symmetry_Int_Tables_number   1
_chemical_formula_structural   In86Cu29Se144
_chemical_formula_sum   'In86 Cu29 Se144'
_cell_volume   7237.59956013
_cell_formula_units_Z   1
loop_
 _symmetry_equiv_pos_site_id
 _symmetry_equiv_pos_as_xyz
  1  'x, y, z'
loop_
 _atom_site_type_symbol
 _atom_site_label
 _atom_site_symmetry_multiplicity
 _atom_site_fract_x
 _atom_site_fract_y
 _atom_site_fract_z
 _atom_site_occupancy
  In  In0  1  0.00599352  0.18373445  0.12461142  1
  In  In1  1  0.00162927  0.15601077  0.62269407  1
  In  In2  1  0.00013962  0.50518138  0.14074648  1
  In  In3  1  0.00551014  0.51612275  0.60065974  1
  In  In4  1  -0.00264605  0.81998186  0.13151656  1
  In  In5  1  0.00085730  0.83160888  0.60817313  1
  In  In6  1  0.34363214  0.17007105  0.11882190  1
  In  In7  1  0.32517835  0.17374638  0.63287517  1
  In  In8  1  0.33199756  0.49559551  0.12371567  1
  In  In9  1  0.34078444  0.50488716  0.62804973  1
  In  In10  1  0.33848910  0.84108092  0.10288804  1
  In  In11  1  0.33112020  0.83046489  0.62729065  1
  In  In12  1  0.65254052  0.15864434  0.11563002  1
  In  In13  1  0.67527113  0.19271244  0.63411549  1
  In  In14  1  0.66007868  0.51249775  0.12926188  1
  In  In15  1  0.66153382  0.50310153  0.62591473  1
  In  In16  1  0.66897574  0.83466734  0.13042894  1
  In  In17  1  0.64627602  0.82235418  0.61767861  1
  In  In18  1  0.17087753  -0.00585007  0.38322004  1
  In  In19  1  0.17113028  -0.02004476  0.88292646  1
  In  In20  1  0.16937694  0.33908924  0.37996114  1
  In  In21  1  0.18138161  0.32262646  0.87521718  1
  In  In22  1  0.15966668  0.66804613  0.38856768  1
  In  In23  1  0.19860043  0.65911679  0.87941640  1
  In  In24  1  0.49852624  -0.01654849  0.37187676  1
  In  In25  1  0.48033710  0.00890568  0.89161464  1
  In  In26  1  0.49516771  0.35568437  0.37153273  1
  In  In27  1  0.49784291  0.32779776  0.87395128  1
  In  In28  1  0.50987934  0.65746735  0.37776670  1
  In  In29  1  0.49834771  0.66868441  0.88081377  1
  In  In30  1  0.81603178  -0.00255484  0.37048806  1
  In  In31  1  0.84499882  0.00487940  0.88206027  1
  In  In32  1  0.84407297  0.33201624  0.37580971  1
  In  In33  1  0.81864185  0.33047206  0.87167155  1
  In  In34  1  0.83083468  0.66666473  0.38128107  1
  In  In35  1  0.82088190  0.67244861  0.87231596  1
  In  In36  1  0.00113768  0.18039118  0.37297050  1
  In  In37  1  -0.00111581  0.14881610  0.88600188  1
  In  In38  1  0.00055424  0.50259579  0.38350778  1
  In  In39  1  -0.00164583  0.50013110  0.87288070  1
  In  In40  1  0.00945595  0.81347136  0.38809665  1
  In  In41  1  0.01273785  0.83690168  0.87357852  1
  In  In42  1  0.32063804  0.16989001  0.37629225  1
  In  In43  1  0.34428172  0.17711497  0.86229155  1
  In  In44  1  0.34628769  0.48959709  0.38063475  1
  In  In45  1  0.38489469  0.52666688  0.82805046  1
  In  In46  1  0.33577810  0.82568161  0.38457679  1
  In  In47  1  0.33286216  0.83292861  0.87749068  1
  In  In48  1  0.67622973  0.16450798  0.37038213  1
  In  In49  1  0.66372514  0.16454297  0.88254287  1
  In  In50  1  0.64800956  0.51640052  0.38184023  1
  In  In51  1  0.63569939  0.47920202  0.84898320  1
  In  In52  1  0.66653453  0.82971809  0.37596953  1
  In  In53  1  0.65434049  0.81331263  0.86641267  1
  In  In54  1  0.18186325  -0.00436519  0.12031738  1
  In  In55  1  0.16894296  0.00331254  0.61932968  1
  In  In56  1  0.16327443  0.33945849  0.13535330  1
  In  In57  1  0.17665126  0.34269507  0.61517431  1
  In  In58  1  0.16589257  0.66415992  0.12706844  1
  In  In59  1  0.17326856  0.67369837  0.61612878  1
  In  In60  1  0.50376092  0.00326099  0.11570775  1
  In  In61  1  0.49997790  -0.01517409  0.62927456  1
  In  In62  1  0.49420145  0.33130702  0.12087095  1
  In  In63  1  0.48639885  0.35499899  0.64689463  1
  In  In64  1  0.50133373  0.67667365  0.11654791  1
  In  In65  1  0.49326861  0.66211217  0.63127755  1
  In  In66  1  0.81829103  -0.00628358  0.12395601  1
  In  In67  1  0.83998879  0.00333833  0.62480652  1
  In  In68  1  0.84145682  0.34238243  0.12905376  1
  In  In69  1  0.81854776  0.34548542  0.63033286  1
  In  In70  1  0.83636221  0.66841889  0.13782629  1
  In  In71  1  0.82376936  0.65867540  0.60801550  1
  In  In72  1  0.82434502  0.50321366  0.00554704  1
  In  In73  1  0.16804982  0.16281382  0.00269347  1
  In  In74  1  0.66301826  0.00014218  0.75880993  1
  In  In75  1  0.17808851  0.49853336  0.00022177  1
  In  In76  1  0.83599667  0.16808024  0.50127252  1
  In  In77  1  -0.00451317  -0.00271860  0.24981262  1
  In  In78  1  -0.00248430  0.33459195  0.74736740  1
  In  In79  1  0.00251620  0.67090026  0.73243036  1
  In  In80  1  0.34042597  0.00361645  0.23901474  1
  In  In81  1  0.00352017  -0.00160801  0.74877204  1
  In  In82  1  0.33264127  0.66302130  0.24864107  1
  In  In83  1  0.66766228  0.33352373  0.25178478  1
  In  In84  1  0.83150681  0.83676731  -0.00102729  1
  In  In85  1  0.50052671  0.16753008  0.50743769  1
  Cu  Cu86  1  0.17051332  0.16354789  0.74700884  1
  Cu  Cu87  1  0.83474395  0.82431494  0.25720864  1
  Cu  Cu88  1  0.83486284  0.50236393  0.25909665  1
  Cu  Cu89  1  0.83392598  0.50986199  0.74062766  1
  Cu  Cu90  1  0.16259255  0.17831755  0.25468020  1
  Cu  Cu91  1  0.16243402  0.50181224  0.25879702  1
  Cu  Cu92  1  0.17852265  0.49153088  0.74471643  1
  Cu  Cu93  1  0.50060325  0.16547461  0.24193729  1
  Cu  Cu94  1  0.33524326  0.66584240  0.50427934  1
  Cu  Cu95  1  0.82280093  0.83558254  0.74395326  1
  Cu  Cu96  1  0.00063652  -0.00155596  0.49744355  1
  Cu  Cu97  1  0.17317644  0.82942266  0.25546276  1
  Cu  Cu98  1  0.82895835  0.16355517  0.24853953  1
  Cu  Cu99  1  0.51214261  0.82657004  0.24760638  1
  Cu  Cu100  1  0.65772364  0.33159416  -0.00577215  1
  Cu  Cu101  1  0.17234860  0.82545011  0.74964558  1
  Cu  Cu102  1  0.66418894  -0.00537181  -0.00173628  1
  Cu  Cu103  1  0.00799625  0.67121613  0.00367475  1
  Cu  Cu104  1  0.33687044  0.33354221  0.50755762  1
  Cu  Cu105  1  0.66535945  -0.00109434  0.49998631  1
  Cu  Cu106  1  0.33112833  -0.00568003  0.50213668  1
  Cu  Cu107  1  0.66315783  0.34754505  0.50383775  1
  Cu  Cu108  1  0.48704924  0.82881863  0.75138488  1
  Cu  Cu109  1  0.50700156  0.15998434  0.75757397  1
  Cu  Cu110  1  -0.00589074  0.33403914  0.00617143  1
  Cu  Cu111  1  0.00386268  0.33118815  0.49706406  1
  Cu  Cu112  1  0.66090090  0.67085151  0.50096982  1
  Cu  Cu113  1  0.34024416  0.33780421  -0.00514781  1
  Cu  Cu114  1  0.66346889  0.66080887  -0.00191617  1
  Se  Se115  1  0.07594182  0.07721204  0.06424233  1
  Se  Se116  1  0.08345770  0.08358466  0.54947638  1
  Se  Se117  1  0.07453567  0.41894647  0.06137503  1
  Se  Se118  1  0.08842078  0.41712543  0.54650725  1
  Se  Se119  1  0.08736830  0.75322904  0.05912482  1
  Se  Se120  1  0.07623328  0.73673014  0.54817410  1
  Se  Se121  1  0.39918351  0.06733621  0.05460143  1
  Se  Se122  1  0.40926340  0.07517372  0.56403916  1
  Se  Se123  1  0.41793888  0.42120617  0.05242690  1
  Se  Se124  1  0.42215154  0.41680794  0.55908471  1
  Se  Se125  1  0.41746905  0.74838939  0.04331672  1
  Se  Se126  1  0.41747376  0.74884717  0.55979376  1
  Se  Se127  1  0.74602789  0.07907076  0.05215161  1
  Se  Se128  1  0.73779150  0.08472166  0.56213482  1
  Se  Se129  1  0.73432219  0.40766617  0.06206592  1
  Se  Se130  1  0.75217329  0.42753520  0.55399270  1
  Se  Se131  1  0.74978618  0.73723864  0.05816372  1
  Se  Se132  1  0.74480834  0.75854081  0.55031484  1
  Se  Se133  1  0.25171866  0.26699099  0.05785526  1
  Se  Se134  1  0.25147875  0.24416310  0.55242241  1
  Se  Se135  1  0.26239829  0.59760019  0.05585558  1
  Se  Se136  1  0.25439058  0.57849728  0.55597542  1
  Se  Se137  1  0.24995342  0.92438738  0.04091027  1
  Se  Se138  1  0.24712718  0.91070469  0.55568257  1
  Se  Se139  1  0.57468962  0.24877483  0.05049622  1
  Se  Se140  1  0.58499528  0.26573837  0.56376891  1
  Se  Se141  1  0.57921248  0.57974118  0.05218409  1
  Se  Se142  1  0.57939182  0.58739267  0.55776313  1
  Se  Se143  1  0.58850060  0.90960947  0.05635233  1
  Se  Se144  1  0.57623707  0.91758590  0.54951658  1
  Se  Se145  1  0.90935282  0.25186827  0.05709203  1
  Se  Se146  1  0.92149452  0.25989509  0.56325339  1
  Se  Se147  1  0.92508689  0.59002634  0.06148721  1
  Se  Se148  1  0.91751701  0.59547263  0.53781753  1
  Se  Se149  1  0.92257453  0.91742270  0.06430486  1
  Se  Se150  1  0.91106566  0.92200575  0.55035797  1
  Se  Se151  1  0.08779344  0.24669933  0.44618829  1
  Se  Se152  1  0.07709640  0.25963190  0.94395412  1
  Se  Se153  1  0.09154500  0.57185301  0.45376137  1
  Se  Se154  1  0.08086960  0.58841841  0.94045709  1
  Se  Se155  1  0.08620888  0.91209421  0.44893584  1
  Se  Se156  1  0.05785743  0.93708465  0.94482059  1
  Se  Se157  1  0.41479383  0.25508719  0.44177410  1
  Se  Se158  1  0.41640310  0.24426098  0.94504557  1
  Se  Se159  1  0.41746263  0.58563407  0.44642950  1
  Se  Se160  1  0.40699683  0.57282754  0.93081572  1
  Se  Se161  1  0.41802370  0.91533890  0.44862657  1
  Se  Se162  1  0.42672872  0.89725398  0.94939579  1
  Se  Se163  1  0.73932469  0.26031796  0.44525305  1
  Se  Se164  1  0.74985375  0.25055656  0.94869297  1
  Se  Se165  1  0.74329627  0.58406584  0.44911712  1
  Se  Se166  1  0.73828480  0.58008749  0.93532548  1
  Se  Se167  1  0.74804892  0.91629248  0.44640577  1
  Se  Se168  1  0.73854924  0.91642266  0.93235273  1
  Se  Se169  1  0.25226217  0.08177918  0.44863571  1
  Se  Se170  1  0.25444420  0.08817514  0.93187147  1
  Se  Se171  1  0.25602071  0.41642126  0.45006178  1
  Se  Se172  1  0.26462210  0.41818394  0.93292211  1
  Se  Se173  1  0.24927706  0.75041946  0.45303232  1
  Se  Se174  1  0.22464924  0.77365476  0.94220278  1
  Se  Se175  1  0.58719363  0.08101367  0.43945480  1
  Se  Se176  1  0.57983816  0.08376314  0.95129182  1
  Se  Se177  1  0.57443845  0.42274098  0.44951289  1
  Se  Se178  1  0.57958615  0.41830387  0.94010666  1
  Se  Se179  1  0.57766901  0.75359911  0.44553686  1
  Se  Se180  1  0.58291733  0.75178534  0.95074903  1
  Se  Se181  1  0.92016462  0.07748083  0.43494359  1
  Se  Se182  1  0.91075237  0.08531322  0.95859626  1
  Se  Se183  1  0.91440255  0.41417976  0.44962779  1
  Se  Se184  1  0.91739731  0.41451506  0.94332368  1
  Se  Se185  1  0.90611313  0.75445426  0.45104288  1
  Se  Se186  1  0.92350290  0.74199033  0.93997158  1
  Se  Se187  1  0.25076677  0.25835694  0.30559680  1
  Se  Se188  1  0.25299166  0.25296830  0.79474638  1
  Se  Se189  1  0.24681700  0.58060406  0.31716497  1
  Se  Se190  1  0.25403869  0.58429871  0.79480487  1
  Se  Se191  1  0.25582420  0.91431130  0.30801299  1
  Se  Se192  1  0.24922225  0.91342755  0.80398311  1
  Se  Se193  1  0.57298833  0.24359654  0.31119073  1
  Se  Se194  1  0.58980220  0.24532460  0.80840020  1
  Se  Se195  1  0.57799138  0.58089520  0.29914281  1
  Se  Se196  1  0.59568133  0.60706587  0.80850101  1
  Se  Se197  1  0.58881546  0.91517296  0.30190527  1
  Se  Se198  1  0.56579213  0.91227273  0.81234401  1
  Se  Se199  1  0.91203800  0.24763939  0.30032501  1
  Se  Se200  1  0.92207559  0.24440996  0.81674413  1
  Se  Se201  1  0.91801030  0.58487145  0.31320029  1
  Se  Se202  1  0.91425804  0.58604438  0.80419312  1
  Se  Se203  1  0.91547339  0.90734731  0.31596288  1
  Se  Se204  1  0.90725872  0.90604360  0.80589517  1
  Se  Se205  1  0.09110511  0.08487009  0.30972408  1
  Se  Se206  1  0.09395164  0.08637095  0.81081569  1
  Se  Se207  1  0.08009064  0.41713940  0.31203357  1
  Se  Se208  1  0.09416979  0.42171647  0.80832854  1
  Se  Se209  1  0.09058356  0.74748992  0.30919254  1
  Se  Se210  1  0.08988594  0.74320334  0.80700384  1
  Se  Se211  1  0.42228294  0.09000561  0.30992252  1
  Se  Se212  1  0.41864528  0.07435276  0.80332935  1
  Se  Se213  1  0.40935271  0.41749975  0.29680405  1
  Se  Se214  1  0.41496025  0.39192266  0.79475973  1
  Se  Se215  1  0.42301597  0.75598636  0.30787379  1
  Se  Se216  1  0.41004110  0.74454160  0.80852388  1
  Se  Se217  1  0.74269916  0.07878234  0.29548935  1
  Se  Se218  1  0.76071724  0.08777424  0.81200371  1
  Se  Se219  1  0.75106604  0.42259659  0.31714828  1
  Se  Se220  1  0.75926607  0.42620306  0.80108089  1
  Se  Se221  1  0.74631876  0.74287052  0.30773733  1
  Se  Se222  1  0.74521566  0.74568326  0.79489340  1
  Se  Se223  1  0.24058540  0.09923223  0.19120740  1
  Se  Se224  1  0.25007005  0.07488759  0.69506646  1
  Se  Se225  1  0.24650267  0.42676405  0.19858350  1
  Se  Se226  1  0.25978528  0.40856286  0.69142134  1
  Se  Se227  1  0.25451424  0.76285885  0.18689333  1
  Se  Se228  1  0.25236577  0.74030171  0.69538875  1
  Se  Se229  1  0.58202759  0.07770919  0.19282435  1
  Se  Se230  1  0.58380684  0.08975438  0.68773489  1
  Se  Se231  1  0.57588250  0.41922164  0.19245917  1
  Se  Se232  1  0.60571935  0.40430715  0.69799560  1
  Se  Se233  1  0.58959648  0.74042370  0.19270706  1
  Se  Se234  1  0.57646957  0.75097612  0.69837571  1
  Se  Se235  1  0.91156273  0.08838496  0.18613974  1
  Se  Se236  1  0.90795416  0.09516561  0.69903281  1
  Se  Se237  1  0.91702697  0.41758502  0.20525690  1
  Se  Se238  1  0.92312863  0.43535510  0.68338755  1
  Se  Se239  1  0.92418549  0.74323051  0.20779967  1
  Se  Se240  1  0.90470821  0.76103324  0.68093852  1
  Se  Se241  1  0.07609522  0.25998553  0.20319108  1
  Se  Se242  1  0.09037770  0.24456737  0.68720662  1
  Se  Se243  1  0.08684596  0.59079246  0.20315719  1
  Se  Se244  1  0.09384399  0.56987273  0.68519826  1
  Se  Se245  1  0.09569217  0.91192129  0.19343974  1
  Se  Se246  1  0.08768253  0.90304693  0.68888978  1
  Se  Se247  1  0.41457636  0.25066229  0.19457846  1
  Se  Se248  1  0.42501431  0.23924800  0.69827812  1
  Se  Se249  1  0.42453390  0.58069429  0.18715864  1
  Se  Se250  1  0.42670365  0.57072547  0.70495675  1
  Se  Se251  1  0.42628312  0.90279404  0.18684829  1
  Se  Se252  1  0.40874353  0.91688509  0.69898742  1
  Se  Se253  1  0.74975553  0.24325099  0.18578097  1
  Se  Se254  1  0.77089200  0.24885441  0.70448246  1
  Se  Se255  1  0.75276949  0.57914454  0.19953105  1
  Se  Se256  1  0.74907777  0.59237878  0.68940673  1
  Se  Se257  1  0.75583365  0.90981180  0.20158150  1
  Se  Se258  1  0.74410579  0.91720971  0.68544917  1
