# generated using pymatgen
data_In86Cu29Se144
_symmetry_space_group_name_H-M   'P 1'
_cell_length_a   17.58295435
_cell_length_b   17.57619102
_cell_length_c   23.43815440
_cell_angle_alpha   90.00912174
_cell_angle_beta   90.01060820
_cell_angle_gamma   90.00351585
_symmetry_Int_Tables_number   1
_chemical_formula_structural   In86Cu29Se144
_chemical_formula_sum   'In86 Cu29 Se144'
_cell_volume   7243.35898459
_cell_formula_units_Z   1
loop_
 _symmetry_equiv_pos_site_id
 _symmetry_equiv_pos_as_xyz
  1  'x, y, z'
loop_
 _atom_site_type_symbol
 _atom_site_label
 _atom_site_symmetry_multiplicity
 _atom_site_fract_x
 _atom_site_fract_y
 _atom_site_fract_z
 _atom_site_occupancy
  In  In0  1  0.01660068  0.17312259  0.12948310  1
  In  In1  1  -0.00561838  0.16666891  0.61975640  1
  In  In2  1  0.02160285  0.48075707  0.14844695  1
  In  In3  1  0.00054145  0.50811503  0.62495569  1
  In  In4  1  -0.00844709  0.82519299  0.12133757  1
  In  In5  1  -0.00283940  0.83254211  0.63214058  1
  In  In6  1  0.31915645  0.18406583  0.13885107  1
  In  In7  1  0.33498554  0.16369057  0.61599224  1
  In  In8  1  0.34015920  0.49540784  0.12543173  1
  In  In9  1  0.32909091  0.49197783  0.61615681  1
  In  In10  1  0.33346023  0.81468762  0.12481875  1
  In  In11  1  0.34922484  0.83218435  0.61900234  1
  In  In12  1  0.66403261  0.16587970  0.13536195  1
  In  In13  1  0.66689716  0.16937471  0.62307101  1
  In  In14  1  0.65558427  0.50173300  0.12539328  1
  In  In15  1  0.66746202  0.49860073  0.62466183  1
  In  In16  1  0.67878120  0.83660844  0.11646631  1
  In  In17  1  0.65983744  0.84164788  0.62883833  1
  In  In18  1  0.16708442  0.01641317  0.37262181  1
  In  In19  1  0.16289791  0.01340064  0.87511823  1
  In  In20  1  0.15233406  0.31870475  0.34127670  1
  In  In21  1  0.17095706  0.32952561  0.88900552  1
  In  In22  1  0.16151318  0.65251456  0.35646250  1
  In  In23  1  0.15411176  0.66409652  0.87908821  1
  In  In24  1  0.50830083  -0.00813165  0.38059026  1
  In  In25  1  0.50535655  -0.00762560  0.87651148  1
  In  In26  1  0.50211117  0.33287261  0.37495308  1
  In  In27  1  0.50229995  0.32962496  0.87580982  1
  In  In28  1  0.48922127  0.66187903  0.38388203  1
  In  In29  1  0.50484241  0.65881631  0.87782466  1
  In  In30  1  0.84140440  0.01773276  0.37640749  1
  In  In31  1  0.82156514  -0.00968458  0.86530610  1
  In  In32  1  0.83054359  0.33509778  0.37729546  1
  In  In33  1  0.82605349  0.34422209  0.87241989  1
  In  In34  1  0.82603047  0.65309364  0.37679691  1
  In  In35  1  0.84106164  0.67422343  0.87120563  1
  In  In36  1  -0.00892232  0.18998096  0.39407322  1
  In  In37  1  0.01412646  0.16323195  0.86995099  1
  In  In38  1  -0.00739173  0.48357144  0.36504716  1
  In  In39  1  0.00104801  0.50802977  0.87969285  1
  In  In40  1  0.00774846  0.83516754  0.37016861  1
  In  In41  1  -0.00997494  0.82452537  0.87268429  1
  In  In42  1  0.32023249  0.18303666  0.38193036  1
  In  In43  1  0.32934274  0.16626589  0.88024894  1
  In  In44  1  0.33593954  0.50176064  0.36507281  1
  In  In45  1  0.33224419  0.49430704  0.88798536  1
  In  In46  1  0.34682093  0.82664971  0.37217001  1
  In  In47  1  0.34731966  0.84421951  0.88234610  1
  In  In48  1  0.66771879  0.16630428  0.37671271  1
  In  In49  1  0.66677806  0.16849018  0.86251866  1
  In  In50  1  0.67779338  0.49090577  0.38396370  1
  In  In51  1  0.65256218  0.49442711  0.86572467  1
  In  In52  1  0.65444866  0.82422149  0.37462865  1
  In  In53  1  0.66827980  0.83213720  0.87260378  1
  In  In54  1  0.16328077  0.01440687  0.12187594  1
  In  In55  1  0.15676669  0.00508799  0.63068252  1
  In  In56  1  0.17280854  0.33536248  0.12959732  1
  In  In57  1  0.16523316  0.32994170  0.62015533  1
  In  In58  1  0.18930989  0.63296434  0.15488995  1
  In  In59  1  0.15724821  0.65684851  0.62724965  1
  In  In60  1  0.51713596  0.00053361  0.12385552  1
  In  In61  1  0.51209963  0.01057571  0.61448460  1
  In  In62  1  0.48785441  0.34858942  0.13860937  1
  In  In63  1  0.50693788  0.34540244  0.61334209  1
  In  In64  1  0.49475426  0.65395424  0.11581728  1
  In  In65  1  0.50419081  0.68104946  0.60990443  1
  In  In66  1  0.83209517  -0.01920087  0.12781066  1
  In  In67  1  0.82399540  0.00698450  0.62988911  1
  In  In68  1  0.83306153  0.33736993  0.13803479  1
  In  In69  1  0.82666856  0.31883139  0.61111813  1
  In  In70  1  0.84259899  0.67814665  0.12489398  1
  In  In71  1  0.83683432  0.65729886  0.62903368  1
  In  In72  1  0.83346615  0.51120938  0.00083922  1
  In  In73  1  0.82797241  0.83569120  0.50123346  1
  In  In74  1  0.33260460  0.00132663  0.75653523  1
  In  In75  1  -0.00785650  0.33245911  0.74434858  1
  In  In76  1  0.33976856  0.00015435  0.24915199  1
  In  In77  1  0.33212486  0.66611769  0.74423023  1
  In  In78  1  0.17051575  0.49441891  0.48856746  1
  In  In79  1  0.17817765  0.83495043  0.48952525  1
  In  In80  1  0.66990524  0.66507859  0.24903143  1
  In  In81  1  0.16894886  0.82830639  0.00221683  1
  In  In82  1  0.49246952  0.17065899  0.00228942  1
  In  In83  1  0.33315253  0.33096178  0.75547378  1
  In  In84  1  -0.00542984  0.00055415  0.24730271  1
  In  In85  1  0.83531858  0.16344721  -0.00457178  1
  Cu  Cu86  1  0.50300771  0.16489966  0.25718478  1
  Cu  Cu87  1  0.66637238  0.00276054  0.50272604  1
  Cu  Cu88  1  0.67233483  -0.00505789  -0.00243082  1
  Cu  Cu89  1  0.65735353  0.33849535  0.00146461  1
  Cu  Cu90  1  0.66433881  0.33018755  0.49861671  1
  Cu  Cu91  1  0.00019686  0.66801789  0.50148388  1
  Cu  Cu92  1  0.83594747  0.49785498  0.25695795  1
  Cu  Cu93  1  0.16865119  0.83226596  0.24774043  1
  Cu  Cu94  1  0.83266610  0.16546503  0.74133927  1
  Cu  Cu95  1  0.00105367  0.01394983  0.50500903  1
  Cu  Cu96  1  0.50679871  0.83616812  0.74895704  1
  Cu  Cu97  1  0.00569289  0.33240479  0.00864895  1
  Cu  Cu98  1  0.33579971  0.33313314  0.49250315  1
  Cu  Cu99  1  0.82419637  0.50290116  0.75071758  1
  Cu  Cu100  1  0.50558301  0.82400716  0.25067811  1
  Cu  Cu101  1  0.50615375  0.49780455  0.25204019  1
  Cu  Cu102  1  0.15781989  0.50202483  0.75391066  1
  Cu  Cu103  1  0.33534598  0.00034833  0.49385586  1
  Cu  Cu104  1  0.83109640  0.16790999  0.25548673  1
  Cu  Cu105  1  0.33673095  0.00723371  0.00226605  1
  Cu  Cu106  1  0.00666202  0.66049270  0.00705783  1
  Cu  Cu107  1  0.66461336  0.67097466  -0.00361725  1
  Cu  Cu108  1  0.83328242  0.82733819  0.74903479  1
  Cu  Cu109  1  0.33780457  0.66265575  0.00659705  1
  Cu  Cu110  1  -0.00298932  -0.00278186  0.00303305  1
  Cu  Cu111  1  0.50533532  0.50630569  0.74383056  1
  Cu  Cu112  1  0.15977209  0.82827808  0.75232606  1
  Cu  Cu113  1  0.50685436  0.17067030  0.74241475  1
  Cu  Cu114  1  0.66217461  0.66147702  0.49975185  1
  Se  Se115  1  0.07782022  0.08698631  0.05062562  1
  Se  Se116  1  0.09218258  0.09080868  0.55531332  1
  Se  Se117  1  0.08502352  0.41913742  0.06055523  1
  Se  Se118  1  0.07722380  0.41516738  0.55576496  1
  Se  Se119  1  0.09012166  0.73811698  0.06695102  1
  Se  Se120  1  0.08209518  0.75229547  0.55538460  1
  Se  Se121  1  0.40944068  0.08353722  0.07055179  1
  Se  Se122  1  0.41943665  0.08371699  0.54808775  1
  Se  Se123  1  0.42511733  0.41721132  0.05555078  1
  Se  Se124  1  0.41513910  0.41965690  0.54574094  1
  Se  Se125  1  0.42276687  0.75259499  0.05056382  1
  Se  Se126  1  0.40274231  0.74226403  0.54436077  1
  Se  Se127  1  0.74483989  0.07970690  0.05976046  1
  Se  Se128  1  0.75177159  0.08598032  0.55394152  1
  Se  Se129  1  0.74800814  0.41117944  0.05840471  1
  Se  Se130  1  0.74656278  0.41562969  0.55269269  1
  Se  Se131  1  0.75513540  0.74515048  0.05006085  1
  Se  Se132  1  0.74219971  0.74304106  0.56140479  1
  Se  Se133  1  0.24372056  0.24523780  0.05852404  1
  Se  Se134  1  0.25386983  0.25463074  0.55275435  1
  Se  Se135  1  0.25220379  0.58532259  0.06164625  1
  Se  Se136  1  0.24971892  0.59177458  0.55440192  1
  Se  Se137  1  0.25835735  0.92330835  0.06259524  1
  Se  Se138  1  0.25545670  0.92605505  0.56065543  1
  Se  Se139  1  0.58480762  0.25514050  0.06411177  1
  Se  Se140  1  0.58071026  0.24630546  0.55236928  1
  Se  Se141  1  0.58686270  0.58024385  0.04762171  1
  Se  Se142  1  0.58035581  0.57785471  0.55446562  1
  Se  Se143  1  0.58590488  0.91433734  0.05035636  1
  Se  Se144  1  0.58296127  0.91204511  0.54985881  1
  Se  Se145  1  0.91619724  0.25514942  0.06212558  1
  Se  Se146  1  0.93162965  0.25968245  0.54923440  1
  Se  Se147  1  0.92951108  0.57795175  0.06874436  1
  Se  Se148  1  0.91681176  0.58421768  0.55299212  1
  Se  Se149  1  0.91366515  0.91150906  0.05124769  1
  Se  Se150  1  0.92297996  0.92409749  0.55928715  1
  Se  Se151  1  0.10611199  0.25970671  0.43611814  1
  Se  Se152  1  0.07753917  0.24574657  0.94834190  1
  Se  Se153  1  0.07502174  0.58899268  0.43729787  1
  Se  Se154  1  0.08834057  0.57660207  0.95334706  1
  Se  Se155  1  0.07577525  0.93080287  0.44293008  1
  Se  Se156  1  0.07936914  0.91756140  0.94109605  1
  Se  Se157  1  0.42299850  0.24644800  0.44566260  1
  Se  Se158  1  0.40172390  0.26486027  0.94627455  1
  Se  Se159  1  0.41094579  0.56974343  0.44576045  1
  Se  Se160  1  0.41929582  0.58272585  0.94788288  1
  Se  Se161  1  0.41680011  0.91140388  0.44568109  1
  Se  Se162  1  0.42462368  0.92402382  0.95446636  1
  Se  Se163  1  0.75038296  0.24829459  0.44637831  1
  Se  Se164  1  0.73843482  0.25784141  0.94222174  1
  Se  Se165  1  0.75325117  0.57957632  0.45419625  1
  Se  Se166  1  0.74095081  0.58723110  0.93396440  1
  Se  Se167  1  0.74323191  0.92447608  0.43732418  1
  Se  Se168  1  0.75439793  0.91128904  0.94399729  1
  Se  Se169  1  0.24819681  0.08612746  0.44788238  1
  Se  Se170  1  0.24864731  0.08337264  0.94904897  1
  Se  Se171  1  0.25247658  0.40206452  0.42722645  1
  Se  Se172  1  0.23826094  0.42571230  0.95295444  1
  Se  Se173  1  0.25116847  0.73453655  0.42907019  1
  Se  Se174  1  0.26229707  0.74103766  0.93936564  1
  Se  Se175  1  0.58319040  0.08426481  0.44686679  1
  Se  Se176  1  0.59267519  0.08485416  0.94287146  1
  Se  Se177  1  0.58164599  0.41632740  0.44702102  1
  Se  Se178  1  0.57805422  0.41914662  0.94408863  1
  Se  Se179  1  0.57887519  0.74618583  0.44815191  1
  Se  Se180  1  0.58112645  0.75334561  0.94191822  1
  Se  Se181  1  0.91178377  0.09312175  0.45446584  1
  Se  Se182  1  0.92159632  0.07235641  0.93506359  1
  Se  Se183  1  0.91311330  0.42173626  0.44355043  1
  Se  Se184  1  0.92251595  0.40808407  0.94630928  1
  Se  Se185  1  0.92144190  0.74907334  0.44039227  1
  Se  Se186  1  0.92368262  0.74037629  0.94980266  1
  Se  Se187  1  0.26345467  0.24701114  0.29355274  1
  Se  Se188  1  0.23759871  0.24123114  0.80907396  1
  Se  Se189  1  0.25067440  0.57487369  0.29176847  1
  Se  Se190  1  0.24695722  0.57781321  0.81073647  1
  Se  Se191  1  0.24464485  0.91199877  0.31110844  1
  Se  Se192  1  0.24231792  0.90438761  0.81362721  1
  Se  Se193  1  0.58796925  0.25061422  0.30657028  1
  Se  Se194  1  0.58223772  0.25729054  0.80030806  1
  Se  Se195  1  0.58440036  0.57824833  0.31441952  1
  Se  Se196  1  0.58412751  0.59194622  0.79864834  1
  Se  Se197  1  0.58245815  0.91234570  0.30353159  1
  Se  Se198  1  0.58813005  0.92061749  0.80310682  1
  Se  Se199  1  0.91515579  0.24902094  0.30952228  1
  Se  Se200  1  0.90511587  0.24228919  0.81099380  1
  Se  Se201  1  0.91699988  0.58666240  0.30600235  1
  Se  Se202  1  0.91412858  0.57656581  0.80678128  1
  Se  Se203  1  0.90614165  0.91210963  0.30991109  1
  Se  Se204  1  0.91615985  0.91246663  0.80244579  1
  Se  Se205  1  0.07090717  0.09416412  0.31175878  1
  Se  Se206  1  0.08027460  0.07513602  0.79809023  1
  Se  Se207  1  0.10457423  0.44468078  0.29951774  1
  Se  Se208  1  0.08410785  0.41427558  0.81207105  1
  Se  Se209  1  0.08097069  0.75145155  0.29885136  1
  Se  Se210  1  0.07911292  0.74378335  0.80571193  1
  Se  Se211  1  0.42061597  0.08612068  0.31714512  1
  Se  Se212  1  0.42919961  0.09631367  0.81035228  1
  Se  Se213  1  0.42105912  0.41262200  0.30201871  1
  Se  Se214  1  0.42301560  0.43024745  0.80704215  1
  Se  Se215  1  0.42218217  0.74022883  0.30219390  1
  Se  Se216  1  0.42033339  0.75822354  0.80607965  1
  Se  Se217  1  0.74865124  0.08138433  0.30533934  1
  Se  Se218  1  0.74891304  0.08294511  0.79764123  1
  Se  Se219  1  0.74707792  0.41486325  0.30474197  1
  Se  Se220  1  0.74219589  0.41398769  0.79955050  1
  Se  Se221  1  0.75797262  0.75563528  0.30990172  1
  Se  Se222  1  0.74874768  0.74651350  0.80355549  1
  Se  Se223  1  0.23522956  0.08864360  0.20334104  1
  Se  Se224  1  0.24911269  0.09304927  0.69457412  1
  Se  Se225  1  0.24135121  0.43490735  0.19474132  1
  Se  Se226  1  0.23996344  0.42370409  0.69452211  1
  Se  Se227  1  0.25899003  0.74684795  0.20420666  1
  Se  Se228  1  0.24214015  0.76073697  0.68591798  1
  Se  Se229  1  0.58330017  0.07939711  0.20288266  1
  Se  Se230  1  0.58748195  0.08152261  0.69326984  1
  Se  Se231  1  0.59247934  0.41464031  0.20089673  1
  Se  Se232  1  0.58253401  0.41418812  0.69336304  1
  Se  Se233  1  0.58127975  0.74853632  0.18341693  1
  Se  Se234  1  0.57918351  0.74796896  0.69146483  1
  Se  Se235  1  0.90595069  0.09343269  0.18513933  1
  Se  Se236  1  0.92041237  0.08294125  0.69284451  1
  Se  Se237  1  0.92058371  0.40900169  0.20887593  1
  Se  Se238  1  0.90275884  0.42369332  0.68690433  1
  Se  Se239  1  0.90560348  0.76657496  0.19804563  1
  Se  Se240  1  0.91787443  0.74358424  0.69672768  1
  Se  Se241  1  0.08332794  0.25978466  0.20036021  1
  Se  Se242  1  0.08963866  0.24372186  0.69266195  1
  Se  Se243  1  0.05347375  0.61202886  0.19151128  1
  Se  Se244  1  0.07504138  0.58628637  0.70200876  1
  Se  Se245  1  0.09095693  0.91255044  0.18690715  1
  Se  Se246  1  0.08203973  0.91581118  0.69839181  1
  Se  Se247  1  0.42086640  0.24779158  0.20264584  1
  Se  Se248  1  0.42097234  0.24953264  0.68701992  1
  Se  Se249  1  0.42492422  0.58018284  0.19525491  1
  Se  Se250  1  0.41953542  0.57748276  0.68238811  1
  Se  Se251  1  0.42623570  0.90635688  0.18851998  1
  Se  Se252  1  0.42516642  0.91920886  0.69159968  1
  Se  Se253  1  0.74747540  0.25111431  0.20103118  1
  Se  Se254  1  0.75025413  0.25327011  0.69239683  1
  Se  Se255  1  0.76179226  0.57484299  0.18852779  1
  Se  Se256  1  0.74267833  0.58657843  0.69626617  1
  Se  Se257  1  0.73720127  0.91939221  0.19621226  1
  Se  Se258  1  0.75133270  0.91392789  0.69652313  1
