# generated using pymatgen
data_In86Cu29Se144
_symmetry_space_group_name_H-M   'P 1'
_cell_length_a   17.56059883
_cell_length_b   17.56127021
_cell_length_c   23.41645194
_cell_angle_alpha   89.99871671
_cell_angle_beta   89.99319381
_cell_angle_gamma   90.02985630
_symmetry_Int_Tables_number   1
_chemical_formula_structural   In86Cu29Se144
_chemical_formula_sum   'In86 Cu29 Se144'
_cell_volume   7221.31477630
_cell_formula_units_Z   1
loop_
 _symmetry_equiv_pos_site_id
 _symmetry_equiv_pos_as_xyz
  1  'x, y, z'
loop_
 _atom_site_type_symbol
 _atom_site_label
 _atom_site_symmetry_multiplicity
 _atom_site_fract_x
 _atom_site_fract_y
 _atom_site_fract_z
 _atom_site_occupancy
  In  In0  1  0.00500318  0.16183495  0.10904276  1
  In  In1  1  0.01040985  0.15715357  0.63658457  1
  In  In2  1  -0.00001374  0.50024459  0.11228942  1
  In  In3  1  0.00665485  0.49386471  0.63633278  1
  In  In4  1  0.00053514  0.84579353  0.10541378  1
  In  In5  1  0.00042571  0.83276247  0.62913212  1
  In  In6  1  0.33429951  0.17579430  0.13427915  1
  In  In7  1  0.32978924  0.15955900  0.61480866  1
  In  In8  1  0.32512174  0.49135776  0.12102843  1
  In  In9  1  0.33712192  0.51754133  0.62632305  1
  In  In10  1  0.33179003  0.84291235  0.12692601  1
  In  In11  1  0.32994252  0.83219256  0.62284002  1
  In  In12  1  0.67622163  0.16944377  0.12361037  1
  In  In13  1  0.66220497  0.17339428  0.61701431  1
  In  In14  1  0.66664687  0.50397538  0.12786382  1
  In  In15  1  0.67472442  0.50243589  0.62418393  1
  In  In16  1  0.67060567  0.83111161  0.12102919  1
  In  In17  1  0.66249186  0.82177024  0.61772684  1
  In  In18  1  0.17251959  -0.00683818  0.38112974  1
  In  In19  1  0.14532519  0.01467216  0.89695388  1
  In  In20  1  0.17581821  0.32035526  0.38210404  1
  In  In21  1  0.15382000  0.34381871  0.88386413  1
  In  In22  1  0.16148703  0.66864999  0.38895202  1
  In  In23  1  0.16707506  0.67039117  0.87403306  1
  In  In24  1  0.48574922  0.00922314  0.38106832  1
  In  In25  1  0.49674514  -0.01101861  0.87402063  1
  In  In26  1  0.46829775  0.30778047  0.33605458  1
  In  In27  1  0.51472570  0.33358114  0.87884351  1
  In  In28  1  0.51288407  0.66028746  0.37383777  1
  In  In29  1  0.48888365  0.66362820  0.86637535  1
  In  In30  1  0.82458884  -0.01274467  0.37425623  1
  In  In31  1  0.86734738  -0.03081711  0.91761731  1
  In  In32  1  0.81876404  0.34186873  0.36999149  1
  In  In33  1  0.84538734  0.32464253  0.88463585  1
  In  In34  1  0.82707937  0.67091110  0.37545694  1
  In  In35  1  0.83473439  0.66341163  0.87287162  1
  In  In36  1  0.00711968  0.17643461  0.37718204  1
  In  In37  1  -0.00431689  0.16368766  0.87730918  1
  In  In38  1  -0.00016253  0.51077981  0.37749474  1
  In  In39  1  0.00208077  0.50225234  0.87346452  1
  In  In40  1  -0.00091065  0.82995155  0.38742173  1
  In  In41  1  0.00538797  0.82954529  0.87179992  1
  In  In42  1  0.33277741  0.15979628  0.36899517  1
  In  In43  1  0.31663039  0.14928756  0.87921292  1
  In  In44  1  0.33416408  0.48751080  0.37388910  1
  In  In45  1  0.32281493  0.51083546  0.88560544  1
  In  In46  1  0.32140090  0.84318218  0.38181437  1
  In  In47  1  0.33112722  0.82107999  0.87389740  1
  In  In48  1  0.64264523  0.16209148  0.36574661  1
  In  In49  1  0.67321254  0.16760633  0.88201975  1
  In  In50  1  0.64025229  0.48623685  0.34397878  1
  In  In51  1  0.65866114  0.50696746  0.88450647  1
  In  In52  1  0.67082635  0.82234617  0.38150329  1
  In  In53  1  0.68128926  0.83578559  0.87537677  1
  In  In54  1  0.18571932  0.01837019  0.09597604  1
  In  In55  1  0.16047246  -0.00715945  0.62405998  1
  In  In56  1  0.17124270  0.33641248  0.12099922  1
  In  In57  1  0.16296862  0.32551669  0.62121513  1
  In  In58  1  0.16773729  0.66524020  0.11597472  1
  In  In59  1  0.16706019  0.66961744  0.62891298  1
  In  In60  1  0.49502856  0.00143586  0.13450070  1
  In  In61  1  0.49671879  -0.00495625  0.61470608  1
  In  In62  1  0.48717376  0.34891231  0.14436116  1
  In  In63  1  0.50844321  0.32830857  0.61515138  1
  In  In64  1  0.52164447  0.66893825  0.13175981  1
  In  In65  1  0.48827295  0.68424790  0.64418488  1
  In  In66  1  0.83186313  0.00650531  0.09758656  1
  In  In67  1  0.85275666  -0.00296440  0.63213623  1
  In  In68  1  0.83229070  0.33770484  0.12087756  1
  In  In69  1  0.83341388  0.34369274  0.62631277  1
  In  In70  1  0.82519558  0.66335400  0.11076077  1
  In  In71  1  0.82307777  0.67508172  0.63767735  1
  In  In72  1  0.66343230  -0.00243826  0.24457138  1
  In  In73  1  -0.00500555  0.66806760  0.24688424  1
  In  In74  1  0.32613495  -0.01165607  0.74868065  1
  In  In75  1  0.34007670  0.65986573  0.25515457  1
  In  In76  1  0.67256760  0.33689509  0.74804616  1
  In  In77  1  0.49891543  0.83344295  0.00269024  1
  In  In78  1  -0.00202566  0.33776518  0.24037043  1
  In  In79  1  0.49817103  0.17324728  0.00836878  1
  In  In80  1  0.84026788  0.15791616  0.50138192  1
  In  In81  1  0.67409267  -0.00270904  0.75898705  1
  In  In82  1  0.33262601  0.33828240  0.75247376  1
  In  In83  1  0.83309444  0.50636878  0.49568122  1
  In  In84  1  0.50143696  0.49962291  0.49465675  1
  In  In85  1  0.00393599  -0.00134886  0.23493062  1
  Cu  Cu86  1  0.83664948  0.49820330  0.75489716  1
  Cu  Cu87  1  0.49762924  0.83919071  0.25312173  1
  Cu  Cu88  1  0.83533491  0.83160932  0.24684965  1
  Cu  Cu89  1  0.33838320  0.66036727  0.00000366  1
  Cu  Cu90  1  0.16801306  0.50577015  0.75584122  1
  Cu  Cu91  1  0.33615734  0.00553244  0.49845329  1
  Cu  Cu92  1  0.00568884  0.33455443  -0.00277318  1
  Cu  Cu93  1  0.84098980  0.83697188  0.75801952  1
  Cu  Cu94  1  0.33272850  0.33019108  0.49092182  1
  Cu  Cu95  1  0.84267497  0.16638216  0.75855273  1
  Cu  Cu96  1  0.33613116  0.32633863  0.00432933  1
  Cu  Cu97  1  0.00733929  0.33231086  0.50448311  1
  Cu  Cu98  1  0.66548690  0.66346200  0.50016685  1
  Cu  Cu99  1  0.66512839  0.34796999  0.00666980  1
  Cu  Cu100  1  0.00196799  0.66643989  -0.00892562  1
  Cu  Cu101  1  0.65821070  0.32479617  0.48744272  1
  Cu  Cu102  1  0.66985771  0.66890055  -0.00033680  1
  Cu  Cu103  1  0.49783219  0.16112311  0.74295888  1
  Cu  Cu104  1  0.17118435  0.15941564  0.24763228  1
  Cu  Cu105  1  -0.00013607  0.66510666  0.50898580  1
  Cu  Cu106  1  0.00589540  -0.00255120  0.50670097  1
  Cu  Cu107  1  0.33007397  0.67290095  0.50531053  1
  Cu  Cu108  1  0.15785615  0.16945612  0.75436293  1
  Cu  Cu109  1  0.16753587  0.49109302  0.24938657  1
  Cu  Cu110  1  0.16944548  0.83735766  0.25095036  1
  Cu  Cu111  1  0.50070144  0.50683457  0.75578320  1
  Cu  Cu112  1  0.66953784  -0.01004489  0.49699243  1
  Cu  Cu113  1  0.83138952  0.16959531  0.24261146  1
  Cu  Cu114  1  0.16467353  0.83489671  0.75104667  1
  Se  Se115  1  0.06232336  0.05820541  0.04539437  1
  Se  Se116  1  0.08553416  0.08696906  0.55690796  1
  Se  Se117  1  0.09036950  0.41792308  0.05054215  1
  Se  Se118  1  0.08400935  0.42062454  0.55852947  1
  Se  Se119  1  0.08217672  0.74661286  0.04971313  1
  Se  Se120  1  0.08385363  0.75190039  0.55887362  1
  Se  Se121  1  0.40897774  0.07743140  0.06188583  1
  Se  Se122  1  0.42407285  0.08909632  0.54840461  1
  Se  Se123  1  0.41847594  0.41079598  0.05735794  1
  Se  Se124  1  0.40714802  0.41125922  0.55742324  1
  Se  Se125  1  0.41373521  0.73994186  0.06572893  1
  Se  Se126  1  0.42037007  0.74863166  0.55859440  1
  Se  Se127  1  0.73855372  0.09231528  0.04353376  1
  Se  Se128  1  0.74689769  0.06977793  0.56195460  1
  Se  Se129  1  0.75478623  0.42918645  0.05528039  1
  Se  Se130  1  0.73803326  0.40468937  0.54907550  1
  Se  Se131  1  0.75223492  0.76060952  0.04545304  1
  Se  Se132  1  0.75486998  0.74240651  0.55272483  1
  Se  Se133  1  0.25133332  0.24435015  0.05702515  1
  Se  Se134  1  0.25142978  0.25114463  0.55128659  1
  Se  Se135  1  0.24966134  0.57813580  0.05080177  1
  Se  Se136  1  0.24752431  0.58600029  0.55600633  1
  Se  Se137  1  0.24192439  0.89646511  0.05137448  1
  Se  Se138  1  0.25445682  0.92347940  0.55603408  1
  Se  Se139  1  0.58451446  0.26654764  0.06633438  1
  Se  Se140  1  0.57690780  0.24145392  0.54207609  1
  Se  Se141  1  0.58610216  0.58705227  0.05401302  1
  Se  Se142  1  0.58277478  0.58789289  0.56259500  1
  Se  Se143  1  0.58541421  0.92950527  0.06139240  1
  Se  Se144  1  0.58345580  0.91013366  0.55120620  1
  Se  Se145  1  0.91945330  0.25667174  0.05353364  1
  Se  Se146  1  0.92241222  0.25369395  0.56320957  1
  Se  Se147  1  0.91783016  0.58544417  0.04655581  1
  Se  Se148  1  0.91730589  0.58472791  0.56782868  1
  Se  Se149  1  0.90833931  0.91359122  0.03428911  1
  Se  Se150  1  0.91848600  0.91411939  0.55565140  1
  Se  Se151  1  0.08815417  0.24427213  0.45305921  1
  Se  Se152  1  0.08526702  0.24356007  0.94685095  1
  Se  Se153  1  0.08007903  0.57955144  0.45420885  1
  Se  Se154  1  0.08895138  0.58126213  0.94257844  1
  Se  Se155  1  0.08708979  0.91372022  0.45016127  1
  Se  Se156  1  0.09232639  0.89687663  0.94718829  1
  Se  Se157  1  0.41662543  0.25412659  0.43197354  1
  Se  Se158  1  0.40905566  0.25092692  0.93513056  1
  Se  Se159  1  0.40539363  0.59296272  0.44004834  1
  Se  Se160  1  0.42555085  0.58184391  0.94652809  1
  Se  Se161  1  0.41629164  0.91460582  0.44894434  1
  Se  Se162  1  0.40347921  0.92107799  0.94505259  1
  Se  Se163  1  0.74823985  0.24229115  0.43711925  1
  Se  Se164  1  0.74120418  0.26242373  0.94907158  1
  Se  Se165  1  0.73242789  0.57919469  0.43393234  1
  Se  Se166  1  0.75350998  0.58408295  0.94666463  1
  Se  Se167  1  0.75715750  0.90551003  0.44978481  1
  Se  Se168  1  0.73075377  0.93101268  0.94867316  1
  Se  Se169  1  0.25017392  0.08686579  0.44473822  1
  Se  Se170  1  0.24973250  0.07857569  0.95956652  1
  Se  Se171  1  0.24628621  0.41934082  0.44668039  1
  Se  Se172  1  0.25414493  0.41066585  0.94866859  1
  Se  Se173  1  0.24539852  0.75564399  0.45203661  1
  Se  Se174  1  0.25372557  0.74375283  0.94827346  1
  Se  Se175  1  0.58788552  0.07729737  0.44583079  1
  Se  Se176  1  0.57761598  0.08003794  0.94089205  1
  Se  Se177  1  0.58104307  0.40892909  0.42980598  1
  Se  Se178  1  0.57539408  0.42326656  0.95302909  1
  Se  Se179  1  0.57881844  0.74695876  0.44898248  1
  Se  Se180  1  0.58573830  0.74574382  0.93833794  1
  Se  Se181  1  0.92818613  0.06891112  0.43632750  1
  Se  Se182  1  0.89686949  0.10716921  0.94823191  1
  Se  Se183  1  0.92316535  0.40514675  0.44159482  1
  Se  Se184  1  0.92160615  0.42076039  0.94662549  1
  Se  Se185  1  0.91505330  0.74012032  0.44871027  1
  Se  Se186  1  0.91601954  0.74942383  0.94016071  1
  Se  Se187  1  0.24732485  0.24806695  0.30231689  1
  Se  Se188  1  0.24312656  0.24656021  0.81207258  1
  Se  Se189  1  0.23591559  0.57924937  0.31247745  1
  Se  Se190  1  0.25530862  0.58748177  0.80595977  1
  Se  Se191  1  0.25147186  0.92215106  0.30331673  1
  Se  Se192  1  0.23522298  0.91570807  0.81802612  1
  Se  Se193  1  0.60412292  0.27251487  0.30179413  1
  Se  Se194  1  0.58028998  0.23908957  0.80300595  1
  Se  Se195  1  0.58152725  0.59914381  0.28963047  1
  Se  Se196  1  0.58968000  0.58628035  0.80653608  1
  Se  Se197  1  0.58153420  0.91441547  0.31571056  1
  Se  Se198  1  0.57580721  0.90200395  0.80537652  1
  Se  Se199  1  0.91070872  0.24550034  0.30613109  1
  Se  Se200  1  0.92419505  0.25680895  0.80570490  1
  Se  Se201  1  0.90556438  0.57651742  0.30570422  1
  Se  Se202  1  0.92150879  0.58520507  0.80276674  1
  Se  Se203  1  0.91987870  0.90932574  0.30522858  1
  Se  Se204  1  0.91352249  0.92351086  0.81692694  1
  Se  Se205  1  0.08484203  0.08502726  0.30685690  1
  Se  Se206  1  0.08256664  0.08055493  0.80965103  1
  Se  Se207  1  0.08492782  0.41683243  0.31251708  1
  Se  Se208  1  0.08467635  0.41706218  0.80338606  1
  Se  Se209  1  0.08795631  0.75633307  0.30971764  1
  Se  Se210  1  0.08284493  0.74509305  0.80041228  1
  Se  Se211  1  0.42339086  0.08563248  0.30083523  1
  Se  Se212  1  0.41845668  0.08658878  0.80600318  1
  Se  Se213  1  0.42340629  0.43710972  0.29688163  1
  Se  Se214  1  0.42403541  0.42256699  0.81546819  1
  Se  Se215  1  0.41959940  0.75917064  0.31557184  1
  Se  Se216  1  0.41881706  0.75853694  0.80029357  1
  Se  Se217  1  0.75690530  0.08824491  0.30693242  1
  Se  Se218  1  0.76266792  0.08658560  0.81704524  1
  Se  Se219  1  0.76058168  0.43036335  0.29676965  1
  Se  Se220  1  0.75549516  0.41954776  0.81651220  1
  Se  Se221  1  0.75100237  0.75372938  0.30258159  1
  Se  Se222  1  0.75374016  0.75013137  0.80355759  1
  Se  Se223  1  0.24643156  0.07675305  0.18758668  1
  Se  Se224  1  0.24266218  0.09234194  0.69389140  1
  Se  Se225  1  0.25194556  0.40932024  0.19722203  1
  Se  Se226  1  0.24512239  0.42647133  0.69028271  1
  Se  Se227  1  0.24530896  0.74724529  0.19500903  1
  Se  Se228  1  0.25102830  0.75471797  0.69707494  1
  Se  Se229  1  0.57724871  0.09974507  0.19473703  1
  Se  Se230  1  0.58359040  0.08254272  0.68796329  1
  Se  Se231  1  0.59720302  0.41271861  0.19858800  1
  Se  Se232  1  0.57250019  0.42427714  0.69076113  1
  Se  Se233  1  0.58800520  0.76546922  0.19926063  1
  Se  Se234  1  0.60462327  0.73761924  0.69679632  1
  Se  Se235  1  0.90579000  0.08819337  0.18149021  1
  Se  Se236  1  0.92412193  0.07974652  0.70588451  1
  Se  Se237  1  0.90994469  0.43585458  0.18947392  1
  Se  Se238  1  0.91608751  0.41167499  0.70107526  1
  Se  Se239  1  0.91676501  0.76067182  0.18112338  1
  Se  Se240  1  0.91852262  0.75124441  0.70030902  1
  Se  Se241  1  0.08671162  0.23743986  0.18848190  1
  Se  Se242  1  0.08162713  0.25769243  0.69920079  1
  Se  Se243  1  0.09006376  0.57522482  0.19090353  1
  Se  Se244  1  0.08440094  0.58736897  0.69958846  1
  Se  Se245  1  0.09629125  0.90837222  0.18101261  1
  Se  Se246  1  0.08042514  0.92010538  0.69922062  1
  Se  Se247  1  0.41961572  0.24743374  0.20673812  1
  Se  Se248  1  0.41996847  0.24691991  0.68730970  1
  Se  Se249  1  0.42086215  0.57873091  0.18502245  1
  Se  Se250  1  0.41156265  0.58709856  0.70562317  1
  Se  Se251  1  0.41089999  0.91884580  0.20176037  1
  Se  Se252  1  0.42796935  0.90963272  0.69204440  1
  Se  Se253  1  0.75130148  0.25750514  0.19303938  1
  Se  Se254  1  0.76084639  0.23711169  0.69167843  1
  Se  Se255  1  0.74119464  0.60555404  0.18858318  1
  Se  Se256  1  0.74877227  0.57669536  0.70085104  1
  Se  Se257  1  0.76596241  0.92057478  0.18502918  1
  Se  Se258  1  0.75780176  0.90966575  0.69146560  1
