# generated using pymatgen
data_In86Cu29Se144
_symmetry_space_group_name_H-M   'P 1'
_cell_length_a   17.58661567
_cell_length_b   17.58397210
_cell_length_c   23.44248026
_cell_angle_alpha   89.98902650
_cell_angle_beta   89.98034379
_cell_angle_gamma   90.00414553
_symmetry_Int_Tables_number   1
_chemical_formula_structural   In86Cu29Se144
_chemical_formula_sum   'In86 Cu29 Se144'
_cell_volume   7249.41200911
_cell_formula_units_Z   1
loop_
 _symmetry_equiv_pos_site_id
 _symmetry_equiv_pos_as_xyz
  1  'x, y, z'
loop_
 _atom_site_type_symbol
 _atom_site_label
 _atom_site_symmetry_multiplicity
 _atom_site_fract_x
 _atom_site_fract_y
 _atom_site_fract_z
 _atom_site_occupancy
  In  In0  1  0.00543287  0.15220602  0.12714172  1
  In  In1  1  0.00247259  0.15200535  0.62906493  1
  In  In2  1  0.00280168  0.52339529  0.12326844  1
  In  In3  1  0.01751560  0.50745203  0.62949882  1
  In  In4  1  0.00625359  0.82672515  0.13384443  1
  In  In5  1  -0.00143323  0.83443190  0.61967538  1
  In  In6  1  0.32344444  0.16405912  0.11295066  1
  In  In7  1  0.33749790  0.15633926  0.62861267  1
  In  In8  1  0.33731348  0.50231966  0.12531256  1
  In  In9  1  0.33466852  0.50488606  0.63123495  1
  In  In10  1  0.33238102  0.83245974  0.13427344  1
  In  In11  1  0.33241156  0.82811517  0.62931474  1
  In  In12  1  0.66158133  0.18660252  0.12977309  1
  In  In13  1  0.65649658  0.17641191  0.62260084  1
  In  In14  1  0.66110554  0.50192312  0.12411026  1
  In  In15  1  0.66507090  0.51899530  0.62749844  1
  In  In16  1  0.65565086  0.82366568  0.13359413  1
  In  In17  1  0.65561241  0.82544767  0.61164958  1
  In  In18  1  0.15579156  -0.01838889  0.36910355  1
  In  In19  1  0.17662528  0.00210829  0.85854649  1
  In  In20  1  0.18067686  0.34135684  0.37690400  1
  In  In21  1  0.17074012  0.31678201  0.88059263  1
  In  In22  1  0.17376342  0.66813537  0.37832004  1
  In  In23  1  0.17451197  0.65799699  0.85176515  1
  In  In24  1  0.49026031  0.00680775  0.38089434  1
  In  In25  1  0.49096678  0.01329695  0.87715735  1
  In  In26  1  0.50173244  0.33191013  0.37623459  1
  In  In27  1  0.48462546  0.34486890  0.89024741  1
  In  In28  1  0.49638492  0.66436570  0.37840264  1
  In  In29  1  0.48528389  0.64556293  0.86272114  1
  In  In30  1  0.84308343  -0.01736788  0.38118267  1
  In  In31  1  0.83821604  -0.01205879  0.87179173  1
  In  In32  1  0.82936771  0.35025413  0.37273289  1
  In  In33  1  0.84182849  0.34361884  0.88057011  1
  In  In34  1  0.84369888  0.67627696  0.37021008  1
  In  In35  1  0.82926104  0.65471438  0.86103430  1
  In  In36  1  0.01465653  0.15503975  0.37608776  1
  In  In37  1  0.01537232  0.16926048  0.87546592  1
  In  In38  1  0.00505230  0.51553775  0.37609379  1
  In  In39  1  -0.00801191  0.50233157  0.87634104  1
  In  In40  1  0.00736297  0.83321398  0.38281757  1
  In  In41  1  0.01078037  0.82549591  0.85393754  1
  In  In42  1  0.34580884  0.16771727  0.37491023  1
  In  In43  1  0.33360893  0.16610081  0.87162412  1
  In  In44  1  0.32040745  0.51888447  0.38540538  1
  In  In45  1  0.34352378  0.50547311  0.86696319  1
  In  In46  1  0.33124056  0.83175814  0.37906104  1
  In  In47  1  0.32553983  0.82422596  0.85620104  1
  In  In48  1  0.65241782  0.16750455  0.37087217  1
  In  In49  1  0.64848956  0.16036764  0.87862653  1
  In  In50  1  0.65873660  0.49342039  0.36920432  1
  In  In51  1  0.66301017  0.50374275  0.87871048  1
  In  In52  1  0.67595478  0.82338553  0.38154433  1
  In  In53  1  0.67497203  0.82613500  0.87304316  1
  In  In54  1  0.16703559  -0.00168822  0.12766948  1
  In  In55  1  0.17003806  -0.01474970  0.63196146  1
  In  In56  1  0.18598807  0.33053061  0.12002350  1
  In  In57  1  0.18077975  0.36133417  0.62906629  1
  In  In58  1  0.16442326  0.66007826  0.13905873  1
  In  In59  1  0.16707140  0.67084257  0.63425783  1
  In  In60  1  0.47884309  -0.00198711  0.12757670  1
  In  In61  1  0.48658098  -0.00993687  0.61348152  1
  In  In62  1  0.49822004  0.34765829  0.11609417  1
  In  In63  1  0.48634942  0.32684905  0.61946616  1
  In  In64  1  0.50221877  0.66391645  0.13099563  1
  In  In65  1  0.50157532  0.66736560  0.62370344  1
  In  In66  1  0.84746612  0.00473109  0.12909500  1
  In  In67  1  0.84938229  -0.01150331  0.62364149  1
  In  In68  1  0.81663646  0.33635364  0.12708936  1
  In  In69  1  0.84160702  0.33914754  0.62520166  1
  In  In70  1  0.83749057  0.66001476  0.12861683  1
  In  In71  1  0.82047295  0.67339785  0.62995312  1
  In  In72  1  0.83109304  0.17480415  0.00251128  1
  In  In73  1  0.17381279  0.16146855  0.50632216  1
  In  In74  1  0.00660320  0.33845757  0.74652081  1
  In  In75  1  0.49520750  0.82968946  -0.00010734  1
  In  In76  1  0.66324375  0.33804819  0.75999733  1
  In  In77  1  0.66339775  -0.00137763  0.75250596  1
  In  In78  1  0.83395162  0.50536925  0.50332511  1
  In  In79  1  0.16960401  0.82754528  -0.01793153  1
  In  In80  1  0.82544952  0.15945474  0.49301025  1
  In  In81  1  0.67077134  -0.00580176  0.25421618  1
  In  In82  1  0.33824603  0.33989415  0.24072861  1
  In  In83  1  0.17225840  0.49869309  -0.00001565  1
  In  In84  1  -0.00280047  0.33474366  0.25250833  1
  In  In85  1  0.83607197  0.82828441  -0.00425655  1
  Cu  Cu86  1  0.50092637  0.16789511  0.25105601  1
  Cu  Cu87  1  0.00728561  0.67280297  0.50062195  1
  Cu  Cu88  1  0.83564779  0.16712366  0.74842706  1
  Cu  Cu89  1  0.33167107  -0.00267792  0.50080751  1
  Cu  Cu90  1  0.66340460  0.66541256  0.49798229  1
  Cu  Cu91  1  0.00014364  0.33760708  -0.00070438  1
  Cu  Cu92  1  0.16759879  0.16474817  0.74887717  1
  Cu  Cu93  1  0.66070567  0.00728439  0.00668129  1
  Cu  Cu94  1  0.84017284  0.82720855  0.25732045  1
  Cu  Cu95  1  0.66375276  0.00215900  0.49582978  1
  Cu  Cu96  1  0.66129644  0.34153573  0.00235629  1
  Cu  Cu97  1  0.00846054  0.00317900  -0.00095311  1
  Cu  Cu98  1  0.83387332  0.83041112  0.74570862  1
  Cu  Cu99  1  0.83803904  0.16370516  0.25007745  1
  Cu  Cu100  1  0.50550414  0.50019287  0.74938044  1
  Cu  Cu101  1  0.65333935  0.33829560  0.49949009  1
  Cu  Cu102  1  0.33748488  0.34391792  0.50109352  1
  Cu  Cu103  1  0.33290263  0.67145750  0.50664293  1
  Cu  Cu104  1  0.00329513  0.67024916  -0.00307986  1
  Cu  Cu105  1  0.66354280  0.66028989  -0.00157823  1
  Cu  Cu106  1  0.17289183  0.16012050  0.24593289  1
  Cu  Cu107  1  0.50550033  0.83016489  0.74184411  1
  Cu  Cu108  1  0.32521609  0.00002504  -0.00618821  1
  Cu  Cu109  1  0.82448897  0.50346634  0.24814496  1
  Cu  Cu110  1  0.49577459  0.82701695  0.25722374  1
  Cu  Cu111  1  0.16814174  0.83336435  0.25676246  1
  Cu  Cu112  1  0.00653823  0.33136555  0.50826530  1
  Cu  Cu113  1  0.48659753  0.16310598  0.74689026  1
  Cu  Cu114  1  0.49789046  0.50130686  0.25037095  1
  Se  Se115  1  0.09145665  0.08284314  0.05389780  1
  Se  Se116  1  0.07895656  0.06980303  0.55645435  1
  Se  Se117  1  0.07824272  0.41422044  0.06406403  1
  Se  Se118  1  0.08736610  0.42127677  0.55573840  1
  Se  Se119  1  0.08564452  0.74700577  0.05654677  1
  Se  Se120  1  0.09087913  0.75050270  0.55792150  1
  Se  Se121  1  0.41199618  0.07680978  0.04991609  1
  Se  Se122  1  0.41462800  0.08799291  0.54894114  1
  Se  Se123  1  0.39133805  0.40504625  0.05447370  1
  Se  Se124  1  0.41755939  0.42735021  0.55705356  1
  Se  Se125  1  0.40672546  0.74335204  0.06136302  1
  Se  Se126  1  0.41945331  0.75454293  0.55743477  1
  Se  Se127  1  0.74527616  0.08138926  0.06601032  1
  Se  Se128  1  0.74091838  0.07697362  0.56355523  1
  Se  Se129  1  0.74858867  0.42204957  0.05373563  1
  Se  Se130  1  0.74065025  0.41039810  0.55982818  1
  Se  Se131  1  0.74014945  0.74607641  0.05777315  1
  Se  Se132  1  0.75085019  0.74700024  0.54922852  1
  Se  Se133  1  0.25318273  0.25373414  0.04320730  1
  Se  Se134  1  0.25781607  0.26132882  0.56225615  1
  Se  Se135  1  0.25195629  0.59634833  0.06017496  1
  Se  Se136  1  0.25110833  0.58939694  0.56369305  1
  Se  Se137  1  0.25246154  0.91291928  0.05388647  1
  Se  Se138  1  0.25313563  0.91402946  0.55760411  1
  Se  Se139  1  0.58066497  0.25353459  0.05363799  1
  Se  Se140  1  0.57408550  0.24850125  0.54980437  1
  Se  Se141  1  0.57708540  0.58454148  0.05525388  1
  Se  Se142  1  0.58072825  0.58267044  0.55129433  1
  Se  Se143  1  0.58532037  0.92096658  0.06371789  1
  Se  Se144  1  0.57903255  0.91702319  0.54681416  1
  Se  Se145  1  0.92414798  0.25744178  0.06577972  1
  Se  Se146  1  0.92094877  0.24728991  0.55785671  1
  Se  Se147  1  0.91582629  0.59058654  0.04934957  1
  Se  Se148  1  0.92578495  0.59262522  0.56220338  1
  Se  Se149  1  0.92847420  0.91956673  0.05631543  1
  Se  Se150  1  0.90931166  0.90617296  0.54689492  1
  Se  Se151  1  0.08444535  0.25599778  0.44352193  1
  Se  Se152  1  0.08242050  0.24728207  0.95381142  1
  Se  Se153  1  0.08845226  0.58522089  0.44949413  1
  Se  Se154  1  0.08828953  0.59344271  0.93720243  1
  Se  Se155  1  0.09029176  0.91509648  0.45161802  1
  Se  Se156  1  0.07563527  0.92265638  0.93093157  1
  Se  Se157  1  0.41450546  0.25560377  0.44679659  1
  Se  Se158  1  0.43141868  0.22793496  0.94091577  1
  Se  Se159  1  0.41563659  0.58627160  0.45297473  1
  Se  Se160  1  0.41914161  0.57829926  0.94498995  1
  Se  Se161  1  0.41713705  0.91474617  0.44760943  1
  Se  Se162  1  0.40299996  0.91405138  0.93536608  1
  Se  Se163  1  0.74026915  0.26253600  0.43996048  1
  Se  Se164  1  0.73760468  0.25973899  0.93886168  1
  Se  Se165  1  0.74635139  0.58718640  0.43650296  1
  Se  Se166  1  0.75378599  0.58718864  0.94255641  1
  Se  Se167  1  0.74975827  0.91574319  0.44932102  1
  Se  Se168  1  0.73889757  0.92737879  0.94613032  1
  Se  Se169  1  0.25536374  0.07722579  0.43655579  1
  Se  Se170  1  0.24383545  0.08114599  0.93728227  1
  Se  Se171  1  0.24699823  0.42377737  0.45254765  1
  Se  Se172  1  0.25937871  0.41265624  0.93711916  1
  Se  Se173  1  0.24899464  0.75270624  0.45087842  1
  Se  Se174  1  0.26026921  0.73021340  0.93160736  1
  Se  Se175  1  0.58081573  0.08869161  0.44608229  1
  Se  Se176  1  0.57308720  0.08374054  0.95367496  1
  Se  Se177  1  0.57576518  0.42401705  0.44495983  1
  Se  Se178  1  0.57914722  0.42613447  0.94948803  1
  Se  Se179  1  0.58007909  0.75060254  0.44597221  1
  Se  Se180  1  0.58564247  0.74267620  0.93830907  1
  Se  Se181  1  0.93020042  0.07320834  0.44712751  1
  Se  Se182  1  0.91839869  0.07915970  0.94246580  1
  Se  Se183  1  0.92729000  0.41149719  0.44558063  1
  Se  Se184  1  0.91597755  0.42509370  0.95332921  1
  Se  Se185  1  0.91697284  0.74976832  0.44804142  1
  Se  Se186  1  0.92710396  0.74719649  0.93171105  1
  Se  Se187  1  0.24883227  0.24518667  0.30479336  1
  Se  Se188  1  0.24983237  0.24858407  0.80206977  1
  Se  Se189  1  0.24848428  0.58416501  0.30511316  1
  Se  Se190  1  0.24963509  0.55987887  0.79063404  1
  Se  Se191  1  0.25699435  0.91764218  0.30473187  1
  Se  Se192  1  0.24114025  0.90571332  0.79119868  1
  Se  Se193  1  0.58231604  0.25625315  0.30001025  1
  Se  Se194  1  0.56769851  0.24203139  0.80735393  1
  Se  Se195  1  0.57962224  0.58493503  0.30566853  1
  Se  Se196  1  0.59171812  0.58276245  0.80097101  1
  Se  Se197  1  0.57784102  0.91086699  0.31526089  1
  Se  Se198  1  0.57253621  0.90902059  0.81358116  1
  Se  Se199  1  0.91205421  0.24215072  0.31711558  1
  Se  Se200  1  0.91328412  0.24753603  0.80955134  1
  Se  Se201  1  0.91230585  0.57830722  0.30427002  1
  Se  Se202  1  0.93901488  0.59666446  0.80275569  1
  Se  Se203  1  0.92441535  0.91198859  0.30699783  1
  Se  Se204  1  0.91710736  0.91476873  0.79812508  1
  Se  Se205  1  0.08787187  0.07932943  0.30014262  1
  Se  Se206  1  0.07883336  0.08442870  0.79973327  1
  Se  Se207  1  0.08983422  0.42258484  0.31010498  1
  Se  Se208  1  0.08959492  0.41557497  0.81802779  1
  Se  Se209  1  0.08520514  0.75013638  0.31102341  1
  Se  Se210  1  0.10690094  0.75806957  0.78789429  1
  Se  Se211  1  0.41795561  0.08305921  0.30176324  1
  Se  Se212  1  0.40741892  0.07512592  0.79952811  1
  Se  Se213  1  0.41534695  0.42492000  0.31239876  1
  Se  Se214  1  0.42588775  0.41301018  0.80302550  1
  Se  Se215  1  0.41050023  0.74476431  0.30958467  1
  Se  Se216  1  0.42207617  0.74596563  0.79645838  1
  Se  Se217  1  0.75992311  0.08550125  0.31535833  1
  Se  Se218  1  0.75490897  0.09224228  0.81275817  1
  Se  Se219  1  0.74408172  0.41477394  0.29800677  1
  Se  Se220  1  0.76300787  0.42707120  0.80894657  1
  Se  Se221  1  0.74739548  0.74688790  0.30298826  1
  Se  Se222  1  0.74874960  0.74837105  0.79873100  1
  Se  Se223  1  0.25779475  0.08106593  0.19101216  1
  Se  Se224  1  0.24885483  0.07944383  0.69514592  1
  Se  Se225  1  0.23595782  0.43044502  0.19430136  1
  Se  Se226  1  0.25148170  0.43199944  0.70815894  1
  Se  Se227  1  0.24867167  0.74951859  0.20083111  1
  Se  Se228  1  0.23995715  0.76463573  0.70390143  1
  Se  Se229  1  0.58075011  0.08308528  0.19090357  1
  Se  Se230  1  0.57373133  0.08581569  0.68941002  1
  Se  Se231  1  0.57798414  0.41749880  0.19336253  1
  Se  Se232  1  0.58017352  0.41681080  0.68696534  1
  Se  Se233  1  0.58091313  0.74397678  0.20575591  1
  Se  Se234  1  0.59150501  0.74743640  0.69229354  1
  Se  Se235  1  0.92522904  0.07981395  0.20356774  1
  Se  Se236  1  0.91368251  0.07869627  0.69798377  1
  Se  Se237  1  0.91053715  0.42440274  0.18868634  1
  Se  Se238  1  0.91180660  0.43136864  0.69407242  1
  Se  Se239  1  0.91823332  0.74471440  0.19714831  1
  Se  Se240  1  0.91748648  0.74930944  0.69102266  1
  Se  Se241  1  0.09251225  0.24739980  0.19078010  1
  Se  Se242  1  0.09490938  0.24786752  0.68417948  1
  Se  Se243  1  0.07108374  0.58919356  0.20505453  1
  Se  Se244  1  0.08778488  0.58494133  0.70482051  1
  Se  Se245  1  0.08703819  0.91527920  0.19769431  1
  Se  Se246  1  0.06008334  0.93034806  0.69124757  1
  Se  Se247  1  0.42274933  0.24206238  0.18444204  1
  Se  Se248  1  0.40828319  0.25304303  0.69543261  1
  Se  Se249  1  0.41328176  0.58407441  0.19786679  1
  Se  Se250  1  0.42334587  0.58713729  0.69723474  1
  Se  Se251  1  0.41564171  0.91340079  0.20375011  1
  Se  Se252  1  0.41971554  0.91658287  0.69446184  1
  Se  Se253  1  0.75236731  0.24932530  0.20292758  1
  Se  Se254  1  0.75495308  0.24863797  0.69265821  1
  Se  Se255  1  0.74257461  0.58668171  0.19357529  1
  Se  Se256  1  0.75728922  0.57671429  0.69890839  1
  Se  Se257  1  0.76280313  0.90563949  0.19067601  1
  Se  Se258  1  0.74786657  0.91052522  0.68780159  1
