# generated using pymatgen
data_In86Cu29Se144
_symmetry_space_group_name_H-M   'P 1'
_cell_length_a   17.58066225
_cell_length_b   17.58219054
_cell_length_c   23.43257503
_cell_angle_alpha   89.99357028
_cell_angle_beta   90.00748806
_cell_angle_gamma   89.99677789
_symmetry_Int_Tables_number   1
_chemical_formula_structural   In86Cu29Se144
_chemical_formula_sum   'In86 Cu29 Se144'
_cell_volume   7243.16239156
_cell_formula_units_Z   1
loop_
 _symmetry_equiv_pos_site_id
 _symmetry_equiv_pos_as_xyz
  1  'x, y, z'
loop_
 _atom_site_type_symbol
 _atom_site_label
 _atom_site_symmetry_multiplicity
 _atom_site_fract_x
 _atom_site_fract_y
 _atom_site_fract_z
 _atom_site_occupancy
  In  In0  1  0.01864643  0.16675666  0.12541946  1
  In  In1  1  -0.00235883  0.16764661  0.62163983  1
  In  In2  1  -0.01069281  0.49330379  0.12963550  1
  In  In3  1  0.01025396  0.49777839  0.63062483  1
  In  In4  1  0.00193683  0.84600194  0.12092770  1
  In  In5  1  0.00011396  0.83393668  0.62450435  1
  In  In6  1  0.32627771  0.15776966  0.11432420  1
  In  In7  1  0.31535708  0.17961533  0.63464490  1
  In  In8  1  0.34062628  0.50078036  0.12061793  1
  In  In9  1  0.29255158  0.52252130  0.65387478  1
  In  In10  1  0.34408978  0.82889470  0.14351576  1
  In  In11  1  0.32497124  0.84651784  0.63264319  1
  In  In12  1  0.65654846  0.17069267  0.12490950  1
  In  In13  1  0.67533161  0.15298952  0.62770651  1
  In  In14  1  0.66406426  0.51690195  0.12769917  1
  In  In15  1  0.67566433  0.48724634  0.62506323  1
  In  In16  1  0.67138837  0.82452323  0.13379104  1
  In  In17  1  0.67836189  0.84032188  0.62104339  1
  In  In18  1  0.17132445  -0.00125820  0.38453325  1
  In  In19  1  0.17715717  0.00966019  0.86706000  1
  In  In20  1  0.15883505  0.33976650  0.39086049  1
  In  In21  1  0.15361655  0.32562371  0.86564682  1
  In  In22  1  0.16817183  0.66944538  0.37857271  1
  In  In23  1  0.17090976  0.67158499  0.86364543  1
  In  In24  1  0.48667876  -0.02138338  0.35374994  1
  In  In25  1  0.50600936  0.00351960  0.87323395  1
  In  In26  1  0.49573329  0.32912576  0.37374300  1
  In  In27  1  0.48701452  0.34561552  0.88543583  1
  In  In28  1  0.50402864  0.67934343  0.35764356  1
  In  In29  1  0.48275605  0.66301309  0.88050351  1
  In  In30  1  0.83366604  -0.00160400  0.37969435  1
  In  In31  1  0.82400170  -0.00090280  0.86620095  1
  In  In32  1  0.85662240  0.31397925  0.39982438  1
  In  In33  1  0.84665578  0.33834687  0.86650494  1
  In  In34  1  0.83309112  0.67304840  0.38441776  1
  In  In35  1  0.84678756  0.66490569  0.87261881  1
  In  In36  1  0.00254603  0.17035121  0.38786537  1
  In  In37  1  0.01320681  0.17364695  0.86387460  1
  In  In38  1  0.01161925  0.48916358  0.39183918  1
  In  In39  1  0.01993990  0.51518465  0.83516920  1
  In  In40  1  0.00507739  0.83073185  0.38801564  1
  In  In41  1  -0.00747974  0.82975714  0.86701903  1
  In  In42  1  0.33019816  0.15721420  0.37921667  1
  In  In43  1  0.33187059  0.16392299  0.87727530  1
  In  In44  1  0.31819889  0.50855953  0.37916204  1
  In  In45  1  0.33565627  0.50798258  0.86653542  1
  In  In46  1  0.31941157  0.82309251  0.35982228  1
  In  In47  1  0.32658151  0.82817217  0.86795793  1
  In  In48  1  0.68053544  0.15396719  0.37473157  1
  In  In49  1  0.66649690  0.15661984  0.87448487  1
  In  In50  1  0.67143667  0.51103915  0.37440385  1
  In  In51  1  0.66233547  0.49263810  0.87557033  1
  In  In52  1  0.67380280  0.83940153  0.36468399  1
  In  In53  1  0.66677213  0.84893202  0.87506950  1
  In  In54  1  0.17431948  0.00987479  0.12983166  1
  In  In55  1  0.16363348  -0.00069743  0.62476154  1
  In  In56  1  0.17035651  0.31486693  0.13115275  1
  In  In57  1  0.16115706  0.33328027  0.62360606  1
  In  In58  1  0.18010580  0.67053400  0.12759536  1
  In  In59  1  0.16139113  0.67151970  0.62536809  1
  In  In60  1  0.49096814  0.00850728  0.13153611  1
  In  In61  1  0.49823449  0.00461916  0.63495006  1
  In  In62  1  0.49601694  0.32751261  0.11391174  1
  In  In63  1  0.48705124  0.32976104  0.62704536  1
  In  In64  1  0.50020002  0.66854997  0.12786267  1
  In  In65  1  0.48872508  0.65494815  0.62717435  1
  In  In66  1  0.83810614  -0.01617863  0.12312318  1
  In  In67  1  0.83469893  0.00204731  0.62297416  1
  In  In68  1  0.84292709  0.34073370  0.13074789  1
  In  In69  1  0.88167475  0.36182337  0.58872009  1
  In  In70  1  0.82242357  0.66550450  0.12783279  1
  In  In71  1  0.84107195  0.67329570  0.62200950  1
  In  In72  1  0.83076340  0.49679699  -0.00486492  1
  In  In73  1  0.00524606  0.00443957  0.25388686  1
  In  In74  1  0.16938479  0.83663763  -0.00192486  1
  In  In75  1  0.66642264  0.67219682  0.74029797  1
  In  In76  1  0.83383768  0.16799827  -0.00889452  1
  In  In77  1  0.00366903  0.66565884  0.26310395  1
  In  In78  1  0.49571802  0.49790695  0.49652133  1
  In  In79  1  0.50251285  0.15998479  0.49543457  1
  In  In80  1  0.67205672  0.33691630  0.25136767  1
  In  In81  1  0.16169454  0.49527572  -0.01074554  1
  In  In82  1  0.49387810  0.83054500  0.49004442  1
  In  In83  1  0.49925517  0.83352059  0.01028566  1
  In  In84  1  0.67340905  0.32254358  0.74941290  1
  In  In85  1  0.32882504  0.33543413  0.25392434  1
  Cu  Cu86  1  0.83277704  0.83934776  0.74426283  1
  Cu  Cu87  1  0.16697903  0.15910104  0.74464783  1
  Cu  Cu88  1  0.49408512  0.49922395  0.75403992  1
  Cu  Cu89  1  0.33518038  -0.00108535  -0.00005014  1
  Cu  Cu90  1  0.66355840  0.67398162  0.00622198  1
  Cu  Cu91  1  0.66597461  -0.00799207  0.49447285  1
  Cu  Cu92  1  0.83976399  0.16842806  0.74268899  1
  Cu  Cu93  1  0.83489227  0.82602684  0.25076199  1
  Cu  Cu94  1  0.32688908  0.66755467  0.50120719  1
  Cu  Cu95  1  -0.00248066  0.67119895  -0.00788830  1
  Cu  Cu96  1  -0.00035262  -0.00216659  0.50609927  1
  Cu  Cu97  1  0.00564985  0.66637096  0.50461032  1
  Cu  Cu98  1  0.33021773  0.32656560  -0.00267324  1
  Cu  Cu99  1  0.32532580  0.00517435  0.50542296  1
  Cu  Cu100  1  0.49799850  0.50769284  0.24440440  1
  Cu  Cu101  1  0.67013269  -0.00138201  -0.00140035  1
  Cu  Cu102  1  0.49692061  0.16542504  0.75465208  1
  Cu  Cu103  1  0.49968800  0.16216233  0.24559756  1
  Cu  Cu104  1  0.16168511  0.83454793  0.74589964  1
  Cu  Cu105  1  0.49894469  0.83449049  0.75535037  1
  Cu  Cu106  1  0.32511377  0.34113955  0.51062625  1
  Cu  Cu107  1  0.84011957  0.16105858  0.25929529  1
  Cu  Cu108  1  0.16326546  0.50307087  0.25918716  1
  Cu  Cu109  1  0.00350933  0.33333095  -0.00586186  1
  Cu  Cu110  1  0.66010220  0.33477063  -0.00094245  1
  Cu  Cu111  1  0.67270513  0.66454404  0.50126493  1
  Cu  Cu112  1  0.67141032  0.32703778  0.50263261  1
  Cu  Cu113  1  0.00197556  0.00237684  -0.00146685  1
  Cu  Cu114  1  0.83754760  0.49126419  0.25717299  1
  Se  Se115  1  0.08816418  0.07855561  0.05392061  1
  Se  Se116  1  0.08476015  0.08378746  0.55457307  1
  Se  Se117  1  0.07872197  0.41131430  0.06069134  1
  Se  Se118  1  0.07343408  0.40785997  0.55397083  1
  Se  Se119  1  0.07854649  0.74180445  0.05752998  1
  Se  Se120  1  0.08664345  0.75669227  0.55339496  1
  Se  Se121  1  0.42200611  0.08255406  0.05057281  1
  Se  Se122  1  0.40978205  0.08412973  0.56338097  1
  Se  Se123  1  0.41146681  0.41287966  0.04976479  1
  Se  Se124  1  0.40581249  0.42490375  0.56596446  1
  Se  Se125  1  0.40145008  0.74324937  0.05967716  1
  Se  Se126  1  0.40938784  0.74648826  0.55988155  1
  Se  Se127  1  0.75019868  0.08118917  0.05934169  1
  Se  Se128  1  0.74607934  0.07620389  0.54973990  1
  Se  Se129  1  0.74151444  0.41027912  0.06231803  1
  Se  Se130  1  0.75244691  0.41864026  0.54804622  1
  Se  Se131  1  0.75256677  0.75337219  0.05588882  1
  Se  Se132  1  0.75223972  0.75150348  0.55363936  1
  Se  Se133  1  0.24345458  0.24726569  0.05004040  1
  Se  Se134  1  0.24389785  0.24688490  0.55288103  1
  Se  Se135  1  0.24994862  0.58379313  0.05207725  1
  Se  Se136  1  0.24856012  0.58431909  0.55888729  1
  Se  Se137  1  0.26100119  0.91762728  0.06359379  1
  Se  Se138  1  0.24611815  0.91411102  0.55445015  1
  Se  Se139  1  0.58144819  0.24381385  0.04789246  1
  Se  Se140  1  0.58585309  0.25191372  0.56111040  1
  Se  Se141  1  0.57970687  0.58686763  0.05425259  1
  Se  Se142  1  0.59022034  0.58578577  0.55948831  1
  Se  Se143  1  0.59251481  0.92446084  0.06526768  1
  Se  Se144  1  0.57851986  0.92196977  0.55636311  1
  Se  Se145  1  0.92136839  0.25595773  0.05561271  1
  Se  Se146  1  0.90044043  0.22752104  0.55016129  1
  Se  Se147  1  0.92120631  0.58950869  0.05638529  1
  Se  Se148  1  0.92576887  0.58416503  0.56104922  1
  Se  Se149  1  0.91825963  0.91458413  0.04583745  1
  Se  Se150  1  0.91303060  0.91321428  0.55507750  1
  Se  Se151  1  0.06548553  0.26762555  0.45711828  1
  Se  Se152  1  0.08517219  0.24544479  0.94461986  1
  Se  Se153  1  0.09163430  0.58632874  0.45020602  1
  Se  Se154  1  0.07071018  0.58838454  0.93078702  1
  Se  Se155  1  0.08666924  0.91758591  0.45269602  1
  Se  Se156  1  0.08011616  0.92221380  0.93514117  1
  Se  Se157  1  0.40616043  0.26193161  0.44854623  1
  Se  Se158  1  0.41832413  0.24372154  0.94716230  1
  Se  Se159  1  0.41600873  0.59950266  0.43759889  1
  Se  Se160  1  0.41320072  0.57200031  0.94729580  1
  Se  Se161  1  0.40317524  0.92777419  0.44069466  1
  Se  Se162  1  0.41201408  0.91554021  0.94011142  1
  Se  Se163  1  0.74755924  0.23767376  0.44992935  1
  Se  Se164  1  0.74441526  0.26502028  0.93479612  1
  Se  Se165  1  0.75480772  0.57941061  0.44949606  1
  Se  Se166  1  0.74017995  0.59477891  0.94021996  1
  Se  Se167  1  0.75123346  0.90755940  0.44411354  1
  Se  Se168  1  0.75593462  0.91900505  0.94596433  1
  Se  Se169  1  0.24383801  0.09246491  0.45420843  1
  Se  Se170  1  0.24857917  0.08059126  0.94790123  1
  Se  Se171  1  0.24830154  0.42612969  0.45309547  1
  Se  Se172  1  0.25306670  0.40433948  0.93302430  1
  Se  Se173  1  0.25235598  0.75614027  0.44490665  1
  Se  Se174  1  0.25618926  0.73809458  0.94340874  1
  Se  Se175  1  0.58124079  0.06470315  0.43174603  1
  Se  Se176  1  0.58481169  0.08172333  0.94791665  1
  Se  Se177  1  0.59120776  0.40501093  0.44021337  1
  Se  Se178  1  0.57944980  0.42445329  0.95039764  1
  Se  Se179  1  0.59293537  0.74127022  0.43858325  1
  Se  Se180  1  0.58563057  0.74948568  0.93995788  1
  Se  Se181  1  0.91749932  0.07798674  0.44792733  1
  Se  Se182  1  0.92520569  0.07922656  0.93316255  1
  Se  Se183  1  0.90693134  0.42923850  0.45552431  1
  Se  Se184  1  0.93184042  0.42114512  0.93545417  1
  Se  Se185  1  0.91867993  0.75017883  0.45383163  1
  Se  Se186  1  0.91240740  0.75635071  0.94420027  1
  Se  Se187  1  0.24254918  0.25162443  0.31876407  1
  Se  Se188  1  0.24570954  0.23963342  0.80591371  1
  Se  Se189  1  0.24895757  0.59084929  0.30377468  1
  Se  Se190  1  0.23647498  0.57106801  0.80073085  1
  Se  Se191  1  0.26064890  0.93900784  0.30931043  1
  Se  Se192  1  0.24888802  0.91461716  0.80060223  1
  Se  Se193  1  0.58032576  0.24018665  0.30839547  1
  Se  Se194  1  0.57469474  0.24967251  0.81473583  1
  Se  Se195  1  0.58636435  0.58114951  0.30106799  1
  Se  Se196  1  0.57934818  0.58297675  0.80724268  1
  Se  Se197  1  0.58695312  0.91000011  0.29428280  1
  Se  Se198  1  0.58549864  0.92096834  0.80107038  1
  Se  Se199  1  0.91842170  0.24603401  0.31299417  1
  Se  Se200  1  0.92097694  0.25110980  0.79851882  1
  Se  Se201  1  0.91486463  0.57252242  0.31916191  1
  Se  Se202  1  0.90633549  0.58615456  0.79327584  1
  Se  Se203  1  0.91750630  0.90532675  0.30980773  1
  Se  Se204  1  0.91497036  0.92081209  0.80101557  1
  Se  Se205  1  0.09074760  0.09303947  0.31512873  1
  Se  Se206  1  0.08144642  0.07598307  0.79815493  1
  Se  Se207  1  0.08499882  0.41699516  0.31204400  1
  Se  Se208  1  0.08130942  0.40125039  0.78766816  1
  Se  Se209  1  0.09313220  0.76681779  0.30907252  1
  Se  Se210  1  0.07945106  0.74994760  0.80003986  1
  Se  Se211  1  0.41381831  0.08925577  0.30401951  1
  Se  Se212  1  0.41469009  0.08005568  0.80750570  1
  Se  Se213  1  0.42228866  0.43012138  0.31047245  1
  Se  Se214  1  0.41291658  0.41114213  0.80380553  1
  Se  Se215  1  0.41603575  0.75666436  0.29411765  1
  Se  Se216  1  0.41671116  0.74644072  0.80390815  1
  Se  Se217  1  0.75442267  0.07165076  0.30171852  1
  Se  Se218  1  0.75059959  0.09153901  0.79810818  1
  Se  Se219  1  0.76152174  0.41062099  0.32082069  1
  Se  Se220  1  0.75642120  0.42756729  0.80379193  1
  Se  Se221  1  0.75447279  0.74118074  0.30531385  1
  Se  Se222  1  0.75238539  0.75848968  0.80708075  1
  Se  Se223  1  0.24538688  0.10310857  0.19558748  1
  Se  Se224  1  0.25383595  0.07338940  0.69612492  1
  Se  Se225  1  0.24087653  0.42673627  0.19143891  1
  Se  Se226  1  0.26736242  0.38898432  0.69040175  1
  Se  Se227  1  0.24061186  0.75732267  0.20088505  1
  Se  Se228  1  0.24926668  0.75147518  0.69558258  1
  Se  Se229  1  0.58949981  0.08227923  0.19653438  1
  Se  Se230  1  0.58434818  0.08780713  0.70030236  1
  Se  Se231  1  0.57456482  0.41851322  0.18872615  1
  Se  Se232  1  0.57553064  0.41931174  0.69451085  1
  Se  Se233  1  0.58971271  0.73850116  0.19695016  1
  Se  Se234  1  0.57125980  0.76191349  0.68344808  1
  Se  Se235  1  0.91333924  0.08774051  0.18748086  1
  Se  Se236  1  0.92076262  0.07923783  0.69305233  1
  Se  Se237  1  0.92423760  0.40971379  0.20687617  1
  Se  Se238  1  0.91553177  0.41063192  0.68799182  1
  Se  Se239  1  0.92069901  0.75166277  0.19046693  1
  Se  Se240  1  0.91717668  0.75246021  0.69646776  1
  Se  Se241  1  0.07322414  0.25762518  0.20019878  1
  Se  Se242  1  0.08358370  0.24409372  0.69282448  1
  Se  Se243  1  0.08614982  0.57898641  0.19141768  1
  Se  Se244  1  0.09466486  0.58004048  0.69736463  1
  Se  Se245  1  0.09348989  0.91144448  0.19390109  1
  Se  Se246  1  0.07872061  0.91949321  0.69470277  1
  Se  Se247  1  0.41915870  0.24778057  0.19066275  1
  Se  Se248  1  0.41463267  0.24794964  0.70045623  1
  Se  Se249  1  0.40940904  0.58662230  0.19360667  1
  Se  Se250  1  0.41027095  0.58620060  0.70394204  1
  Se  Se251  1  0.41931326  0.92415134  0.20303981  1
  Se  Se252  1  0.41616978  0.91925627  0.70102663  1
  Se  Se253  1  0.76196623  0.24038455  0.19340719  1
  Se  Se254  1  0.76358681  0.25049225  0.68108438  1
  Se  Se255  1  0.75789961  0.57522084  0.20138616  1
  Se  Se256  1  0.75787854  0.57683211  0.68967478  1
  Se  Se257  1  0.75596628  0.91413456  0.19759458  1
  Se  Se258  1  0.74649769  0.92413063  0.69530197  1
