# generated using pymatgen
data_In86Cu29Se144
_symmetry_space_group_name_H-M   'P 1'
_cell_length_a   17.59269851
_cell_length_b   17.57915246
_cell_length_c   23.44214395
_cell_angle_alpha   90.01235552
_cell_angle_beta   89.97775938
_cell_angle_gamma   90.00561476
_symmetry_Int_Tables_number   1
_chemical_formula_structural   In86Cu29Se144
_chemical_formula_sum   'In86 Cu29 Se144'
_cell_volume   7249.82755582
_cell_formula_units_Z   1
loop_
 _symmetry_equiv_pos_site_id
 _symmetry_equiv_pos_as_xyz
  1  'x, y, z'
loop_
 _atom_site_type_symbol
 _atom_site_label
 _atom_site_symmetry_multiplicity
 _atom_site_fract_x
 _atom_site_fract_y
 _atom_site_fract_z
 _atom_site_occupancy
  In  In0  1  -0.01128519  0.17881217  0.12561794  1
  In  In1  1  0.00740978  0.16197769  0.63874917  1
  In  In2  1  0.00138450  0.50921319  0.12564377  1
  In  In3  1  -0.01465874  0.49327305  0.62392247  1
  In  In4  1  -0.00305246  0.82037054  0.12325403  1
  In  In5  1  0.00825146  0.84544408  0.62360009  1
  In  In6  1  0.33928303  0.15678973  0.13053241  1
  In  In7  1  0.34322043  0.16552576  0.62453665  1
  In  In8  1  0.34305692  0.49223768  0.13433388  1
  In  In9  1  0.34508634  0.48767142  0.62948388  1
  In  In10  1  0.33402183  0.83676283  0.12322375  1
  In  In11  1  0.32572950  0.83998890  0.63593680  1
  In  In12  1  0.67975039  0.18612897  0.09546823  1
  In  In13  1  0.66845537  0.18706167  0.62700486  1
  In  In14  1  0.65966314  0.48517255  0.11548998  1
  In  In15  1  0.65932323  0.49390560  0.61649830  1
  In  In16  1  0.66046531  0.85092174  0.11878041  1
  In  In17  1  0.66985213  0.81952157  0.62256739  1
  In  In18  1  0.18097660  0.00898817  0.37841331  1
  In  In19  1  0.15816178  -0.00340001  0.86837041  1
  In  In20  1  0.16179475  0.31654833  0.38257433  1
  In  In21  1  0.16623880  0.31168897  0.85035441  1
  In  In22  1  0.16995006  0.66812675  0.36804769  1
  In  In23  1  0.18504007  0.66633001  0.87460384  1
  In  In24  1  0.49177692  0.01754209  0.37982797  1
  In  In25  1  0.49088392  0.01497521  0.88934615  1
  In  In26  1  0.50175067  0.33438737  0.37326348  1
  In  In27  1  0.49507343  0.33504980  0.87644539  1
  In  In28  1  0.48764052  0.66540300  0.37041251  1
  In  In29  1  0.49259194  0.66107169  0.88358963  1
  In  In30  1  0.81975173  0.00049756  0.38048327  1
  In  In31  1  0.84593248  0.00808844  0.87052806  1
  In  In32  1  0.83750414  0.34977385  0.36992364  1
  In  In33  1  0.82857585  0.33079045  0.87844194  1
  In  In34  1  0.84241163  0.65141215  0.37317121  1
  In  In35  1  0.81783507  0.66499162  0.87904743  1
  In  In36  1  0.00580633  0.19382511  0.38394548  1
  In  In37  1  -0.00637324  0.15973985  0.86736240  1
  In  In38  1  -0.02332504  0.49397265  0.37251897  1
  In  In39  1  0.00287986  0.48411447  0.87021238  1
  In  In40  1  0.00206354  0.81863106  0.37308489  1
  In  In41  1  -0.00228680  0.85226538  0.87523901  1
  In  In42  1  0.33356915  0.17084250  0.37726310  1
  In  In43  1  0.33928805  0.17169278  0.86143861  1
  In  In44  1  0.34375682  0.50449560  0.37280879  1
  In  In45  1  0.33852189  0.49747920  0.87119993  1
  In  In46  1  0.33475720  0.83816858  0.36748591  1
  In  In47  1  0.33346131  0.83132875  0.87888333  1
  In  In48  1  0.65294456  0.16707258  0.37351222  1
  In  In49  1  0.63978450  0.19457918  0.90274360  1
  In  In50  1  0.67909814  0.48463618  0.37493744  1
  In  In51  1  0.67668622  0.47652944  0.90065423  1
  In  In52  1  0.67074841  0.84702320  0.37489312  1
  In  In53  1  0.65940269  0.82276049  0.87948773  1
  In  In54  1  0.18296015  0.00636660  0.12208298  1
  In  In55  1  0.16921491  0.01300240  0.63660884  1
  In  In56  1  0.17226662  0.34555832  0.12671834  1
  In  In57  1  0.17679017  0.31926245  0.63542931  1
  In  In58  1  0.16007098  0.67540692  0.12917619  1
  In  In59  1  0.17315043  0.67701205  0.62659017  1
  In  In60  1  0.49856329  -0.00189693  0.11469364  1
  In  In61  1  0.48301284  0.00832264  0.63148309  1
  In  In62  1  0.49650137  0.32720991  0.11897996  1
  In  In63  1  0.50519090  0.33494307  0.62210011  1
  In  In64  1  0.49042266  0.66067761  0.12315759  1
  In  In65  1  0.50202450  0.65220667  0.62521411  1
  In  In66  1  0.82139904  0.01810771  0.12237332  1
  In  In67  1  0.84873387  0.00278664  0.62447623  1
  In  In68  1  0.81876002  0.32744788  0.11520818  1
  In  In69  1  0.82659306  0.33977733  0.63270502  1
  In  In70  1  0.84606832  0.66025755  0.12891504  1
  In  In71  1  0.83218311  0.65646980  0.61355285  1
  In  In72  1  0.83422503  0.16795979  0.50333401  1
  In  In73  1  0.17480538  0.49996374  -0.00697124  1
  In  In74  1  0.16497074  0.49379767  0.50270858  1
  In  In75  1  0.65869124  0.00992941  0.24467850  1
  In  In76  1  0.00293093  0.33762205  0.25334858  1
  In  In77  1  0.49955051  0.83534412  0.49549611  1
  In  In78  1  0.16694657  0.84041158  0.50547197  1
  In  In79  1  0.66544135  0.66184212  0.24005150  1
  In  In80  1  0.00250402  0.66535285  0.74680194  1
  In  In81  1  0.83448191  0.83267665  0.00501259  1
  In  In82  1  0.66970830  0.00374540  0.76345501  1
  In  In83  1  0.16637746  0.16515321  -0.00952432  1
  In  In84  1  0.65685307  0.65924437  0.75712088  1
  In  In85  1  0.00422243  0.00032282  0.24732914  1
  Cu  Cu86  1  0.33133273  0.33045068  -0.00385993  1
  Cu  Cu87  1  0.17369364  0.49763827  0.74899496  1
  Cu  Cu88  1  0.66638451  0.33536025  0.49829538  1
  Cu  Cu89  1  0.17476362  0.50170736  0.25218498  1
  Cu  Cu90  1  0.83942610  0.84078353  0.74471952  1
  Cu  Cu91  1  0.66485542  -0.00428458  0.50129730  1
  Cu  Cu92  1  0.50557165  0.17134159  0.75228425  1
  Cu  Cu93  1  0.50372293  0.49438807  0.24663374  1
  Cu  Cu94  1  0.48856799  0.83276028  0.75685935  1
  Cu  Cu95  1  0.82475387  0.49626120  0.75463260  1
  Cu  Cu96  1  0.34219367  0.33197226  0.50357548  1
  Cu  Cu97  1  0.49904319  0.49211542  0.75221685  1
  Cu  Cu98  1  -0.00018381  -0.00034310  0.50440132  1
  Cu  Cu99  1  0.33868243  0.66705235  0.50009310  1
  Cu  Cu100  1  -0.01029376  0.33460237  -0.00355905  1
  Cu  Cu101  1  0.17284026  0.83190171  0.75260137  1
  Cu  Cu102  1  0.49617951  0.17360217  0.24786845  1
  Cu  Cu103  1  0.65950468  0.66263174  0.00484278  1
  Cu  Cu104  1  0.33507940  -0.00485238  -0.00034476  1
  Cu  Cu105  1  0.17442509  0.16658007  0.25497292  1
  Cu  Cu106  1  0.17362689  0.83357232  0.24875594  1
  Cu  Cu107  1  0.67347184  0.66369940  0.49579862  1
  Cu  Cu108  1  0.00382396  0.66672880  0.00263710  1
  Cu  Cu109  1  0.82960115  0.17538226  0.75127322  1
  Cu  Cu110  1  -0.00855105  0.65929629  0.49299582  1
  Cu  Cu111  1  0.00230765  0.00466420  -0.00427168  1
  Cu  Cu112  1  0.49057133  0.84016931  0.24551670  1
  Cu  Cu113  1  0.83598938  0.82739366  0.25129399  1
  Cu  Cu114  1  0.33213990  0.66934368  0.00335306  1
  Se  Se115  1  0.07713412  0.08463479  0.06114376  1
  Se  Se116  1  0.07896781  0.07916506  0.56287589  1
  Se  Se117  1  0.07770286  0.41215358  0.05296690  1
  Se  Se118  1  0.08292581  0.40658498  0.56768377  1
  Se  Se119  1  0.08669464  0.75318011  0.05115807  1
  Se  Se120  1  0.07257127  0.73849003  0.55439619  1
  Se  Se121  1  0.41264378  0.08686868  0.05036016  1
  Se  Se122  1  0.42555205  0.08795377  0.55215662  1
  Se  Se123  1  0.40778267  0.41433793  0.05400087  1
  Se  Se124  1  0.42503738  0.42120899  0.55142910  1
  Se  Se125  1  0.41783180  0.75232916  0.05512573  1
  Se  Se126  1  0.41175943  0.75041339  0.56348972  1
  Se  Se127  1  0.73435746  0.06660621  0.04365772  1
  Se  Se128  1  0.74205627  0.07764109  0.56429347  1
  Se  Se129  1  0.75354972  0.42066955  0.04531430  1
  Se  Se130  1  0.75271709  0.41454753  0.55353396  1
  Se  Se131  1  0.74285405  0.74166888  0.06567718  1
  Se  Se132  1  0.75366142  0.74885291  0.54946545  1
  Se  Se133  1  0.25036314  0.25265442  0.05824961  1
  Se  Se134  1  0.25763001  0.25149731  0.55749153  1
  Se  Se135  1  0.25353085  0.58507521  0.06414224  1
  Se  Se136  1  0.25694518  0.58793555  0.56024040  1
  Se  Se137  1  0.24777774  0.91497720  0.05128354  1
  Se  Se138  1  0.25718534  0.93052567  0.56211913  1
  Se  Se139  1  0.57061784  0.25019539  0.04182792  1
  Se  Se140  1  0.58442166  0.24974123  0.55025868  1
  Se  Se141  1  0.57518380  0.57886113  0.05619680  1
  Se  Se142  1  0.58506170  0.58602533  0.54915532  1
  Se  Se143  1  0.58164722  0.91894494  0.04387877  1
  Se  Se144  1  0.58483641  0.91920351  0.56491591  1
  Se  Se145  1  0.91140998  0.24684357  0.04868401  1
  Se  Se146  1  0.91842503  0.25042337  0.57025899  1
  Se  Se147  1  0.91883833  0.58248449  0.05124246  1
  Se  Se148  1  0.91362947  0.57137737  0.54651570  1
  Se  Se149  1  0.92360044  0.92933450  0.06314579  1
  Se  Se150  1  0.91626052  0.91201493  0.55234222  1
  Se  Se151  1  0.09171350  0.24558150  0.46295445  1
  Se  Se152  1  0.07659828  0.26057253  0.93592599  1
  Se  Se153  1  0.08050738  0.58403105  0.43669440  1
  Se  Se154  1  0.07837142  0.58915767  0.93517918  1
  Se  Se155  1  0.07676503  0.92266460  0.43791667  1
  Se  Se156  1  0.08659042  0.91860116  0.94794291  1
  Se  Se157  1  0.42266249  0.25075565  0.44446261  1
  Se  Se158  1  0.41035132  0.24437630  0.94132455  1
  Se  Se159  1  0.42127904  0.58351893  0.44815107  1
  Se  Se160  1  0.40624272  0.57745100  0.94998805  1
  Se  Se161  1  0.40334848  0.92665600  0.44433059  1
  Se  Se162  1  0.41969134  0.91122284  0.94797080  1
  Se  Se163  1  0.74706363  0.25410328  0.43799730  1
  Se  Se164  1  0.75225626  0.25531530  0.95497405  1
  Se  Se165  1  0.75362768  0.57717256  0.44233186  1
  Se  Se166  1  0.75041318  0.58424331  0.95469531  1
  Se  Se167  1  0.75203187  0.91256133  0.45338625  1
  Se  Se168  1  0.75550091  0.91407118  0.93347073  1
  Se  Se169  1  0.24412681  0.09907612  0.44864554  1
  Se  Se170  1  0.25944544  0.07571584  0.93498827  1
  Se  Se171  1  0.26043266  0.41056552  0.44151262  1
  Se  Se172  1  0.24632011  0.39734804  0.93042176  1
  Se  Se173  1  0.25609610  0.74840898  0.44348962  1
  Se  Se174  1  0.24784391  0.75161917  0.95056873  1
  Se  Se175  1  0.58551101  0.08313930  0.44964317  1
  Se  Se176  1  0.60506401  0.06463544  0.94676787  1
  Se  Se177  1  0.58383465  0.41858168  0.44355440  1
  Se  Se178  1  0.55958096  0.42408873  0.95103399  1
  Se  Se179  1  0.59128290  0.74339272  0.43582922  1
  Se  Se180  1  0.57838191  0.74533678  0.95030189  1
  Se  Se181  1  0.92493973  0.07985292  0.43943332  1
  Se  Se182  1  0.91721045  0.08886112  0.94699865  1
  Se  Se183  1  0.93567700  0.39254855  0.44495324  1
  Se  Se184  1  0.91308715  0.42322874  0.94344214  1
  Se  Se185  1  0.91158787  0.74800681  0.44194649  1
  Se  Se186  1  0.92343327  0.74509429  0.93846529  1
  Se  Se187  1  0.25109802  0.25593258  0.30746594  1
  Se  Se188  1  0.24428784  0.22295515  0.78516453  1
  Se  Se189  1  0.25830756  0.58625463  0.30462120  1
  Se  Se190  1  0.25511479  0.58143221  0.80221429  1
  Se  Se191  1  0.24799518  0.92222909  0.30377128  1
  Se  Se192  1  0.25335807  0.91519539  0.80800394  1
  Se  Se193  1  0.58378175  0.25278489  0.30075138  1
  Se  Se194  1  0.58501664  0.25263971  0.81039180  1
  Se  Se195  1  0.58041828  0.57744460  0.30816204  1
  Se  Se196  1  0.57766729  0.56560077  0.81893176  1
  Se  Se197  1  0.57096710  0.91717648  0.30846701  1
  Se  Se198  1  0.57326493  0.91032108  0.81425429  1
  Se  Se199  1  0.91004307  0.24231570  0.30657275  1
  Se  Se200  1  0.91504103  0.25636171  0.80642656  1
  Se  Se201  1  0.92045673  0.58224856  0.29652648  1
  Se  Se202  1  0.90667226  0.58198197  0.80953713  1
  Se  Se203  1  0.91018180  0.91458988  0.31078416  1
  Se  Se204  1  0.92162424  0.92386689  0.79751499  1
  Se  Se205  1  0.08366101  0.09457284  0.31309245  1
  Se  Se206  1  0.08749943  0.08908465  0.80231355  1
  Se  Se207  1  0.09459310  0.42439179  0.31565433  1
  Se  Se208  1  0.08608726  0.41417391  0.79681896  1
  Se  Se209  1  0.08688887  0.75030432  0.29934782  1
  Se  Se210  1  0.08631340  0.75505757  0.81170039  1
  Se  Se211  1  0.41480935  0.08922840  0.30344009  1
  Se  Se212  1  0.42722191  0.08004779  0.80261491  1
  Se  Se213  1  0.41798019  0.41577937  0.30334022  1
  Se  Se214  1  0.41112582  0.40804102  0.80114346  1
  Se  Se215  1  0.41392054  0.75192783  0.29986271  1
  Se  Se216  1  0.41433772  0.74261707  0.81087305  1
  Se  Se217  1  0.75413264  0.09187711  0.30746677  1
  Se  Se218  1  0.75149450  0.10281479  0.81877441  1
  Se  Se219  1  0.75199324  0.41478343  0.29619959  1
  Se  Se220  1  0.74257138  0.41760772  0.81218039  1
  Se  Se221  1  0.74871545  0.75242705  0.30836197  1
  Se  Se222  1  0.75639690  0.75992740  0.80230776  1
  Se  Se223  1  0.25284799  0.07997134  0.20133924  1
  Se  Se224  1  0.25495865  0.09706239  0.70016521  1
  Se  Se225  1  0.25461942  0.41258209  0.20206340  1
  Se  Se226  1  0.25776455  0.41250230  0.69798210  1
  Se  Se227  1  0.25493037  0.75028773  0.19349032  1
  Se  Se228  1  0.25490742  0.74424571  0.70267298  1
  Se  Se229  1  0.57394763  0.09723577  0.18234967  1
  Se  Se230  1  0.58615130  0.08911496  0.69298089  1
  Se  Se231  1  0.58025740  0.40963566  0.18983875  1
  Se  Se232  1  0.58659568  0.41817810  0.69402914  1
  Se  Se233  1  0.57674085  0.76319052  0.18840782  1
  Se  Se234  1  0.57137372  0.75623082  0.69564364  1
  Se  Se235  1  0.90731787  0.09305830  0.19695406  1
  Se  Se236  1  0.91079112  0.08495517  0.70246385  1
  Se  Se237  1  0.91544154  0.41278860  0.18301669  1
  Se  Se238  1  0.91422641  0.41831350  0.70264255  1
  Se  Se239  1  0.92169154  0.74598820  0.20018533  1
  Se  Se240  1  0.91067562  0.75254400  0.68493664  1
  Se  Se241  1  0.09435882  0.24375744  0.19175912  1
  Se  Se242  1  0.07616525  0.25883954  0.70247018  1
  Se  Se243  1  0.08909271  0.58020489  0.19655880  1
  Se  Se244  1  0.09199774  0.57422889  0.68626757  1
  Se  Se245  1  0.09237464  0.91055294  0.18590166  1
  Se  Se246  1  0.08994253  0.91486295  0.69774374  1
  Se  Se247  1  0.41035749  0.25487847  0.19385743  1
  Se  Se248  1  0.42600519  0.25178291  0.69278330  1
  Se  Se249  1  0.41837260  0.58439785  0.20126134  1
  Se  Se250  1  0.41916049  0.58030584  0.69838569  1
  Se  Se251  1  0.41457133  0.92669415  0.19001207  1
  Se  Se252  1  0.41215486  0.92062746  0.70273809  1
  Se  Se253  1  0.74677420  0.23774798  0.18411673  1
  Se  Se254  1  0.74323797  0.26018963  0.70383042  1
  Se  Se255  1  0.75444959  0.56825773  0.18601943  1
  Se  Se256  1  0.75120784  0.57912442  0.69192754  1
  Se  Se257  1  0.75806212  0.91291869  0.19333384  1
  Se  Se258  1  0.74963078  0.91603046  0.68944409  1
