# generated using pymatgen
data_In86Cu29Se144
_symmetry_space_group_name_H-M   'P 1'
_cell_length_a   17.58099224
_cell_length_b   17.57669454
_cell_length_c   23.43752322
_cell_angle_alpha   89.98929845
_cell_angle_beta   90.00148936
_cell_angle_gamma   89.97408365
_symmetry_Int_Tables_number   1
_chemical_formula_structural   In86Cu29Se144
_chemical_formula_sum   'In86 Cu29 Se144'
_cell_volume   7242.56248286
_cell_formula_units_Z   1
loop_
 _symmetry_equiv_pos_site_id
 _symmetry_equiv_pos_as_xyz
  1  'x, y, z'
loop_
 _atom_site_type_symbol
 _atom_site_label
 _atom_site_symmetry_multiplicity
 _atom_site_fract_x
 _atom_site_fract_y
 _atom_site_fract_z
 _atom_site_occupancy
  In  In0  1  -0.00763675  0.17993112  0.12347502  1
  In  In1  1  -0.01155405  0.16419374  0.62419577  1
  In  In2  1  0.00692215  0.51247024  0.11584743  1
  In  In3  1  0.00266389  0.50845906  0.62059753  1
  In  In4  1  -0.00119949  0.81888315  0.12412618  1
  In  In5  1  0.00826378  0.83182057  0.64002009  1
  In  In6  1  0.32535176  0.16269266  0.13156598  1
  In  In7  1  0.33892850  0.16653868  0.62630303  1
  In  In8  1  0.34817892  0.51111259  0.11135585  1
  In  In9  1  0.33451487  0.49674524  0.62238226  1
  In  In10  1  0.33167330  0.83126675  0.12420828  1
  In  In11  1  0.33773473  0.82658415  0.62785550  1
  In  In12  1  0.68211235  0.17394329  0.12709183  1
  In  In13  1  0.67465394  0.18056699  0.61851528  1
  In  In14  1  0.66755390  0.50112546  0.12865292  1
  In  In15  1  0.65621365  0.48709374  0.61965120  1
  In  In16  1  0.64696650  0.82972087  0.12288677  1
  In  In17  1  0.65717162  0.83968382  0.62086860  1
  In  In18  1  0.16358729  -0.01365376  0.37542737  1
  In  In19  1  0.16847000  -0.00883456  0.86478470  1
  In  In20  1  0.18477733  0.34548613  0.38210791  1
  In  In21  1  0.18296306  0.33687217  0.87554867  1
  In  In22  1  0.16234234  0.65571688  0.36799385  1
  In  In23  1  0.16234911  0.67097027  0.87947305  1
  In  In24  1  0.49431740  0.00864137  0.38052866  1
  In  In25  1  0.48579918  -0.00296782  0.87215435  1
  In  In26  1  0.50380295  0.32279352  0.38356251  1
  In  In27  1  0.50007023  0.34264077  0.86440696  1
  In  In28  1  0.49925718  0.66478393  0.37530050  1
  In  In29  1  0.50320144  0.66080261  0.88490431  1
  In  In30  1  0.83033160  0.01674665  0.38179942  1
  In  In31  1  0.84811806  -0.00169383  0.87838772  1
  In  In32  1  0.82476680  0.33840555  0.37872389  1
  In  In33  1  0.81758708  0.35196814  0.87800624  1
  In  In34  1  0.82225589  0.65268570  0.36263314  1
  In  In35  1  0.84027531  0.64364193  0.87766823  1
  In  In36  1  -0.01883300  0.16658708  0.38640386  1
  In  In37  1  -0.00015471  0.15518121  0.87358196  1
  In  In38  1  -0.00541846  0.50138393  0.37941370  1
  In  In39  1  -0.00860608  0.51173584  0.87635059  1
  In  In40  1  0.00941453  0.82736078  0.37272508  1
  In  In41  1  0.01900262  0.83960715  0.86213444  1
  In  In42  1  0.34934603  0.16922989  0.37446598  1
  In  In43  1  0.33672143  0.16577754  0.86220814  1
  In  In44  1  0.32566353  0.50480578  0.38388578  1
  In  In45  1  0.34355228  0.48296895  0.89348094  1
  In  In46  1  0.34130198  0.83673913  0.36929710  1
  In  In47  1  0.32766969  0.83617098  0.88206579  1
  In  In48  1  0.66270312  0.17410130  0.37758620  1
  In  In49  1  0.66625430  0.18794612  0.87269623  1
  In  In50  1  0.66613571  0.49699389  0.37392103  1
  In  In51  1  0.67038321  0.48872077  0.87478127  1
  In  In52  1  0.66774672  0.81635557  0.37391043  1
  In  In53  1  0.66022053  0.81800520  0.88052028  1
  In  In54  1  0.18365649  0.00161357  0.12539764  1
  In  In55  1  0.16392415  0.00373061  0.63748381  1
  In  In56  1  0.16422470  0.33864751  0.11768631  1
  In  In57  1  0.16946152  0.35167452  0.62543745  1
  In  In58  1  0.16689879  0.66902099  0.12283710  1
  In  In59  1  0.17185303  0.66278596  0.63068709  1
  In  In60  1  0.49534098  -0.01400673  0.12404141  1
  In  In61  1  0.48725885  -0.00458716  0.61624754  1
  In  In62  1  0.50085420  0.36151605  0.12306822  1
  In  In63  1  0.50518912  0.33945220  0.62599121  1
  In  In64  1  0.49620707  0.66317083  0.12865175  1
  In  In65  1  0.49399277  0.66178018  0.61494537  1
  In  In66  1  0.82957754  0.01188143  0.12251397  1
  In  In67  1  0.83603508  0.00902778  0.62517968  1
  In  In68  1  0.82233896  0.33149885  0.12131092  1
  In  In69  1  0.82456903  0.33116832  0.62132439  1
  In  In70  1  0.84603924  0.65768873  0.13363626  1
  In  In71  1  0.84591716  0.66303944  0.62524285  1
  In  In72  1  0.16748201  0.83208631  0.49966910  1
  In  In73  1  0.00016581  0.33328776  0.74653437  1
  In  In74  1  0.33020939  0.66371768  0.74861147  1
  In  In75  1  0.16463876  0.17170934  0.50809351  1
  In  In76  1  0.66217568  -0.00704236  0.24903118  1
  In  In77  1  0.82980512  0.83085137  0.50184204  1
  In  In78  1  0.83189557  0.82672422  0.00015349  1
  In  In79  1  0.50327181  0.16943578  -0.00684408  1
  In  In80  1  -0.00280323  0.33671900  0.25666774  1
  In  In81  1  0.16309851  0.16892622  -0.00005172  1
  In  In82  1  0.66815166  0.00534209  0.74461437  1
  In  In83  1  0.67091156  0.65783516  0.75453913  1
  In  In84  1  0.34021573  0.33627408  0.24916798  1
  In  In85  1  -0.00172990  -0.00549821  0.25138986  1
  Cu  Cu86  1  -0.00234377  0.33573308  0.50601972  1
  Cu  Cu87  1  0.83217964  0.83039692  0.24961712  1
  Cu  Cu88  1  0.66516949  0.00438911  0.00452052  1
  Cu  Cu89  1  0.66623571  0.33954877  0.00054078  1
  Cu  Cu90  1  0.16486884  0.15924804  0.25248843  1
  Cu  Cu91  1  0.16901311  0.50385228  0.75084490  1
  Cu  Cu92  1  0.33121040  0.66790168  0.00263673  1
  Cu  Cu93  1  0.17230567  0.50757961  0.24462939  1
  Cu  Cu94  1  0.65799715  0.00453061  0.50213672  1
  Cu  Cu95  1  0.17270489  0.16701525  0.74955154  1
  Cu  Cu96  1  0.49798229  0.83028340  0.74912214  1
  Cu  Cu97  1  0.00384020  -0.00167285  -0.00607359  1
  Cu  Cu98  1  0.66446417  0.65861205  0.49314957  1
  Cu  Cu99  1  0.33692708  0.66695391  0.50145271  1
  Cu  Cu100  1  0.33217524  -0.00414853  -0.00280706  1
  Cu  Cu101  1  -0.00844400  0.33873774  -0.00156187  1
  Cu  Cu102  1  0.00187019  0.66796570  -0.00173349  1
  Cu  Cu103  1  0.84282499  0.83015932  0.75218005  1
  Cu  Cu104  1  0.17369501  0.82739326  0.24987181  1
  Cu  Cu105  1  0.83827507  0.16656121  0.74864369  1
  Cu  Cu106  1  0.50406699  0.16647770  0.25388040  1
  Cu  Cu107  1  0.66716408  0.33318072  0.49893980  1
  Cu  Cu108  1  0.65973175  0.66012736  0.00489345  1
  Cu  Cu109  1  0.50160653  0.17220097  0.74459909  1
  Cu  Cu110  1  -0.00209571  0.66341817  0.49620586  1
  Cu  Cu111  1  0.83651423  0.49852993  0.25039591  1
  Cu  Cu112  1  0.33117277  0.00477288  0.49880145  1
  Cu  Cu113  1  0.49226514  0.82606331  0.24822695  1
  Cu  Cu114  1  0.50457439  0.50403374  0.25236183  1
  Se  Se115  1  0.07562920  0.07704712  0.06326890  1
  Se  Se116  1  0.07672563  0.07281683  0.55986261  1
  Se  Se117  1  0.08038601  0.41787901  0.04990860  1
  Se  Se118  1  0.08346494  0.42165912  0.55284002  1
  Se  Se119  1  0.08488707  0.75251003  0.05075418  1
  Se  Se120  1  0.07566632  0.74241229  0.55872378  1
  Se  Se121  1  0.41048848  0.08074795  0.05636512  1
  Se  Se122  1  0.41544589  0.08989680  0.54935927  1
  Se  Se123  1  0.40714916  0.40632349  0.04767706  1
  Se  Se124  1  0.43392451  0.43301847  0.55787417  1
  Se  Se125  1  0.41726147  0.74832603  0.05763289  1
  Se  Se126  1  0.41762527  0.75661439  0.55088832  1
  Se  Se127  1  0.75036210  0.09036937  0.05031891  1
  Se  Se128  1  0.74735242  0.08067532  0.55569302  1
  Se  Se129  1  0.74959176  0.42356216  0.05419713  1
  Se  Se130  1  0.75123565  0.41855003  0.54998879  1
  Se  Se131  1  0.74392035  0.74018307  0.06401290  1
  Se  Se132  1  0.73889203  0.73811076  0.56038130  1
  Se  Se133  1  0.26151673  0.25404115  0.05660505  1
  Se  Se134  1  0.25751553  0.26312473  0.56049244  1
  Se  Se135  1  0.24515985  0.58313093  0.05273470  1
  Se  Se136  1  0.25200560  0.58829039  0.55767388  1
  Se  Se137  1  0.24887814  0.91422690  0.05213712  1
  Se  Se138  1  0.25348332  0.92493587  0.56113024  1
  Se  Se139  1  0.58702327  0.25690131  0.06077100  1
  Se  Se140  1  0.58101641  0.25217249  0.55258933  1
  Se  Se141  1  0.57759285  0.57736617  0.05983684  1
  Se  Se142  1  0.58199789  0.57929296  0.55120780  1
  Se  Se143  1  0.57951736  0.91708794  0.04910015  1
  Se  Se144  1  0.57575290  0.91476873  0.54912916  1
  Se  Se145  1  0.91062635  0.25286627  0.05118989  1
  Se  Se146  1  0.91347250  0.24942290  0.55430471  1
  Se  Se147  1  0.91245815  0.58769546  0.04986442  1
  Se  Se148  1  0.91319837  0.58070991  0.54829567  1
  Se  Se149  1  0.92200254  0.92289715  0.05896203  1
  Se  Se150  1  0.92212073  0.91181622  0.56526656  1
  Se  Se151  1  0.07828028  0.26076893  0.44022969  1
  Se  Se152  1  0.07374919  0.25897870  0.93781237  1
  Se  Se153  1  0.08549787  0.58147059  0.44469117  1
  Se  Se154  1  0.08317381  0.58124216  0.94636274  1
  Se  Se155  1  0.06742321  0.92325836  0.44824853  1
  Se  Se156  1  0.08819128  0.91792652  0.94125587  1
  Se  Se157  1  0.40629992  0.25608363  0.44951903  1
  Se  Se158  1  0.41069612  0.25448347  0.93497001  1
  Se  Se159  1  0.41937944  0.58346919  0.44728308  1
  Se  Se160  1  0.41784327  0.58251879  0.95367791  1
  Se  Se161  1  0.41213673  0.91882900  0.44492341  1
  Se  Se162  1  0.42112872  0.91312664  0.94867340  1
  Se  Se163  1  0.75229434  0.24676154  0.44794131  1
  Se  Se164  1  0.75048432  0.25507473  0.94764244  1
  Se  Se165  1  0.75356596  0.57895980  0.44301700  1
  Se  Se166  1  0.74072251  0.58255207  0.94490972  1
  Se  Se167  1  0.73776703  0.92247862  0.44076975  1
  Se  Se168  1  0.74246814  0.92172213  0.94072009  1
  Se  Se169  1  0.24776644  0.08134559  0.43883385  1
  Se  Se170  1  0.25541753  0.08217816  0.93870725  1
  Se  Se171  1  0.25304411  0.42206288  0.45799237  1
  Se  Se172  1  0.23852759  0.41975873  0.95491903  1
  Se  Se173  1  0.25473116  0.74312286  0.43806987  1
  Se  Se174  1  0.24747746  0.75068311  0.94886860  1
  Se  Se175  1  0.58008338  0.09050021  0.44616456  1
  Se  Se176  1  0.59188829  0.07668280  0.93268135  1
  Se  Se177  1  0.58427555  0.41655101  0.44493857  1
  Se  Se178  1  0.57938686  0.41352423  0.94284916  1
  Se  Se179  1  0.58138824  0.74872812  0.44688306  1
  Se  Se180  1  0.57827855  0.74946069  0.95547473  1
  Se  Se181  1  0.91809122  0.07520506  0.45682095  1
  Se  Se182  1  0.91696962  0.08671692  0.95075711  1
  Se  Se183  1  0.91548277  0.41465559  0.44606186  1
  Se  Se184  1  0.91118596  0.42448346  0.94447722  1
  Se  Se185  1  0.91632840  0.74237879  0.43599876  1
  Se  Se186  1  0.92339523  0.74794696  0.93501103  1
  Se  Se187  1  0.24515649  0.24567096  0.30857457  1
  Se  Se188  1  0.25287783  0.25529908  0.79965866  1
  Se  Se189  1  0.25799638  0.58214182  0.30328862  1
  Se  Se190  1  0.24969417  0.57636892  0.81639987  1
  Se  Se191  1  0.24967051  0.91644080  0.30370089  1
  Se  Se192  1  0.27252286  0.92578009  0.80534261  1
  Se  Se193  1  0.58316255  0.25365929  0.30485565  1
  Se  Se194  1  0.58336960  0.25552265  0.79810379  1
  Se  Se195  1  0.58760412  0.58676478  0.30629322  1
  Se  Se196  1  0.57263935  0.57364257  0.80966380  1
  Se  Se197  1  0.57260594  0.90598123  0.31116816  1
  Se  Se198  1  0.58368850  0.90882535  0.80706116  1
  Se  Se199  1  0.90558724  0.24223089  0.30833586  1
  Se  Se200  1  0.91139088  0.24922262  0.81257253  1
  Se  Se201  1  0.92423331  0.58083702  0.30177837  1
  Se  Se202  1  0.91126113  0.57588809  0.79740457  1
  Se  Se203  1  0.90366855  0.91094453  0.31462504  1
  Se  Se204  1  0.92058813  0.92008158  0.80342987  1
  Se  Se205  1  0.08085948  0.08975163  0.31550530  1
  Se  Se206  1  0.08750060  0.08518666  0.80275762  1
  Se  Se207  1  0.09796607  0.42466638  0.30804333  1
  Se  Se208  1  0.08828032  0.42102151  0.81043452  1
  Se  Se209  1  0.08484601  0.74672792  0.30069555  1
  Se  Se210  1  0.07925233  0.73434238  0.80155221  1
  Se  Se211  1  0.41819337  0.08149307  0.30150646  1
  Se  Se212  1  0.42257834  0.08281308  0.79613734  1
  Se  Se213  1  0.42400967  0.42364309  0.31401571  1
  Se  Se214  1  0.40152863  0.41930291  0.80527756  1
  Se  Se215  1  0.41219697  0.74153331  0.30345707  1
  Se  Se216  1  0.42333749  0.74978810  0.81219177  1
  Se  Se217  1  0.74965303  0.08856418  0.30451669  1
  Se  Se218  1  0.75634818  0.08858385  0.81164540  1
  Se  Se219  1  0.75123934  0.41668878  0.30284302  1
  Se  Se220  1  0.74415823  0.41545565  0.79631493  1
  Se  Se221  1  0.74532025  0.74541214  0.29717786  1
  Se  Se222  1  0.76114327  0.75372295  0.81272620  1
  Se  Se223  1  0.25382671  0.07790214  0.20443662  1
  Se  Se224  1  0.25804617  0.08437752  0.69703451  1
  Se  Se225  1  0.24972794  0.42299565  0.18627832  1
  Se  Se226  1  0.25418725  0.42186472  0.69891497  1
  Se  Se227  1  0.25368365  0.74450496  0.19387127  1
  Se  Se228  1  0.23870028  0.76350631  0.69870638  1
  Se  Se229  1  0.57761025  0.08717219  0.18604881  1
  Se  Se230  1  0.57719366  0.08894274  0.68243601  1
  Se  Se231  1  0.58714741  0.41743714  0.20104348  1
  Se  Se232  1  0.59521564  0.40767619  0.69925796  1
  Se  Se233  1  0.58149721  0.74574795  0.19842185  1
  Se  Se234  1  0.57915790  0.74928284  0.69149078  1
  Se  Se235  1  0.91117545  0.09263263  0.19584565  1
  Se  Se236  1  0.92054029  0.07919319  0.70015073  1
  Se  Se237  1  0.91794217  0.42310273  0.18672071  1
  Se  Se238  1  0.91226693  0.42166237  0.68659665  1
  Se  Se239  1  0.92201414  0.74858735  0.20154510  1
  Se  Se240  1  0.92072448  0.74240443  0.69939614  1
  Se  Se241  1  0.09261279  0.24632479  0.19395496  1
  Se  Se242  1  0.09223127  0.24334653  0.68599430  1
  Se  Se243  1  0.08277203  0.58610013  0.19310345  1
  Se  Se244  1  0.08372260  0.58258400  0.69639733  1
  Se  Se245  1  0.09164372  0.90958587  0.18958502  1
  Se  Se246  1  0.08667118  0.91856170  0.70510272  1
  Se  Se247  1  0.42975758  0.24628402  0.18656473  1
  Se  Se248  1  0.41673541  0.25588833  0.69310429  1
  Se  Se249  1  0.41387889  0.57734823  0.19713665  1
  Se  Se250  1  0.42749897  0.57820142  0.69354073  1
  Se  Se251  1  0.41184783  0.91510394  0.19706899  1
  Se  Se252  1  0.41858690  0.91453945  0.69421985  1
  Se  Se253  1  0.75308232  0.25540072  0.19988656  1
  Se  Se254  1  0.75268981  0.24866187  0.69734334  1
  Se  Se255  1  0.75174708  0.58336480  0.19802226  1
  Se  Se256  1  0.75204797  0.57603071  0.68473893  1
  Se  Se257  1  0.75570698  0.90717004  0.18534560  1
  Se  Se258  1  0.75847812  0.90521159  0.69136801  1
