# generated using pymatgen
data_In86Cu29Se144
_symmetry_space_group_name_H-M   'P 1'
_cell_length_a   17.57841161
_cell_length_b   17.58148630
_cell_length_c   23.44251114
_cell_angle_alpha   90.02093277
_cell_angle_beta   89.99852802
_cell_angle_gamma   89.99066216
_symmetry_Int_Tables_number   1
_chemical_formula_structural   In86Cu29Se144
_chemical_formula_sum   'In86 Cu29 Se144'
_cell_volume   7245.01538899
_cell_formula_units_Z   1
loop_
 _symmetry_equiv_pos_site_id
 _symmetry_equiv_pos_as_xyz
  1  'x, y, z'
loop_
 _atom_site_type_symbol
 _atom_site_label
 _atom_site_symmetry_multiplicity
 _atom_site_fract_x
 _atom_site_fract_y
 _atom_site_fract_z
 _atom_site_occupancy
  In  In0  1  0.01455603  0.15312269  0.13918972  1
  In  In1  1  0.02152773  0.16848668  0.62380355  1
  In  In2  1  -0.00303744  0.50438494  0.12792455  1
  In  In3  1  -0.01184937  0.49340124  0.62219934  1
  In  In4  1  0.01752507  0.82375154  0.12997883  1
  In  In5  1  0.01315651  0.83016580  0.62203020  1
  In  In6  1  0.33667264  0.16755108  0.12302243  1
  In  In7  1  0.34876557  0.18566798  0.60850886  1
  In  In8  1  0.32976349  0.50115113  0.13662589  1
  In  In9  1  0.34993936  0.47961842  0.63458117  1
  In  In10  1  0.32783424  0.83287145  0.12054659  1
  In  In11  1  0.32267726  0.83915780  0.63256568  1
  In  In12  1  0.66206581  0.17114985  0.12297818  1
  In  In13  1  0.62971214  0.19826040  0.65584182  1
  In  In14  1  0.66677944  0.48245306  0.11915387  1
  In  In15  1  0.64703275  0.51232260  0.63066748  1
  In  In16  1  0.65787609  0.84819091  0.11886910  1
  In  In17  1  0.66089106  0.82749426  0.63874951  1
  In  In18  1  0.17292305  0.00232378  0.37159393  1
  In  In19  1  0.18760508  -0.00795942  0.90321529  1
  In  In20  1  0.16849294  0.33089369  0.37316079  1
  In  In21  1  0.16003651  0.33230042  0.86833741  1
  In  In22  1  0.17609412  0.67395932  0.37105006  1
  In  In23  1  0.18530001  0.67276417  0.86599541  1
  In  In24  1  0.49688875  0.01849830  0.37596258  1
  In  In25  1  0.49380185  -0.00168323  0.88204182  1
  In  In26  1  0.49858933  0.32895934  0.37107355  1
  In  In27  1  0.48800417  0.31902986  0.86068890  1
  In  In28  1  0.48528989  0.67506735  0.37874356  1
  In  In29  1  0.49244665  0.67198467  0.86362793  1
  In  In30  1  0.83846313  -0.01128749  0.37217252  1
  In  In31  1  0.82993901  0.01003818  0.87803996  1
  In  In32  1  0.83178580  0.33887679  0.36809938  1
  In  In33  1  0.83656803  0.33391529  0.87378123  1
  In  In34  1  0.83832346  0.65504084  0.37539574  1
  In  In35  1  0.81580373  0.66749889  0.87834434  1
  In  In36  1  0.00981287  0.17821981  0.36505230  1
  In  In37  1  0.00717364  0.17438615  0.87768473  1
  In  In38  1  -0.00107397  0.50052722  0.36590791  1
  In  In39  1  0.00275532  0.48033246  0.87786320  1
  In  In40  1  0.01842794  0.84571915  0.36377311  1
  In  In41  1  0.00972207  0.84024697  0.88037232  1
  In  In42  1  0.33763978  0.16747461  0.37079738  1
  In  In43  1  0.32936041  0.16900882  0.88669145  1
  In  In44  1  0.33636944  0.49896793  0.37439289  1
  In  In45  1  0.32689462  0.50607976  0.85809729  1
  In  In46  1  0.32307462  0.82518002  0.36726229  1
  In  In47  1  0.33525636  0.83141183  0.87918746  1
  In  In48  1  0.64446739  0.17483633  0.37931888  1
  In  In49  1  0.64596385  0.14664125  0.85243335  1
  In  In50  1  0.66822752  0.48892232  0.37923349  1
  In  In51  1  0.66824147  0.50494360  0.87080889  1
  In  In52  1  0.66120286  0.83945255  0.37798800  1
  In  In53  1  0.63762866  0.81768593  0.85167430  1
  In  In54  1  0.17625424  -0.00107299  0.12245207  1
  In  In55  1  0.17337744  0.00514981  0.61712504  1
  In  In56  1  0.17791444  0.32173750  0.13544339  1
  In  In57  1  0.18832177  0.31292773  0.64400978  1
  In  In58  1  0.16612663  0.66779943  0.12841891  1
  In  In59  1  0.17449127  0.67894817  0.62645480  1
  In  In60  1  0.47387360  -0.01516667  0.09946764  1
  In  In61  1  0.48894174  0.01540223  0.63506341  1
  In  In62  1  0.50417231  0.32760460  0.13088486  1
  In  In63  1  0.48937867  0.33856688  0.62382870  1
  In  In64  1  0.48370930  0.66726576  0.12561000  1
  In  In65  1  0.50906446  0.65581059  0.63262199  1
  In  In66  1  0.83218953  0.01299785  0.12760732  1
  In  In67  1  0.82473210  -0.00356426  0.62608888  1
  In  In68  1  0.82831738  0.33496852  0.12824033  1
  In  In69  1  0.83242642  0.33569777  0.63128085  1
  In  In70  1  0.84811641  0.66692080  0.11879600  1
  In  In71  1  0.82663282  0.65831403  0.62820700  1
  In  In72  1  0.66680790  0.01231603  0.24896070  1
  In  In73  1  0.82713314  0.50075653  0.49970479  1
  In  In74  1  0.50292305  0.49825756  -0.00316646  1
  In  In75  1  0.00305744  0.00609729  0.75213836  1
  In  In76  1  0.83121558  0.17655016  0.00143631  1
  In  In77  1  0.82905502  0.16216506  0.49954647  1
  In  In78  1  0.66852507  0.66568264  0.25328240  1
  In  In79  1  0.49398256  0.83318580  0.50589792  1
  In  In80  1  0.33475919  0.00086340  0.75850496  1
  In  In81  1  0.17412134  0.49156734  0.50178187  1
  In  In82  1  0.82894050  0.83728493  -0.00089405  1
  In  In83  1  -0.00116005  0.66289700  0.75353825  1
  In  In84  1  0.83966946  0.83001112  0.50898329  1
  In  In85  1  0.16338799  0.49961893  -0.00331850  1
  Cu  Cu86  1  0.17423928  0.16160437  0.75594504  1
  Cu  Cu87  1  0.83770806  0.16982267  0.75391325  1
  Cu  Cu88  1  0.33396555  0.66276692  0.49960834  1
  Cu  Cu89  1  0.33492411  0.67294681  -0.00283548  1
  Cu  Cu90  1  0.00540006  0.32737631  0.00193063  1
  Cu  Cu91  1  0.33082358  0.00071583  0.49674276  1
  Cu  Cu92  1  0.50006382  0.49596324  0.74965893  1
  Cu  Cu93  1  0.66076621  0.66785408  -0.00885445  1
  Cu  Cu94  1  0.67013188  0.33011034  -0.00586887  1
  Cu  Cu95  1  0.65298044  0.33467510  0.50417349  1
  Cu  Cu96  1  0.00191347  0.66057786  0.00318089  1
  Cu  Cu97  1  0.83122738  0.49563190  0.75059742  1
  Cu  Cu98  1  0.49122938  0.83850047  0.24502078  1
  Cu  Cu99  1  0.16613912  0.49782104  0.25334900  1
  Cu  Cu100  1  0.17086354  0.16494806  0.25037090  1
  Cu  Cu101  1  0.49497906  0.16668998  0.24611903  1
  Cu  Cu102  1  0.01114784  0.67572903  0.49434463  1
  Cu  Cu103  1  0.00636456  -0.00059396  0.01080189  1
  Cu  Cu104  1  0.66395578  0.00553238  0.50982856  1
  Cu  Cu105  1  0.82894262  0.83185774  0.75224831  1
  Cu  Cu106  1  0.65613725  -0.00405998  -0.01190870  1
  Cu  Cu107  1  0.84554447  0.83053140  0.24809648  1
  Cu  Cu108  1  0.01332187  0.00216373  0.49143266  1
  Cu  Cu109  1  0.17137097  0.83453427  0.24633056  1
  Cu  Cu110  1  0.00810678  0.32693266  0.49817049  1
  Cu  Cu111  1  0.33324690  0.33411514  0.00028674  1
  Cu  Cu112  1  0.83462463  0.50163927  0.24727924  1
  Cu  Cu113  1  0.83240131  0.17146151  0.25053434  1
  Cu  Cu114  1  0.49897517  0.49780685  0.25099794  1
  Se  Se115  1  0.08886286  0.08802993  0.05803806  1
  Se  Se116  1  0.09077679  0.08769686  0.54782748  1
  Se  Se117  1  0.08399550  0.40877773  0.06357372  1
  Se  Se118  1  0.08085027  0.40656940  0.56264780  1
  Se  Se119  1  0.08762043  0.74425153  0.05270166  1
  Se  Se120  1  0.09448645  0.75424353  0.54992612  1
  Se  Se121  1  0.43793383  0.11089089  0.05354240  1
  Se  Se122  1  0.41828358  0.07910077  0.55080826  1
  Se  Se123  1  0.41054629  0.41654677  0.06139944  1
  Se  Se124  1  0.41297717  0.41699025  0.54898308  1
  Se  Se125  1  0.41923562  0.75308963  0.05139640  1
  Se  Se126  1  0.40756873  0.74247210  0.56616595  1
  Se  Se127  1  0.73798032  0.07296763  0.05116507  1
  Se  Se128  1  0.73779957  0.09066858  0.56871918  1
  Se  Se129  1  0.75447614  0.41021071  0.04852694  1
  Se  Se130  1  0.73935084  0.41217637  0.56183251  1
  Se  Se131  1  0.73906586  0.74343726  0.05891999  1
  Se  Se132  1  0.73987619  0.74398017  0.56058751  1
  Se  Se133  1  0.25025535  0.25234729  0.05490385  1
  Se  Se134  1  0.23730707  0.24664556  0.55425580  1
  Se  Se135  1  0.25935142  0.58588291  0.05651504  1
  Se  Se136  1  0.25790461  0.58380280  0.56355478  1
  Se  Se137  1  0.25480746  0.91958224  0.04991664  1
  Se  Se138  1  0.25383977  0.91474475  0.55247501  1
  Se  Se139  1  0.58492137  0.25695231  0.05348334  1
  Se  Se140  1  0.57732082  0.24799582  0.55999915  1
  Se  Se141  1  0.58829049  0.59061334  0.06081821  1
  Se  Se142  1  0.57798992  0.58427325  0.55159053  1
  Se  Se143  1  0.57590841  0.90915755  0.04074227  1
  Se  Se144  1  0.58495817  0.92113026  0.56680228  1
  Se  Se145  1  0.92832729  0.24904846  0.06669049  1
  Se  Se146  1  0.92167853  0.25351072  0.55875240  1
  Se  Se147  1  0.91627193  0.57429855  0.04927295  1
  Se  Se148  1  0.92463131  0.59760646  0.55202977  1
  Se  Se149  1  0.91886932  0.92013659  0.06544942  1
  Se  Se150  1  0.93198681  0.93132072  0.55844150  1
  Se  Se151  1  0.08889076  0.24544428  0.44353091  1
  Se  Se152  1  0.09245611  0.25103173  0.94761324  1
  Se  Se153  1  0.08260241  0.58283702  0.43915654  1
  Se  Se154  1  0.07918040  0.59111761  0.93344035  1
  Se  Se155  1  0.09453094  0.91384723  0.44278524  1
  Se  Se156  1  0.08501395  0.91190331  0.95755227  1
  Se  Se157  1  0.44019516  0.22622007  0.43752628  1
  Se  Se158  1  0.42210020  0.25571258  0.94757872  1
  Se  Se159  1  0.41681569  0.58094194  0.44633886  1
  Se  Se160  1  0.40740292  0.58405476  0.93776759  1
  Se  Se161  1  0.41193763  0.91912192  0.43654648  1
  Se  Se162  1  0.39890742  0.92856198  0.94704876  1
  Se  Se163  1  0.74191582  0.26264052  0.44289830  1
  Se  Se164  1  0.73844737  0.24316623  0.93058615  1
  Se  Se165  1  0.73687727  0.59568671  0.44453296  1
  Se  Se166  1  0.74690902  0.57781652  0.94952777  1
  Se  Se167  1  0.74465680  0.92551572  0.45023470  1
  Se  Se168  1  0.73873860  0.91402756  0.93130524  1
  Se  Se169  1  0.25261280  0.08620725  0.44138060  1
  Se  Se170  1  0.25340648  0.09342582  0.96279085  1
  Se  Se171  1  0.26479243  0.40124862  0.44426272  1
  Se  Se172  1  0.25916227  0.41545477  0.93778052  1
  Se  Se173  1  0.25312172  0.74959677  0.44721931  1
  Se  Se174  1  0.24480991  0.75187874  0.94729884  1
  Se  Se175  1  0.58155237  0.08394929  0.45253890  1
  Se  Se176  1  0.58033311  0.09215428  0.94240769  1
  Se  Se177  1  0.57602032  0.41535915  0.44426536  1
  Se  Se178  1  0.58513155  0.40646788  0.93407970  1
  Se  Se179  1  0.58870580  0.74614777  0.44508668  1
  Se  Se180  1  0.57587352  0.74707745  0.93750214  1
  Se  Se181  1  0.92421967  0.07901724  0.43718655  1
  Se  Se182  1  0.92669313  0.07812435  0.94878199  1
  Se  Se183  1  0.92468668  0.41087279  0.44330869  1
  Se  Se184  1  0.91782733  0.40788887  0.95032479  1
  Se  Se185  1  0.92481816  0.75172596  0.43579323  1
  Se  Se186  1  0.92168038  0.74325675  0.94182412  1
  Se  Se187  1  0.25228612  0.25052533  0.30335981  1
  Se  Se188  1  0.25438588  0.24769859  0.81010932  1
  Se  Se189  1  0.25156758  0.58078670  0.30622350  1
  Se  Se190  1  0.22385805  0.56823495  0.79542105  1
  Se  Se191  1  0.25364835  0.91940514  0.29988819  1
  Se  Se192  1  0.23695899  0.91539083  0.81403890  1
  Se  Se193  1  0.58313085  0.24967873  0.29715780  1
  Se  Se194  1  0.59324918  0.26080656  0.79675836  1
  Se  Se195  1  0.57617262  0.57997671  0.31348796  1
  Se  Se196  1  0.57978281  0.58250375  0.80349666  1
  Se  Se197  1  0.57511048  0.91522628  0.30546568  1
  Se  Se198  1  0.58252928  0.93623824  0.80582750  1
  Se  Se199  1  0.91606178  0.25618722  0.30192375  1
  Se  Se200  1  0.92284947  0.24994323  0.80715518  1
  Se  Se201  1  0.91808017  0.58729707  0.29839366  1
  Se  Se202  1  0.90708683  0.57620960  0.81476122  1
  Se  Se203  1  0.92358449  0.92070445  0.29869900  1
  Se  Se204  1  0.91063206  0.91098426  0.81054902  1
  Se  Se205  1  0.08513747  0.08181333  0.30254188  1
  Se  Se206  1  0.09792289  0.07988738  0.81896949  1
  Se  Se207  1  0.08299491  0.41243378  0.30450223  1
  Se  Se208  1  0.08604992  0.42198948  0.80028806  1
  Se  Se209  1  0.08823384  0.74756708  0.29959328  1
  Se  Se210  1  0.08790750  0.76193071  0.80471663  1
  Se  Se211  1  0.41400552  0.07947846  0.29784039  1
  Se  Se212  1  0.42151578  0.09766715  0.81246574  1
  Se  Se213  1  0.41558471  0.41442216  0.30394868  1
  Se  Se214  1  0.41099886  0.41421869  0.79851378  1
  Se  Se215  1  0.41545464  0.74986376  0.29971065  1
  Se  Se216  1  0.38964492  0.73868980  0.80287858  1
  Se  Se217  1  0.75493846  0.09528819  0.31769131  1
  Se  Se218  1  0.75617293  0.07792318  0.79838756  1
  Se  Se219  1  0.74793543  0.42181640  0.30080090  1
  Se  Se220  1  0.74931527  0.41419827  0.80647651  1
  Se  Se221  1  0.75968002  0.76113581  0.31176453  1
  Se  Se222  1  0.74607215  0.74297370  0.80003889  1
  Se  Se223  1  0.25371720  0.08529506  0.19296972  1
  Se  Se224  1  0.25284733  0.08886510  0.68992643  1
  Se  Se225  1  0.25192187  0.41372669  0.20305955  1
  Se  Se226  1  0.24178148  0.42620785  0.69873880  1
  Se  Se227  1  0.25451651  0.74788414  0.19435197  1
  Se  Se228  1  0.25335763  0.74925440  0.70283206  1
  Se  Se229  1  0.56966181  0.08173987  0.18332165  1
  Se  Se230  1  0.59175219  0.07124721  0.70126284  1
  Se  Se231  1  0.58483931  0.41819902  0.19667460  1
  Se  Se232  1  0.58137562  0.41213417  0.69471548  1
  Se  Se233  1  0.58019513  0.75843756  0.19102814  1
  Se  Se234  1  0.57667420  0.74689545  0.70401993  1
  Se  Se235  1  0.91407971  0.08194460  0.20238194  1
  Se  Se236  1  0.91422531  0.09245511  0.68716236  1
  Se  Se237  1  0.91642716  0.41598261  0.19432228  1
  Se  Se238  1  0.91887226  0.41471824  0.69991570  1
  Se  Se239  1  0.92281721  0.74490582  0.19323274  1
  Se  Se240  1  0.91146823  0.75816048  0.68942811  1
  Se  Se241  1  0.08254888  0.25250938  0.20316207  1
  Se  Se242  1  0.08451285  0.24419466  0.70561551  1
  Se  Se243  1  0.08612374  0.58090325  0.19548313  1
  Se  Se244  1  0.07973967  0.58297018  0.68181340  1
  Se  Se245  1  0.08879814  0.92033937  0.19344147  1
  Se  Se246  1  0.09317171  0.91729830  0.69156607  1
  Se  Se247  1  0.41095041  0.25472390  0.19695604  1
  Se  Se248  1  0.41837825  0.24494219  0.69276911  1
  Se  Se249  1  0.41604925  0.58548423  0.20150697  1
  Se  Se250  1  0.41502982  0.58183374  0.69852193  1
  Se  Se251  1  0.41287384  0.92031793  0.18764138  1
  Se  Se252  1  0.42467151  0.90858506  0.69851773  1
  Se  Se253  1  0.74609933  0.24745830  0.19416462  1
  Se  Se254  1  0.75370534  0.25289044  0.70117268  1
  Se  Se255  1  0.75349997  0.58009504  0.18543403  1
  Se  Se256  1  0.74709164  0.57938500  0.69821402  1
  Se  Se257  1  0.75623845  0.91014727  0.19340001  1
  Se  Se258  1  0.74877170  0.91677980  0.69857941  1
