# generated using pymatgen
data_In86Cu29Se144
_symmetry_space_group_name_H-M   'P 1'
_cell_length_a   17.68741923
_cell_length_b   17.68293529
_cell_length_c   23.52973517
_cell_angle_alpha   89.91502348
_cell_angle_beta   90.01831063
_cell_angle_gamma   90.03701947
_symmetry_Int_Tables_number   1
_chemical_formula_structural   In86Cu29Se144
_chemical_formula_sum   'In86 Cu29 Se144'
_cell_volume   7359.27914167
_cell_formula_units_Z   1
loop_
 _symmetry_equiv_pos_site_id
 _symmetry_equiv_pos_as_xyz
  1  'x, y, z'
loop_
 _atom_site_type_symbol
 _atom_site_label
 _atom_site_symmetry_multiplicity
 _atom_site_fract_x
 _atom_site_fract_y
 _atom_site_fract_z
 _atom_site_occupancy
  In  In0  1  -0.01884027  0.17684288  0.13707665  1
  In  In1  1  0.00201180  0.18586967  0.62480343  1
  In  In2  1  -0.00885591  0.50475816  0.12792129  1
  In  In3  1  -0.01405585  0.50577624  0.63043807  1
  In  In4  1  -0.00581409  0.83785693  0.12963660  1
  In  In5  1  -0.00225549  0.81903963  0.62170005  1
  In  In6  1  0.33342509  0.15999565  0.12439096  1
  In  In7  1  0.34085444  0.14555163  0.62668003  1
  In  In8  1  0.34229923  0.50178547  0.12456908  1
  In  In9  1  0.33266868  0.50908675  0.62148489  1
  In  In10  1  0.33290618  0.83209097  0.13337510  1
  In  In11  1  0.33802781  0.84701449  0.61938605  1
  In  In12  1  0.66990969  0.17983556  0.10994419  1
  In  In13  1  0.66741493  0.16792825  0.62857799  1
  In  In14  1  0.66662454  0.49995133  0.11832905  1
  In  In15  1  0.66571519  0.48600386  0.63147564  1
  In  In16  1  0.65738952  0.81563703  0.11116282  1
  In  In17  1  0.67745919  0.83560303  0.63003202  1
  In  In18  1  0.16457115  -0.00294623  0.37559251  1
  In  In19  1  0.17775338  -0.01337442  0.86938433  1
  In  In20  1  0.15893104  0.34747523  0.36809096  1
  In  In21  1  0.16045549  0.33964268  0.87060330  1
  In  In22  1  0.17139217  0.67741952  0.36093089  1
  In  In23  1  0.16934958  0.66944247  0.87199366  1
  In  In24  1  0.50183220  0.01241437  0.37174287  1
  In  In25  1  0.50704487  -0.00533918  0.87300642  1
  In  In26  1  0.50293277  0.32126480  0.37369271  1
  In  In27  1  0.54327790  0.30040863  0.92369285  1
  In  In28  1  0.49946290  0.66593838  0.36180663  1
  In  In29  1  0.56628605  0.61131919  0.93917581  1
  In  In30  1  0.84206829  0.00289041  0.37368717  1
  In  In31  1  0.81992440  0.00855283  0.88213166  1
  In  In32  1  0.83128938  0.33468462  0.37215949  1
  In  In33  1  0.83245945  0.32675860  0.87108378  1
  In  In34  1  0.82509192  0.65686261  0.36547281  1
  In  In35  1  0.84209646  0.65961634  0.88558782  1
  In  In36  1  -0.00641088  0.16473415  0.37001951  1
  In  In37  1  -0.01484406  0.17014345  0.87682869  1
  In  In38  1  -0.00973385  0.48801717  0.36010583  1
  In  In39  1  -0.01126879  0.48935636  0.86834979  1
  In  In40  1  0.00523717  0.84470526  0.36885877  1
  In  In41  1  0.00582430  0.81809204  0.87412257  1
  In  In42  1  0.35051520  0.16746759  0.37631493  1
  In  In43  1  0.36382894  0.17118824  0.87768257  1
  In  In44  1  0.33109515  0.51360779  0.36738511  1
  In  In45  1  0.34630063  0.49742138  0.88408312  1
  In  In46  1  0.32657883  0.82806246  0.36983692  1
  In  In47  1  0.34675723  0.83956247  0.86891938  1
  In  In48  1  0.66245229  0.17690379  0.37809487  1
  In  In49  1  0.67122266  0.16039326  0.87146005  1
  In  In50  1  0.67629978  0.50602580  0.36547309  1
  In  In51  1  0.72466700  0.45990825  0.93517281  1
  In  In52  1  0.67848366  0.83034826  0.36909318  1
  In  In53  1  0.65570460  0.82890197  0.88805705  1
  In  In54  1  0.16555437  0.00319621  0.13411963  1
  In  In55  1  0.18209408  0.00141306  0.62130407  1
  In  In56  1  0.15535029  0.33088170  0.13161906  1
  In  In57  1  0.15817508  0.32676119  0.62469067  1
  In  In58  1  0.15968559  0.66323764  0.14203011  1
  In  In59  1  0.15509797  0.65902001  0.61581552  1
  In  In60  1  0.49414097  -0.00608974  0.11764658  1
  In  In61  1  0.49408656  0.01038239  0.63819017  1
  In  In62  1  0.50563366  0.34979330  0.10649033  1
  In  In63  1  0.52083173  0.33166999  0.63401582  1
  In  In64  1  0.49236353  0.67180986  0.12811179  1
  In  In65  1  0.49951541  0.67176617  0.62668047  1
  In  In66  1  0.83593387  0.00703066  0.11889979  1
  In  In67  1  0.81990356  -0.00037697  0.62814778  1
  In  In68  1  0.82905412  0.33091407  0.11708692  1
  In  In69  1  0.82999547  0.33453528  0.62729004  1
  In  In70  1  0.83020945  0.66492596  0.11849377  1
  In  In71  1  0.84295445  0.66809939  0.62507752  1
  In  In72  1  0.16775730  0.17004100  0.49743281  1
  In  In73  1  0.49970475  0.83918226  0.50002617  1
  In  In74  1  0.66917509  -0.00346253  0.23823804  1
  In  In75  1  0.16365672  0.83625527  0.01095136  1
  In  In76  1  0.33041452  0.33364765  0.75225383  1
  In  In77  1  0.83580483  0.83586633  0.49860235  1
  In  In78  1  0.33710494  0.67287196  0.75100362  1
  In  In79  1  0.50175411  0.49612880  0.49243537  1
  In  In80  1  0.33595072  0.33182121  0.24827718  1
  In  In81  1  0.67053405  0.65471606  0.77312637  1
  In  In82  1  0.16339932  0.50247984  0.01005962  1
  In  In83  1  0.16435921  0.16781797  0.00017874  1
  In  In84  1  0.00274692  -0.00019084  0.74965971  1
  In  In85  1  0.16205170  0.50369515  0.48689528  1
  Cu  Cu86  1  0.67531258  0.33045050  0.50438461  1
  Cu  Cu87  1  0.34017590  0.00772281  -0.00315441  1
  Cu  Cu88  1  0.50522945  0.16804377  0.75955101  1
  Cu  Cu89  1  0.50613711  0.17018127  0.24745971  1
  Cu  Cu90  1  0.82860557  0.50051176  0.75962733  1
  Cu  Cu91  1  0.66412844  0.65930355  0.49289012  1
  Cu  Cu92  1  0.83283604  0.82300829  0.24372645  1
  Cu  Cu93  1  0.33530138  0.67829110  0.00293070  1
  Cu  Cu94  1  0.66276566  0.01097090  0.50403064  1
  Cu  Cu95  1  0.00004103  0.00510369  0.49407515  1
  Cu  Cu96  1  0.16637913  0.16697317  0.74732513  1
  Cu  Cu97  1  0.33996689  0.33272859  0.50067777  1
  Cu  Cu98  1  0.66568114  -0.00096828  -0.00137189  1
  Cu  Cu99  1  0.15868765  0.50604936  0.74748460  1
  Cu  Cu100  1  -0.00477488  0.66349976  0.49541656  1
  Cu  Cu101  1  -0.01001876  0.34213575  0.49864164  1
  Cu  Cu102  1  0.50521036  0.50008966  0.24011463  1
  Cu  Cu103  1  0.83569211  0.83789631  0.75320181  1
  Cu  Cu104  1  -0.00400464  0.65843296  0.00010973  1
  Cu  Cu105  1  -0.00172990  0.00082648  0.00372661  1
  Cu  Cu106  1  0.50813781  0.82731442  0.75526018  1
  Cu  Cu107  1  0.16097008  0.83934198  0.25135068  1
  Cu  Cu108  1  0.82539912  0.49473404  0.24136043  1
  Cu  Cu109  1  0.49746536  0.83627153  0.24319143  1
  Cu  Cu110  1  0.82930247  0.16710502  0.24541388  1
  Cu  Cu111  1  0.16619097  0.16170771  0.25321917  1
  Cu  Cu112  1  0.50700924  0.49544500  0.76194156  1
  Cu  Cu113  1  0.16920610  0.82792748  0.74693657  1
  Cu  Cu114  1  0.83142824  0.17014265  0.75108631  1
  Se  Se115  1  0.07668054  0.08080087  0.06326331  1
  Se  Se116  1  0.07692367  0.08237905  0.56044556  1
  Se  Se117  1  0.07042329  0.40741320  0.05887263  1
  Se  Se118  1  0.07781609  0.41714486  0.55664271  1
  Se  Se119  1  0.07624886  0.73675598  0.06216050  1
  Se  Se120  1  0.07859840  0.74686879  0.54737548  1
  Se  Se121  1  0.42037432  0.08985965  0.05225396  1
  Se  Se122  1  0.42224066  0.07353539  0.55557693  1
  Se  Se123  1  0.40235255  0.41886934  0.04813618  1
  Se  Se124  1  0.41742581  0.41111865  0.56378907  1
  Se  Se125  1  0.41448534  0.76065862  0.05906182  1
  Se  Se126  1  0.41055545  0.74202367  0.55553964  1
  Se  Se127  1  0.74865833  0.08342450  0.05083665  1
  Se  Se128  1  0.75114629  0.08737459  0.55725670  1
  Se  Se129  1  0.74797702  0.41800516  0.04776395  1
  Se  Se130  1  0.75034675  0.42038138  0.55707514  1
  Se  Se131  1  0.74667961  0.74003138  0.04616226  1
  Se  Se132  1  0.74201239  0.74134909  0.55483224  1
  Se  Se133  1  0.25011269  0.25724664  0.06283270  1
  Se  Se134  1  0.26070204  0.25480994  0.56248432  1
  Se  Se135  1  0.25297597  0.60083966  0.06215162  1
  Se  Se136  1  0.25623388  0.59005066  0.54815564  1
  Se  Se137  1  0.25827412  0.93184135  0.05953471  1
  Se  Se138  1  0.24844829  0.91511369  0.55022781  1
  Se  Se139  1  0.58040670  0.25547553  0.04193281  1
  Se  Se140  1  0.58698470  0.25176533  0.55712263  1
  Se  Se141  1  0.56816461  0.58118512  0.06090482  1
  Se  Se142  1  0.58742017  0.58561007  0.55970553  1
  Se  Se143  1  0.58283667  0.91633120  0.05210611  1
  Se  Se144  1  0.59162646  0.92249258  0.56354960  1
  Se  Se145  1  0.91398272  0.24207322  0.05508084  1
  Se  Se146  1  0.91419009  0.25601686  0.55495154  1
  Se  Se147  1  0.91206424  0.57619678  0.05156436  1
  Se  Se148  1  0.91408353  0.58358121  0.55245683  1
  Se  Se149  1  0.91670534  0.91483042  0.05516464  1
  Se  Se150  1  0.92346507  0.92694805  0.56046655  1
  Se  Se151  1  0.07636401  0.26309732  0.44126710  1
  Se  Se152  1  0.07460414  0.25833570  0.94122958  1
  Se  Se153  1  0.07002777  0.58883279  0.42841268  1
  Se  Se154  1  0.08032454  0.58558455  0.93856274  1
  Se  Se155  1  0.08119450  0.91760032  0.44614279  1
  Se  Se156  1  0.07943837  0.92362345  0.94256395  1
  Se  Se157  1  0.42405506  0.24952219  0.44993669  1
  Se  Se158  1  0.40439569  0.26744601  0.95151008  1
  Se  Se159  1  0.41383014  0.59380152  0.44022269  1
  Se  Se160  1  0.40931665  0.60577070  0.93792278  1
  Se  Se161  1  0.41425929  0.92197251  0.43441714  1
  Se  Se162  1  0.41770757  0.91957281  0.94419050  1
  Se  Se163  1  0.75412604  0.25014779  0.44467111  1
  Se  Se164  1  0.75275072  0.24315495  0.93949637  1
  Se  Se165  1  0.75166929  0.57987043  0.44303333  1
  Se  Se166  1  0.73287564  0.60820445  0.94827600  1
  Se  Se167  1  0.74045117  0.92832126  0.44290394  1
  Se  Se168  1  0.74906368  0.91358665  0.94787100  1
  Se  Se169  1  0.25875911  0.08176046  0.44069326  1
  Se  Se170  1  0.25550613  0.08095267  0.93632290  1
  Se  Se171  1  0.26308645  0.40944517  0.43812807  1
  Se  Se172  1  0.24683379  0.41451729  0.94292894  1
  Se  Se173  1  0.24744342  0.74465441  0.43839011  1
  Se  Se174  1  0.25116531  0.75529035  0.94213570  1
  Se  Se175  1  0.58273971  0.08772751  0.44401578  1
  Se  Se176  1  0.58527256  0.08058461  0.94171067  1
  Se  Se177  1  0.59645598  0.40726972  0.43879001  1
  Se  Se178  1  0.57515629  0.44338067  0.93663954  1
  Se  Se179  1  0.58848436  0.74624478  0.43758698  1
  Se  Se180  1  0.55333512  0.76014784  0.94543956  1
  Se  Se181  1  0.91465326  0.08810548  0.44556142  1
  Se  Se182  1  0.91647133  0.08060631  0.94664422  1
  Se  Se183  1  0.91206352  0.42241651  0.44019314  1
  Se  Se184  1  0.90352457  0.42253231  0.94100185  1
  Se  Se185  1  0.91707176  0.74607582  0.43428247  1
  Se  Se186  1  0.92231405  0.75236357  0.94929571  1
  Se  Se187  1  0.24617070  0.24377185  0.31309524  1
  Se  Se188  1  0.24674112  0.23918601  0.81376097  1
  Se  Se189  1  0.23334221  0.57069808  0.30093639  1
  Se  Se190  1  0.24867460  0.57364029  0.80735188  1
  Se  Se191  1  0.24738004  0.91897792  0.30486314  1
  Se  Se192  1  0.25591172  0.90923588  0.79702803  1
  Se  Se193  1  0.58825029  0.25269704  0.30028343  1
  Se  Se194  1  0.57546261  0.25285452  0.82030801  1
  Se  Se195  1  0.58504100  0.58170290  0.29917934  1
  Se  Se196  1  0.56681268  0.58360355  0.82496246  1
  Se  Se197  1  0.57995891  0.91183841  0.30601748  1
  Se  Se198  1  0.59217438  0.91033574  0.80706278  1
  Se  Se199  1  0.91110436  0.24802161  0.30323272  1
  Se  Se200  1  0.91929180  0.25142477  0.79963276  1
  Se  Se201  1  0.90822969  0.57781474  0.29664363  1
  Se  Se202  1  0.91544589  0.58777460  0.80574830  1
  Se  Se203  1  0.90539020  0.91076220  0.30277495  1
  Se  Se204  1  0.91695573  0.91450460  0.81502020  1
  Se  Se205  1  0.08209304  0.08128615  0.30803109  1
  Se  Se206  1  0.09054440  0.08780996  0.81279788  1
  Se  Se207  1  0.07732699  0.41045249  0.29279028  1
  Se  Se208  1  0.08035999  0.41746878  0.79945165  1
  Se  Se209  1  0.07483660  0.75355446  0.29954055  1
  Se  Se210  1  0.08679469  0.74544131  0.79982813  1
  Se  Se211  1  0.42046846  0.08851445  0.29880114  1
  Se  Se212  1  0.42018819  0.07832414  0.80479282  1
  Se  Se213  1  0.42808201  0.42409029  0.30817308  1
  Se  Se214  1  0.42276776  0.41180026  0.81407730  1
  Se  Se215  1  0.41599860  0.75397896  0.30010821  1
  Se  Se216  1  0.43334742  0.74390240  0.81446205  1
  Se  Se217  1  0.74959599  0.08565879  0.30626259  1
  Se  Se218  1  0.75245928  0.07965728  0.79992108  1
  Se  Se219  1  0.74721585  0.41188816  0.29997742  1
  Se  Se220  1  0.74703730  0.43267615  0.82455314  1
  Se  Se221  1  0.74605794  0.74454493  0.29728482  1
  Se  Se222  1  0.76043775  0.75778436  0.81728297  1
  Se  Se223  1  0.25283067  0.08581820  0.19841092  1
  Se  Se224  1  0.24972767  0.08122967  0.69883554  1
  Se  Se225  1  0.24636848  0.42200193  0.19064931  1
  Se  Se226  1  0.24146287  0.42677919  0.68795202  1
  Se  Se227  1  0.24475185  0.75473536  0.20020849  1
  Se  Se228  1  0.24552372  0.74909252  0.68255924  1
  Se  Se229  1  0.58057698  0.09104600  0.18249536  1
  Se  Se230  1  0.58612044  0.08725332  0.70105283  1
  Se  Se231  1  0.58311096  0.41411023  0.18685506  1
  Se  Se232  1  0.59027316  0.41372321  0.70892091  1
  Se  Se233  1  0.58235885  0.75210737  0.19408160  1
  Se  Se234  1  0.58957966  0.74672515  0.69616714  1
  Se  Se235  1  0.91158084  0.07583032  0.19920573  1
  Se  Se236  1  0.91403666  0.09138165  0.68957612  1
  Se  Se237  1  0.90871975  0.41188748  0.18885695  1
  Se  Se238  1  0.90766391  0.42066623  0.69841684  1
  Se  Se239  1  0.91635327  0.74200163  0.19012844  1
  Se  Se240  1  0.91354676  0.75330610  0.69777023  1
  Se  Se241  1  0.08204834  0.24377972  0.20083168  1
  Se  Se242  1  0.08250533  0.25452213  0.70179475  1
  Se  Se243  1  0.08131265  0.56989084  0.19997878  1
  Se  Se244  1  0.07769274  0.58810468  0.69247355  1
  Se  Se245  1  0.07764522  0.92054177  0.19697266  1
  Se  Se246  1  0.08838864  0.90889676  0.68692126  1
  Se  Se247  1  0.42758419  0.25052530  0.18493673  1
  Se  Se248  1  0.42332738  0.24209181  0.69326510  1
  Se  Se249  1  0.41380892  0.58466301  0.19803622  1
  Se  Se250  1  0.42942478  0.57155599  0.69577792  1
  Se  Se251  1  0.41506857  0.92425275  0.19531341  1
  Se  Se252  1  0.42487670  0.90552378  0.69693420  1
  Se  Se253  1  0.74789374  0.24765331  0.18884352  1
  Se  Se254  1  0.74765242  0.25320774  0.69735174  1
  Se  Se255  1  0.74709664  0.58211462  0.18826004  1
  Se  Se256  1  0.75328647  0.58130379  0.69411245  1
  Se  Se257  1  0.75482610  0.90294331  0.18076370  1
  Se  Se258  1  0.74907083  0.91855203  0.70328669  1
