# generated using pymatgen
data_In86Cu29Se144
_symmetry_space_group_name_H-M   'P 1'
_cell_length_a   17.57752543
_cell_length_b   17.58306338
_cell_length_c   23.44834998
_cell_angle_alpha   89.98591819
_cell_angle_beta   90.02819865
_cell_angle_gamma   90.00929540
_symmetry_Int_Tables_number   1
_chemical_formula_structural   In86Cu29Se144
_chemical_formula_sum   'In86 Cu29 Se144'
_cell_volume   7247.10398284
_cell_formula_units_Z   1
loop_
 _symmetry_equiv_pos_site_id
 _symmetry_equiv_pos_as_xyz
  1  'x, y, z'
loop_
 _atom_site_type_symbol
 _atom_site_label
 _atom_site_symmetry_multiplicity
 _atom_site_fract_x
 _atom_site_fract_y
 _atom_site_fract_z
 _atom_site_occupancy
  In  In0  1  -0.01084144  0.17712496  0.13153943  1
  In  In1  1  -0.00949358  0.17415063  0.62434346  1
  In  In2  1  -0.01012668  0.50463755  0.11475334  1
  In  In3  1  -0.01160293  0.50537250  0.62982637  1
  In  In4  1  -0.00649332  0.83005794  0.14575416  1
  In  In5  1  -0.01132926  0.82011624  0.61485276  1
  In  In6  1  0.34102998  0.15625471  0.12111525  1
  In  In7  1  0.31477082  0.16705103  0.63192655  1
  In  In8  1  0.33812972  0.50519069  0.11222474  1
  In  In9  1  0.34691392  0.51288831  0.63333639  1
  In  In10  1  0.32721026  0.82427357  0.12312382  1
  In  In11  1  0.33516274  0.82775722  0.62925842  1
  In  In12  1  0.67568532  0.16450031  0.12099842  1
  In  In13  1  0.68175822  0.16978199  0.62240821  1
  In  In14  1  0.65729369  0.49275243  0.11129500  1
  In  In15  1  0.67896156  0.49431639  0.63836253  1
  In  In16  1  0.66973721  0.84551489  0.12565989  1
  In  In17  1  0.66435894  0.83384235  0.62373311  1
  In  In18  1  0.15050912  -0.01278027  0.36887004  1
  In  In19  1  0.16838265  -0.02250324  0.86984293  1
  In  In20  1  0.14321965  0.33917269  0.37629143  1
  In  In21  1  0.16644522  0.35096644  0.87745387  1
  In  In22  1  0.15284240  0.68482915  0.38482143  1
  In  In23  1  0.15421269  0.65539636  0.85461657  1
  In  In24  1  0.50114573  -0.01187038  0.37418077  1
  In  In25  1  0.49940369  0.00330248  0.87790067  1
  In  In26  1  0.50848675  0.31869235  0.37106996  1
  In  In27  1  0.51479802  0.32708673  0.88116961  1
  In  In28  1  0.51490269  0.67311793  0.37636222  1
  In  In29  1  0.50028793  0.66883412  0.88398446  1
  In  In30  1  0.84073174  -0.00598707  0.37404487  1
  In  In31  1  0.83651920  0.00332097  0.88293884  1
  In  In32  1  0.83533677  0.33933071  0.37399447  1
  In  In33  1  0.83418572  0.33506006  0.87373039  1
  In  In34  1  0.84412948  0.65281701  0.38150841  1
  In  In35  1  0.82959549  0.65855177  0.87070585  1
  In  In36  1  -0.01462344  0.16255893  0.37327409  1
  In  In37  1  -0.01991945  0.16895020  0.88197118  1
  In  In38  1  -0.02020488  0.48655398  0.35954787  1
  In  In39  1  0.00404445  0.50305227  0.87677358  1
  In  In40  1  -0.00003259  0.82793677  0.37511507  1
  In  In41  1  -0.00183253  0.82017200  0.86605993  1
  In  In42  1  0.33961581  0.15572360  0.37510114  1
  In  In43  1  0.34673150  0.16584054  0.87355014  1
  In  In44  1  0.32837577  0.50093016  0.37012955  1
  In  In45  1  0.32147199  0.51022596  0.88147970  1
  In  In46  1  0.33843327  0.83560893  0.38437828  1
  In  In47  1  0.33430594  0.83994373  0.86447287  1
  In  In48  1  0.68819353  0.17843498  0.36185904  1
  In  In49  1  0.66179630  0.17334691  0.87877003  1
  In  In50  1  0.68483024  0.50738930  0.37225081  1
  In  In51  1  0.68305677  0.50691825  0.88518300  1
  In  In52  1  0.65660575  0.83791251  0.38004132  1
  In  In53  1  0.65974880  0.79279207  0.87247912  1
  In  In54  1  0.15158807  -0.01640341  0.13335265  1
  In  In55  1  0.18088019  -0.00341641  0.63125913  1
  In  In56  1  0.14944269  0.34214617  0.12412762  1
  In  In57  1  0.14475465  0.32644749  0.62979830  1
  In  In58  1  0.15966630  0.66318246  0.12206618  1
  In  In59  1  0.15062406  0.68565466  0.64211535  1
  In  In60  1  0.50732003  0.01366795  0.11575990  1
  In  In61  1  0.50111380  -0.01706162  0.62456908  1
  In  In62  1  0.51599930  0.34060667  0.11323551  1
  In  In63  1  0.50360389  0.35227784  0.63182941  1
  In  In64  1  0.50736209  0.67217541  0.10214396  1
  In  In65  1  0.49523611  0.67706232  0.63818427  1
  In  In66  1  0.82372689  -0.00352863  0.13658541  1
  In  In67  1  0.83294057  0.00038444  0.61285707  1
  In  In68  1  0.83482296  0.33143750  0.12296860  1
  In  In69  1  0.83190210  0.33441034  0.62654027  1
  In  In70  1  0.84505702  0.66713942  0.11631059  1
  In  In71  1  0.83618400  0.66923769  0.63035158  1
  In  In72  1  0.33539587  0.33892177  0.75604853  1
  In  In73  1  0.15674603  0.50978045  0.51616611  1
  In  In74  1  0.66577918  -0.00240611  0.74350766  1
  In  In75  1  0.67876248  0.67158016  0.24460693  1
  In  In76  1  0.00183045  -0.00201996  0.75264804  1
  In  In77  1  0.17216457  0.16731019  0.00595545  1
  In  In78  1  0.82961562  0.83027297  -0.00200041  1
  In  In79  1  0.32542825  0.66458309  0.23943527  1
  In  In80  1  0.50777512  0.16039676  0.50320792  1
  In  In81  1  0.33230004  -0.00019015  0.25261605  1
  In  In82  1  0.33140416  0.33432258  0.24225337  1
  In  In83  1  0.50673110  0.50921411  0.50546451  1
  In  In84  1  0.15272174  0.15551595  0.48801946  1
  In  In85  1  0.16276784  0.82684634  0.00136517  1
  Cu  Cu86  1  -0.00468980  -0.00083128  0.00611914  1
  Cu  Cu87  1  0.49935497  0.16451028  0.75390683  1
  Cu  Cu88  1  0.67517256  0.32651010  -0.00239909  1
  Cu  Cu89  1  0.33812507  -0.01055269  0.50557304  1
  Cu  Cu90  1  0.67276588  0.34304620  0.49924968  1
  Cu  Cu91  1  0.16824078  0.17660548  0.25035416  1
  Cu  Cu92  1  0.67049810  0.67350779  0.50356814  1
  Cu  Cu93  1  0.00083524  0.33794412  0.00061001  1
  Cu  Cu94  1  0.31880021  0.33308442  0.49985994  1
  Cu  Cu95  1  0.83317821  0.49353470  0.24320055  1
  Cu  Cu96  1  0.14971267  0.50852687  0.24531741  1
  Cu  Cu97  1  0.83188891  0.16428999  0.25073377  1
  Cu  Cu98  1  0.52189262  0.17082475  0.24093605  1
  Cu  Cu99  1  0.51701744  0.50291731  0.76388906  1
  Cu  Cu100  1  0.66626588  -0.00162169  0.00031187  1
  Cu  Cu101  1  0.16094360  0.16207895  0.75315936  1
  Cu  Cu102  1  0.82903579  0.17511139  0.75117268  1
  Cu  Cu103  1  0.50724236  0.49564409  0.23861225  1
  Cu  Cu104  1  0.16313878  0.49554677  0.74907250  1
  Cu  Cu105  1  0.83681606  0.49951372  0.75371909  1
  Cu  Cu106  1  0.33582459  0.00032466  -0.00490222  1
  Cu  Cu107  1  0.67236576  0.00366192  0.49484661  1
  Cu  Cu108  1  0.33839380  0.33491762  -0.00468488  1
  Cu  Cu109  1  0.49424357  0.83404726  0.24735391  1
  Cu  Cu110  1  0.50213924  0.83107500  0.75231125  1
  Cu  Cu111  1  0.00540576  -0.00869381  0.49682392  1
  Cu  Cu112  1  0.34030249  0.67530097  0.50614790  1
  Cu  Cu113  1  -0.00021608  0.66636569  0.50336242  1
  Cu  Cu114  1  0.33125797  0.67265927  -0.00546974  1
  Se  Se115  1  0.07870754  0.07799333  0.06410923  1
  Se  Se116  1  0.07763995  0.07306207  0.56394050  1
  Se  Se117  1  0.08450390  0.42572883  0.04841497  1
  Se  Se118  1  0.06387033  0.40729364  0.55830047  1
  Se  Se119  1  0.06391299  0.74991748  0.06216255  1
  Se  Se120  1  0.09040562  0.74691215  0.55252311  1
  Se  Se121  1  0.41979063  0.08809937  0.04415424  1
  Se  Se122  1  0.40600383  0.08243209  0.56385983  1
  Se  Se123  1  0.42232700  0.41771915  0.04946189  1
  Se  Se124  1  0.40514061  0.41321043  0.55633682  1
  Se  Se125  1  0.41105577  0.75891267  0.04773111  1
  Se  Se126  1  0.42762260  0.75461585  0.55833616  1
  Se  Se127  1  0.75536042  0.07238996  0.05579472  1
  Se  Se128  1  0.75301084  0.08992750  0.54716215  1
  Se  Se129  1  0.75362554  0.41226114  0.05180492  1
  Se  Se130  1  0.75123824  0.42381862  0.55777174  1
  Se  Se131  1  0.73751914  0.74379558  0.05871999  1
  Se  Se132  1  0.75452007  0.75304498  0.55917724  1
  Se  Se133  1  0.26033109  0.26267571  0.06447561  1
  Se  Se134  1  0.23911378  0.25028184  0.55567821  1
  Se  Se135  1  0.24904967  0.59221591  0.05230021  1
  Se  Se136  1  0.25967844  0.59566314  0.56561406  1
  Se  Se137  1  0.25202507  0.92761040  0.05799232  1
  Se  Se138  1  0.25173657  0.91123958  0.55884507  1
  Se  Se139  1  0.58958721  0.24334468  0.05049238  1
  Se  Se140  1  0.58719465  0.26621054  0.55982326  1
  Se  Se141  1  0.57926698  0.57601003  0.04170007  1
  Se  Se142  1  0.59371537  0.59351438  0.56989586  1
  Se  Se143  1  0.58127815  0.91583617  0.05368427  1
  Se  Se144  1  0.59087222  0.92186682  0.55103725  1
  Se  Se145  1  0.91972031  0.25052707  0.05161266  1
  Se  Se146  1  0.90149540  0.24242854  0.55623147  1
  Se  Se147  1  0.89385593  0.56868186  0.04253204  1
  Se  Se148  1  0.91404859  0.58612474  0.55616699  1
  Se  Se149  1  0.91921061  0.91446450  0.06494562  1
  Se  Se150  1  0.91469326  0.91238970  0.54835895  1
  Se  Se151  1  0.06102374  0.25906492  0.44709752  1
  Se  Se152  1  0.08246705  0.25315638  0.94273098  1
  Se  Se153  1  0.07252076  0.58026310  0.44012642  1
  Se  Se154  1  0.09177900  0.59046267  0.93939555  1
  Se  Se155  1  0.08941575  0.90591830  0.44780493  1
  Se  Se156  1  0.06849893  0.91981748  0.94298875  1
  Se  Se157  1  0.40955102  0.25446864  0.44581521  1
  Se  Se158  1  0.41980876  0.24909830  0.94502644  1
  Se  Se159  1  0.41043657  0.59109501  0.44011934  1
  Se  Se160  1  0.41421951  0.58182997  0.94897211  1
  Se  Se161  1  0.42739136  0.91280085  0.45208706  1
  Se  Se162  1  0.41364445  0.91504314  0.94063054  1
  Se  Se163  1  0.74936418  0.25599580  0.44371728  1
  Se  Se164  1  0.75858112  0.24415037  0.94349711  1
  Se  Se165  1  0.74914596  0.58461181  0.45185857  1
  Se  Se166  1  0.77208186  0.58210938  0.95536672  1
  Se  Se167  1  0.75130785  0.91562355  0.44278820  1
  Se  Se168  1  0.73655871  0.91611345  0.93547769  1
  Se  Se169  1  0.25728244  0.06472569  0.44008834  1
  Se  Se170  1  0.24964549  0.07598718  0.93667162  1
  Se  Se171  1  0.24302727  0.41816474  0.44192101  1
  Se  Se172  1  0.24900743  0.42015202  0.95214032  1
  Se  Se173  1  0.25404977  0.75052749  0.44882932  1
  Se  Se174  1  0.24974211  0.74819094  0.93297195  1
  Se  Se175  1  0.59247716  0.08334290  0.43219443  1
  Se  Se176  1  0.58469594  0.08338789  0.94579719  1
  Se  Se177  1  0.58530544  0.41517602  0.43779852  1
  Se  Se178  1  0.59474555  0.41520232  0.94613913  1
  Se  Se179  1  0.58087343  0.75283705  0.45343814  1
  Se  Se180  1  0.57577693  0.75565741  0.95555914  1
  Se  Se181  1  0.91904373  0.07714055  0.44819035  1
  Se  Se182  1  0.91050381  0.08462062  0.95666933  1
  Se  Se183  1  0.90933785  0.42852587  0.44347049  1
  Se  Se184  1  0.91991597  0.41613078  0.94214887  1
  Se  Se185  1  0.91733881  0.74782856  0.44691023  1
  Se  Se186  1  0.92475699  0.74121535  0.94203310  1
  Se  Se187  1  0.25021054  0.24954482  0.31495634  1
  Se  Se188  1  0.24219812  0.24537756  0.81322253  1
  Se  Se189  1  0.23522538  0.58161204  0.30710553  1
  Se  Se190  1  0.25433895  0.57699775  0.79663086  1
  Se  Se191  1  0.24737422  0.90208820  0.30760765  1
  Se  Se192  1  0.24699591  0.91261365  0.79298621  1
  Se  Se193  1  0.59656340  0.25831503  0.29640796  1
  Se  Se194  1  0.58464739  0.24881105  0.80224553  1
  Se  Se195  1  0.58085664  0.57805075  0.30332379  1
  Se  Se196  1  0.59325089  0.58885597  0.81916183  1
  Se  Se197  1  0.58133741  0.91296578  0.30041534  1
  Se  Se198  1  0.58476538  0.91067026  0.81191344  1
  Se  Se199  1  0.91277858  0.25128228  0.30355318  1
  Se  Se200  1  0.91860762  0.25195006  0.80339349  1
  Se  Se201  1  0.91012800  0.58521717  0.29547510  1
  Se  Se202  1  0.92252259  0.58321556  0.80460231  1
  Se  Se203  1  0.94272007  0.93263814  0.30770739  1
  Se  Se204  1  0.90451607  0.91241701  0.80894474  1
  Se  Se205  1  0.09090447  0.09673999  0.31084435  1
  Se  Se206  1  0.08464603  0.08888149  0.82050366  1
  Se  Se207  1  0.07725409  0.41303372  0.29541342  1
  Se  Se208  1  0.07986111  0.41397023  0.80306426  1
  Se  Se209  1  0.07577220  0.74143258  0.30361454  1
  Se  Se210  1  0.10835835  0.77697784  0.80306349  1
  Se  Se211  1  0.43609952  0.09280387  0.30133661  1
  Se  Se212  1  0.41715039  0.07802632  0.80215108  1
  Se  Se213  1  0.42654423  0.42243881  0.30489219  1
  Se  Se214  1  0.42484145  0.42392864  0.81830195  1
  Se  Se215  1  0.41816523  0.74998754  0.30702310  1
  Se  Se216  1  0.42172316  0.74658467  0.80752530  1
  Se  Se217  1  0.75433257  0.07362976  0.30267689  1
  Se  Se218  1  0.75319498  0.08706894  0.80855940  1
  Se  Se219  1  0.74970077  0.41639534  0.30095606  1
  Se  Se220  1  0.75021992  0.42076444  0.80833913  1
  Se  Se221  1  0.75209952  0.74883606  0.32150006  1
  Se  Se222  1  0.76284533  0.75559956  0.80284775  1
  Se  Se223  1  0.23976220  0.09028091  0.19024688  1
  Se  Se224  1  0.25089446  0.08082218  0.70671950  1
  Se  Se225  1  0.24274032  0.43365527  0.18828644  1
  Se  Se226  1  0.24442604  0.41750091  0.68606655  1
  Se  Se227  1  0.22921919  0.76236536  0.19387070  1
  Se  Se228  1  0.27400859  0.72355561  0.69264628  1
  Se  Se229  1  0.59497874  0.07705347  0.19126019  1
  Se  Se230  1  0.57537618  0.09210847  0.68388251  1
  Se  Se231  1  0.59283369  0.41138484  0.19145158  1
  Se  Se232  1  0.58994692  0.41520252  0.70661275  1
  Se  Se233  1  0.57256824  0.75067774  0.18781461  1
  Se  Se234  1  0.59235052  0.75337886  0.70029593  1
  Se  Se235  1  0.91611551  0.08282750  0.19622718  1
  Se  Se236  1  0.90500983  0.08541351  0.69398376  1
  Se  Se237  1  0.92082591  0.41639287  0.18868202  1
  Se  Se238  1  0.91566693  0.41383850  0.69798896  1
  Se  Se239  1  0.88659624  0.75694545  0.19697577  1
  Se  Se240  1  0.93099515  0.74199892  0.69688781  1
  Se  Se241  1  0.08203892  0.25542196  0.19677723  1
  Se  Se242  1  0.07329479  0.24206992  0.70216283  1
  Se  Se243  1  0.06908182  0.58809748  0.18831904  1
  Se  Se244  1  0.07947995  0.58040490  0.69802080  1
  Se  Se245  1  0.07046348  0.92244267  0.21095355  1
  Se  Se246  1  0.07950853  0.91210660  0.68356650  1
  Se  Se247  1  0.42785232  0.24505249  0.18646548  1
  Se  Se248  1  0.42132940  0.24663854  0.69084665  1
  Se  Se249  1  0.42908111  0.58235224  0.18381706  1
  Se  Se250  1  0.43040182  0.58017621  0.70816475  1
  Se  Se251  1  0.41776937  0.91461919  0.18520279  1
  Se  Se252  1  0.41818042  0.91435383  0.69873725  1
  Se  Se253  1  0.75337989  0.24781841  0.19272908  1
  Se  Se254  1  0.74374754  0.25611017  0.69836912  1
  Se  Se255  1  0.75223861  0.57271272  0.18183780  1
  Se  Se256  1  0.75403084  0.58743428  0.70288677  1
  Se  Se257  1  0.75445904  0.90144883  0.20374639  1
  Se  Se258  1  0.76368901  0.91301260  0.68907131  1
