# generated using pymatgen
data_In86Cu29Se144
_symmetry_space_group_name_H-M   'P 1'
_cell_length_a   17.59692949
_cell_length_b   17.59539443
_cell_length_c   23.44160602
_cell_angle_alpha   90.01353163
_cell_angle_beta   90.00884836
_cell_angle_gamma   90.00007539
_symmetry_Int_Tables_number   1
_chemical_formula_structural   In86Cu29Se144
_chemical_formula_sum   'In86 Cu29 Se144'
_cell_volume   7258.10498537
_cell_formula_units_Z   1
loop_
 _symmetry_equiv_pos_site_id
 _symmetry_equiv_pos_as_xyz
  1  'x, y, z'
loop_
 _atom_site_type_symbol
 _atom_site_label
 _atom_site_symmetry_multiplicity
 _atom_site_fract_x
 _atom_site_fract_y
 _atom_site_fract_z
 _atom_site_occupancy
  In  In0  1  0.00230630  0.16397838  0.13504412  1
  In  In1  1  0.01149923  0.16500255  0.63126338  1
  In  In2  1  0.01221328  0.49152962  0.15090428  1
  In  In3  1  0.01089830  0.48789659  0.62880126  1
  In  In4  1  0.00005434  0.83269034  0.13419304  1
  In  In5  1  -0.01526005  0.83715449  0.62981813  1
  In  In6  1  0.34696840  0.15873202  0.14068501  1
  In  In7  1  0.33669335  0.16744981  0.63303716  1
  In  In8  1  0.33921529  0.48001189  0.15037356  1
  In  In9  1  0.31761930  0.49618485  0.61495126  1
  In  In10  1  0.32834641  0.84215652  0.13286615  1
  In  In11  1  0.34946194  0.83901048  0.61493826  1
  In  In12  1  0.64718175  0.17601378  0.13467969  1
  In  In13  1  0.65505111  0.16688519  0.63106209  1
  In  In14  1  0.67674245  0.49463758  0.14492472  1
  In  In15  1  0.66598794  0.48677149  0.61950056  1
  In  In16  1  0.66259593  0.83783862  0.13359252  1
  In  In17  1  0.67384708  0.84756637  0.61531899  1
  In  In18  1  0.17967418  0.01502804  0.37289910  1
  In  In19  1  0.17379133  0.01504938  0.84897220  1
  In  In20  1  0.16827892  0.33132169  0.38081970  1
  In  In21  1  0.16974246  0.32434741  0.86051035  1
  In  In22  1  0.15762533  0.65961557  0.36790115  1
  In  In23  1  0.16593162  0.67948316  0.87332746  1
  In  In24  1  0.49687589  0.00490078  0.37812851  1
  In  In25  1  0.50288513  0.00781574  0.86666983  1
  In  In26  1  0.49123702  0.31577754  0.36318128  1
  In  In27  1  0.47277361  0.29340520  0.84136418  1
  In  In28  1  0.50748948  0.67681702  0.37048086  1
  In  In29  1  0.50164292  0.66929087  0.87348094  1
  In  In30  1  0.82469108  -0.00875850  0.37649481  1
  In  In31  1  0.84123500  -0.00035368  0.86185203  1
  In  In32  1  0.83588209  0.33883796  0.35963571  1
  In  In33  1  0.82397110  0.32924718  0.86370438  1
  In  In34  1  0.84231204  0.67205725  0.37047552  1
  In  In35  1  0.83806606  0.65919328  0.87236771  1
  In  In36  1  0.01051977  0.17598755  0.37334196  1
  In  In37  1  0.00204408  0.16935563  0.85523833  1
  In  In38  1  0.00991478  0.50629546  0.36597574  1
  In  In39  1  -0.00218372  0.49758858  0.86901915  1
  In  In40  1  -0.00856704  0.83188768  0.37804821  1
  In  In41  1  0.00971057  0.83915927  0.85784667  1
  In  In42  1  0.33856574  0.16307011  0.37868277  1
  In  In43  1  0.33169403  0.16424631  0.86421628  1
  In  In44  1  0.31117770  0.48800988  0.36349245  1
  In  In45  1  0.34655357  0.48778434  0.87848739  1
  In  In46  1  0.34495866  0.84961866  0.36910899  1
  In  In47  1  0.32238731  0.83530991  0.87343727  1
  In  In48  1  0.65226075  0.15606595  0.36124551  1
  In  In49  1  0.65200235  0.15368428  0.86090658  1
  In  In50  1  0.67306729  0.49566228  0.35946954  1
  In  In51  1  0.67332407  0.49347064  0.88152061  1
  In  In52  1  0.66591638  0.83756380  0.38116362  1
  In  In53  1  0.66258171  0.83831784  0.87519821  1
  In  In54  1  0.17046924  -0.00005346  0.13065330  1
  In  In55  1  0.16260682  0.01511580  0.63058164  1
  In  In56  1  0.17683725  0.32935558  0.13855542  1
  In  In57  1  0.16988198  0.32813073  0.62560311  1
  In  In58  1  0.16962732  0.65904528  0.14760646  1
  In  In59  1  0.16589760  0.65074681  0.61832215  1
  In  In60  1  0.48732007  0.02203400  0.14297591  1
  In  In61  1  0.50296189  0.00514999  0.62876217  1
  In  In62  1  0.49845880  0.32064030  0.13127216  1
  In  In63  1  0.50905287  0.31561165  0.63249728  1
  In  In64  1  0.50299305  0.66435562  0.14109590  1
  In  In65  1  0.48653253  0.67259351  0.61857239  1
  In  In66  1  0.83503529  -0.00186850  0.13080748  1
  In  In67  1  0.83232088  -0.01368254  0.62816147  1
  In  In68  1  0.83517101  0.33653547  0.13553912  1
  In  In69  1  0.83547080  0.33306502  0.62478959  1
  In  In70  1  0.84366574  0.65414158  0.14556552  1
  In  In71  1  0.83675900  0.68147707  0.62044897  1
  In  In72  1  0.82953846  0.16746643  0.49622984  1
  In  In73  1  0.84083023  0.50326257  0.48385070  1
  In  In74  1  0.83474976  0.83326900  -0.00487181  1
  In  In75  1  0.50027459  0.84268247  -0.00459582  1
  In  In76  1  0.32551816  0.66222906  0.74753523  1
  In  In77  1  0.16416315  0.83307888  0.49650907  1
  In  In78  1  0.16933437  0.49851409  0.01255991  1
  In  In79  1  0.17043893  0.16762900  -0.01150077  1
  In  In80  1  0.49802722  0.49707607  0.49142596  1
  In  In81  1  0.16678997  0.84574192  0.01094887  1
  In  In82  1  0.50451139  0.49331770  0.00507100  1
  In  In83  1  0.83286533  0.49317182  0.02024141  1
  In  In84  1  0.66940773  0.66759691  0.75324454  1
  In  In85  1  0.82929986  0.16448006  -0.00257703  1
  Cu  Cu86  1  0.16781628  0.16885752  0.25615751  1
  Cu  Cu87  1  0.16583851  0.82959218  0.74047774  1
  Cu  Cu88  1  0.16786345  0.49765577  0.74668683  1
  Cu  Cu89  1  -0.00554369  0.33480271  0.00044555  1
  Cu  Cu90  1  0.33793957  0.32767972  0.49874234  1
  Cu  Cu91  1  0.50605339  0.83750099  0.25473376  1
  Cu  Cu92  1  0.65834468  0.00386773  0.49822517  1
  Cu  Cu93  1  0.16275557  0.83855221  0.25755151  1
  Cu  Cu94  1  0.33374794  0.32224407  -0.00332917  1
  Cu  Cu95  1  0.83309837  0.83616317  0.25426355  1
  Cu  Cu96  1  0.83854416  0.15796648  0.25437946  1
  Cu  Cu97  1  0.82954963  0.16989781  0.74237504  1
  Cu  Cu98  1  0.33332824  0.66659805  0.48860983  1
  Cu  Cu99  1  0.64729897  0.32219759  -0.00088057  1
  Cu  Cu100  1  0.49759531  0.48805608  0.74542129  1
  Cu  Cu101  1  0.00372965  0.66641944  0.00351902  1
  Cu  Cu102  1  0.49523134  0.50168088  0.25677074  1
  Cu  Cu103  1  0.33780753  0.00848899  0.50266858  1
  Cu  Cu104  1  0.33585800  0.66672348  0.01472702  1
  Cu  Cu105  1  0.01545401  0.33286619  0.50029958  1
  Cu  Cu106  1  0.66436926  0.32648199  0.49219096  1
  Cu  Cu107  1  0.83694460  0.50561034  0.74724500  1
  Cu  Cu108  1  0.00851609  0.00024280  -0.00694551  1
  Cu  Cu109  1  0.50531801  0.84026400  0.74389090  1
  Cu  Cu110  1  0.66095504  0.67268119  0.49788235  1
  Cu  Cu111  1  0.67492427  0.66837986  0.01611733  1
  Cu  Cu112  1  0.00015365  0.66161521  0.49512673  1
  Cu  Cu113  1  0.65827507  0.01160486  -0.00031880  1
  Cu  Cu114  1  0.00028701  0.00310066  0.50736248  1
  Se  Se115  1  0.08142301  0.08178955  0.05654290  1
  Se  Se116  1  0.08542324  0.08882728  0.55350715  1
  Se  Se117  1  0.07417793  0.40604849  0.06593577  1
  Se  Se118  1  0.09418634  0.41876240  0.55396890  1
  Se  Se119  1  0.08436277  0.74300608  0.06509608  1
  Se  Se120  1  0.07503929  0.74460706  0.55850124  1
  Se  Se121  1  0.41972923  0.09018003  0.06051716  1
  Se  Se122  1  0.41932423  0.08848794  0.56038109  1
  Se  Se123  1  0.40343872  0.41006044  0.06013026  1
  Se  Se124  1  0.41837940  0.40937609  0.56023161  1
  Se  Se125  1  0.42100462  0.75040698  0.06547740  1
  Se  Se126  1  0.41612416  0.74996180  0.54151430  1
  Se  Se127  1  0.74292514  0.08083181  0.06341736  1
  Se  Se128  1  0.74330695  0.07983904  0.56024963  1
  Se  Se129  1  0.72933783  0.39884441  0.06229672  1
  Se  Se130  1  0.74988688  0.40881818  0.54485784  1
  Se  Se131  1  0.75872942  0.74906355  0.06946076  1
  Se  Se132  1  0.74825489  0.75191659  0.55059781  1
  Se  Se133  1  0.25203595  0.24918171  0.06019780  1
  Se  Se134  1  0.25734403  0.24840175  0.55859317  1
  Se  Se135  1  0.26170661  0.58385738  0.07389249  1
  Se  Se136  1  0.25020220  0.58459778  0.54226413  1
  Se  Se137  1  0.26817957  0.93725928  0.05620322  1
  Se  Se138  1  0.25143500  0.92519050  0.55772911  1
  Se  Se139  1  0.56747383  0.23955026  0.05381250  1
  Se  Se140  1  0.58632144  0.24859563  0.55243335  1
  Se  Se141  1  0.59156971  0.58416901  0.06798727  1
  Se  Se142  1  0.58695320  0.58763767  0.55725885  1
  Se  Se143  1  0.58655786  0.92659512  0.06099581  1
  Se  Se144  1  0.57581406  0.91970159  0.55331426  1
  Se  Se145  1  0.91986163  0.25186383  0.06090603  1
  Se  Se146  1  0.92425184  0.25560084  0.55449324  1
  Se  Se147  1  0.93377299  0.58416539  0.06795677  1
  Se  Se148  1  0.92194822  0.58103778  0.55887877  1
  Se  Se149  1  0.92823661  0.92295903  0.05510925  1
  Se  Se150  1  0.91445942  0.91552120  0.55142367  1
  Se  Se151  1  0.09324647  0.24134155  0.45118977  1
  Se  Se152  1  0.06998751  0.25769787  0.93640901  1
  Se  Se153  1  0.08546004  0.57966975  0.44470207  1
  Se  Se154  1  0.08398392  0.58607011  0.94253757  1
  Se  Se155  1  0.07935556  0.92950257  0.43925161  1
  Se  Se156  1  0.08913575  0.92343685  0.93309239  1
  Se  Se157  1  0.42460093  0.24740648  0.44751276  1
  Se  Se158  1  0.41368735  0.24499363  0.93685166  1
  Se  Se159  1  0.41064233  0.58365271  0.42897655  1
  Se  Se160  1  0.41281871  0.59259729  0.94733052  1
  Se  Se161  1  0.41679242  0.92068943  0.44989285  1
  Se  Se162  1  0.40682137  0.92635246  0.93574277  1
  Se  Se163  1  0.74693967  0.25314614  0.42945873  1
  Se  Se164  1  0.73934880  0.25463577  0.93942278  1
  Se  Se165  1  0.73704532  0.59086554  0.43700905  1
  Se  Se166  1  0.75151398  0.58849849  0.95249538  1
  Se  Se167  1  0.74796602  0.91863653  0.45366823  1
  Se  Se168  1  0.74409356  0.93246399  0.94229924  1
  Se  Se169  1  0.25107968  0.08945609  0.45176078  1
  Se  Se170  1  0.25570223  0.06918408  0.93506353  1
  Se  Se171  1  0.25412959  0.41477893  0.44969486  1
  Se  Se172  1  0.24960722  0.40622824  0.94268965  1
  Se  Se173  1  0.25376550  0.75186884  0.43136645  1
  Se  Se174  1  0.25692020  0.74441004  0.95208245  1
  Se  Se175  1  0.58153916  0.09195327  0.44560774  1
  Se  Se176  1  0.57680102  0.08943420  0.94278771  1
  Se  Se177  1  0.58919676  0.40998468  0.43179640  1
  Se  Se178  1  0.57696079  0.40462112  0.93446823  1
  Se  Se179  1  0.57616999  0.75687649  0.44839528  1
  Se  Se180  1  0.59575105  0.73901653  0.94826687  1
  Se  Se181  1  0.92359732  0.07920052  0.43945349  1
  Se  Se182  1  0.92635918  0.08157290  0.93684827  1
  Se  Se183  1  0.93141928  0.40333964  0.43632130  1
  Se  Se184  1  0.91194164  0.41337275  0.94175990  1
  Se  Se185  1  0.91380166  0.74802502  0.44956173  1
  Se  Se186  1  0.93156842  0.74519574  0.93781513  1
  Se  Se187  1  0.25192092  0.24759738  0.31188301  1
  Se  Se188  1  0.22983171  0.22391921  0.79649013  1
  Se  Se189  1  0.25659390  0.59718583  0.30245511  1
  Se  Se190  1  0.24487548  0.57190418  0.81622113  1
  Se  Se191  1  0.25091077  0.92352052  0.30347540  1
  Se  Se192  1  0.25133791  0.91001147  0.79574429  1
  Se  Se193  1  0.59642760  0.26217393  0.29751244  1
  Se  Se194  1  0.61010720  0.27513880  0.80827891  1
  Se  Se195  1  0.58302738  0.58597922  0.30311425  1
  Se  Se196  1  0.57373315  0.57134428  0.80721513  1
  Se  Se197  1  0.58468136  0.92068361  0.31165776  1
  Se  Se198  1  0.58723004  0.91770211  0.80300151  1
  Se  Se199  1  0.92153347  0.24655608  0.30171180  1
  Se  Se200  1  0.91242158  0.25551352  0.79544167  1
  Se  Se201  1  0.89566450  0.56186982  0.31045709  1
  Se  Se202  1  0.92171043  0.58623345  0.80047406  1
  Se  Se203  1  0.91721407  0.91957696  0.30750286  1
  Se  Se204  1  0.91880640  0.91497019  0.79504157  1
  Se  Se205  1  0.08282915  0.08245487  0.30525836  1
  Se  Se206  1  0.06397735  0.06985211  0.79093779  1
  Se  Se207  1  0.09234551  0.41332620  0.30750517  1
  Se  Se208  1  0.08347284  0.41672719  0.80282744  1
  Se  Se209  1  0.07764991  0.75531801  0.30765274  1
  Se  Se210  1  0.08683767  0.74342800  0.79473403  1
  Se  Se211  1  0.42111469  0.08769478  0.30592065  1
  Se  Se212  1  0.42840150  0.09462103  0.79806467  1
  Se  Se213  1  0.41238250  0.41396462  0.30463490  1
  Se  Se214  1  0.40570345  0.41213917  0.79653822  1
  Se  Se215  1  0.41752660  0.75429242  0.30342418  1
  Se  Se216  1  0.42287193  0.75564988  0.80288323  1
  Se  Se217  1  0.75171109  0.07721031  0.30447328  1
  Se  Se218  1  0.75344988  0.08427217  0.79970614  1
  Se  Se219  1  0.74004741  0.40290739  0.29188793  1
  Se  Se220  1  0.74936031  0.42779231  0.80152509  1
  Se  Se221  1  0.75026328  0.75654173  0.31076265  1
  Se  Se222  1  0.76000893  0.75921526  0.81119097  1
  Se  Se223  1  0.24843012  0.08367884  0.20060991  1
  Se  Se224  1  0.24801164  0.08815267  0.70039358  1
  Se  Se225  1  0.21890208  0.43951166  0.20461157  1
  Se  Se226  1  0.25282933  0.41736105  0.69375043  1
  Se  Se227  1  0.24975910  0.75855925  0.20239545  1
  Se  Se228  1  0.24894923  0.75308407  0.67856469  1
  Se  Se229  1  0.59757746  0.07267527  0.20320117  1
  Se  Se230  1  0.57864831  0.08573383  0.70267108  1
  Se  Se231  1  0.57058988  0.41905311  0.19541329  1
  Se  Se232  1  0.58846496  0.41303534  0.69366059  1
  Se  Se233  1  0.58881644  0.75046388  0.20378288  1
  Se  Se234  1  0.57851667  0.75022637  0.68689627  1
  Se  Se235  1  0.92255933  0.07492955  0.19902165  1
  Se  Se236  1  0.90908161  0.08691267  0.68611171  1
  Se  Se237  1  0.90952636  0.41915020  0.20588673  1
  Se  Se238  1  0.91469488  0.41746373  0.69384912  1
  Se  Se239  1  0.92048758  0.75188926  0.20479279  1
  Se  Se240  1  0.91710940  0.74313920  0.69833666  1
  Se  Se241  1  0.08388247  0.24973030  0.20032878  1
  Se  Se242  1  0.06845632  0.27028947  0.69382616  1
  Se  Se243  1  0.06664696  0.60048414  0.21058441  1
  Se  Se244  1  0.08544240  0.58297291  0.69570931  1
  Se  Se245  1  0.08374103  0.92010209  0.19746904  1
  Se  Se246  1  0.08477403  0.91395462  0.68763023  1
  Se  Se247  1  0.39015354  0.27596280  0.19767304  1
  Se  Se248  1  0.41789140  0.25173432  0.70352651  1
  Se  Se249  1  0.41055053  0.58714738  0.20503300  1
  Se  Se250  1  0.41906318  0.57303416  0.68752806  1
  Se  Se251  1  0.41844281  0.91654783  0.20061366  1
  Se  Se252  1  0.41407635  0.91766758  0.69400344  1
  Se  Se253  1  0.75927429  0.23627655  0.19243549  1
  Se  Se254  1  0.74708152  0.25417427  0.69010076  1
  Se  Se255  1  0.73736413  0.59802165  0.20656048  1
  Se  Se256  1  0.75239789  0.57835902  0.68443713  1
  Se  Se257  1  0.75090926  0.91806888  0.19893903  1
  Se  Se258  1  0.74566621  0.91024114  0.69743346  1
