# generated using pymatgen
data_In86Cu29Se144
_symmetry_space_group_name_H-M   'P 1'
_cell_length_a   17.59411393
_cell_length_b   17.59037780
_cell_length_c   23.45548647
_cell_angle_alpha   90.00221677
_cell_angle_beta   89.99843107
_cell_angle_gamma   90.00613583
_symmetry_Int_Tables_number   1
_chemical_formula_structural   In86Cu29Se144
_chemical_formula_sum   'In86 Cu29 Se144'
_cell_volume   7259.17069662
_cell_formula_units_Z   1
loop_
 _symmetry_equiv_pos_site_id
 _symmetry_equiv_pos_as_xyz
  1  'x, y, z'
loop_
 _atom_site_type_symbol
 _atom_site_label
 _atom_site_symmetry_multiplicity
 _atom_site_fract_x
 _atom_site_fract_y
 _atom_site_fract_z
 _atom_site_occupancy
  In  In0  1  0.00603942  0.16319061  0.12124714  1
  In  In1  1  0.01179639  0.17358754  0.62573881  1
  In  In2  1  -0.00139621  0.51353493  0.13027315  1
  In  In3  1  -0.00372771  0.50690114  0.62946732  1
  In  In4  1  -0.00287577  0.82194466  0.11581764  1
  In  In5  1  -0.01220229  0.81493918  0.61816666  1
  In  In6  1  0.32996348  0.17634234  0.12500116  1
  In  In7  1  0.33953479  0.15897956  0.62827617  1
  In  In8  1  0.31438184  0.50942143  0.15076738  1
  In  In9  1  0.33936772  0.49402957  0.63130484  1
  In  In10  1  0.32143071  0.82954185  0.12343304  1
  In  In11  1  0.33680913  0.83509851  0.62492384  1
  In  In12  1  0.66837520  0.17420426  0.14224719  1
  In  In13  1  0.66276408  0.19039338  0.61905862  1
  In  In14  1  0.67213366  0.47785081  0.13492794  1
  In  In15  1  0.65466798  0.47603476  0.60042937  1
  In  In16  1  0.68156634  0.82877812  0.13514998  1
  In  In17  1  0.66360517  0.82632564  0.61702352  1
  In  In18  1  0.15776415  -0.01019706  0.37776196  1
  In  In19  1  0.17139649  -0.00498110  0.87901971  1
  In  In20  1  0.17784907  0.34769427  0.35361490  1
  In  In21  1  0.15990961  0.33091442  0.87510766  1
  In  In22  1  0.17372354  0.66522591  0.36669392  1
  In  In23  1  0.16900725  0.66882323  0.87047576  1
  In  In24  1  0.51249303  -0.00971549  0.38556005  1
  In  In25  1  0.49500902  0.00760002  0.86839868  1
  In  In26  1  0.49899347  0.33759067  0.38511281  1
  In  In27  1  0.50028936  0.33584666  0.86366355  1
  In  In28  1  0.49485908  0.67024677  0.38517375  1
  In  In29  1  0.48647201  0.67268216  0.86819355  1
  In  In30  1  0.82116624  0.00405668  0.37284556  1
  In  In31  1  0.82634271  -0.01481049  0.87728442  1
  In  In32  1  0.83605150  0.33674226  0.36541521  1
  In  In33  1  0.84585817  0.35120892  0.86443768  1
  In  In34  1  0.84215405  0.65674848  0.37843766  1
  In  In35  1  0.84898203  0.65118717  0.88982216  1
  In  In36  1  -0.01180796  0.18290495  0.37137548  1
  In  In37  1  0.00056763  0.19062492  0.88172431  1
  In  In38  1  -0.00453450  0.48998960  0.35944811  1
  In  In39  1  -0.00484868  0.49639344  0.87474795  1
  In  In40  1  0.01053162  0.81984748  0.38143191  1
  In  In41  1  0.01081786  0.82033471  0.88313956  1
  In  In42  1  0.33982514  0.18272772  0.37730380  1
  In  In43  1  0.32762821  0.16375880  0.86828785  1
  In  In44  1  0.34577955  0.51202895  0.35958566  1
  In  In45  1  0.33244592  0.50174170  0.86425393  1
  In  In46  1  0.33886963  0.82470538  0.38390864  1
  In  In47  1  0.31428938  0.81840327  0.85562576  1
  In  In48  1  0.66679413  0.16354826  0.37392854  1
  In  In49  1  0.65287282  0.16984817  0.87405984  1
  In  In50  1  0.67110811  0.49034112  0.38739855  1
  In  In51  1  0.68123554  0.50231324  0.87568207  1
  In  In52  1  0.66277478  0.83820901  0.38167001  1
  In  In53  1  0.67135674  0.83651828  0.87503965  1
  In  In54  1  0.15569882  -0.01140260  0.10908665  1
  In  In55  1  0.18459920  -0.00455090  0.62835369  1
  In  In56  1  0.16907832  0.33125009  0.12720786  1
  In  In57  1  0.16400443  0.33871965  0.63375134  1
  In  In58  1  0.15855981  0.67741344  0.13307470  1
  In  In59  1  0.15894708  0.67423468  0.63136637  1
  In  In60  1  0.50444337  0.01298750  0.13201703  1
  In  In61  1  0.49036965  -0.00864566  0.61592839  1
  In  In62  1  0.49867891  0.33847585  0.13905048  1
  In  In63  1  0.49877060  0.33253826  0.61818135  1
  In  In64  1  0.49024802  0.65126868  0.13452888  1
  In  In65  1  0.49683914  0.66219491  0.62147164  1
  In  In66  1  0.83809094  -0.00847924  0.12926480  1
  In  In67  1  0.83760476  -0.01038877  0.62394670  1
  In  In68  1  0.82981318  0.33907060  0.12868584  1
  In  In69  1  0.82700542  0.34496830  0.62992776  1
  In  In70  1  0.84841520  0.67304755  0.11934422  1
  In  In71  1  0.83268787  0.66041322  0.62052136  1
  In  In72  1  0.66113964  0.00394605  0.74889695  1
  In  In73  1  0.66644712  0.66386700  0.26220904  1
  In  In74  1  0.16812348  0.50289103  0.49387116  1
  In  In75  1  0.00330425  0.00476508  0.75037759  1
  In  In76  1  0.83379431  0.16749736  0.49369642  1
  In  In77  1  0.50165168  0.83367962  -0.00797932  1
  In  In78  1  -0.00493012  0.00552988  0.24333676  1
  In  In79  1  0.16169585  0.50506545  0.00629924  1
  In  In80  1  0.66443505  0.66125126  0.74346672  1
  In  In81  1  0.49525667  0.16846776  0.00086164  1
  In  In82  1  0.16737103  0.16429543  0.49577499  1
  In  In83  1  0.50422215  0.49518287  0.01076475  1
  In  In84  1  0.83222284  0.16430958  0.00125963  1
  In  In85  1  0.33636870  0.00206831  0.24762103  1
  Cu  Cu86  1  -0.00141322  0.33702403  0.49165613  1
  Cu  Cu87  1  0.33659235  -0.00344348  0.50304053  1
  Cu  Cu88  1  0.33183205  0.66904382  -0.00464591  1
  Cu  Cu89  1  0.83692362  0.82044721  0.75026524  1
  Cu  Cu90  1  0.67646759  0.66540984  0.00504592  1
  Cu  Cu91  1  0.83193706  0.49853154  0.74926814  1
  Cu  Cu92  1  0.16776105  0.50617223  0.75154896  1
  Cu  Cu93  1  0.00086032  -0.01319889  0.50179150  1
  Cu  Cu94  1  0.84007319  0.83765539  0.24948409  1
  Cu  Cu95  1  0.16949853  0.82518230  0.24965163  1
  Cu  Cu96  1  0.33599573  0.33534643  0.50312863  1
  Cu  Cu97  1  0.49868407  0.17436551  0.74362908  1
  Cu  Cu98  1  0.83333668  0.50733020  0.25031855  1
  Cu  Cu99  1  0.67166254  0.33114850  0.00330738  1
  Cu  Cu100  1  0.67037247  0.66883742  0.49751119  1
  Cu  Cu101  1  0.49837223  0.83093525  0.26089908  1
  Cu  Cu102  1  0.83079648  0.17537467  0.75025817  1
  Cu  Cu103  1  0.00099881  -0.00060495  -0.00123589  1
  Cu  Cu104  1  0.16538583  0.17857705  0.75309444  1
  Cu  Cu105  1  0.32956397  0.33673323  0.00477642  1
  Cu  Cu106  1  0.50852380  0.16444861  0.25846908  1
  Cu  Cu107  1  0.67025608  -0.00979186  0.00742529  1
  Cu  Cu108  1  0.32864210  0.66718688  0.50114292  1
  Cu  Cu109  1  0.66839584  0.00265706  0.49983914  1
  Cu  Cu110  1  0.16417726  0.83638436  0.74943887  1
  Cu  Cu111  1  -0.00379316  0.66225751  0.49992088  1
  Cu  Cu112  1  0.16566157  0.16285203  0.24521830  1
  Cu  Cu113  1  0.32475192  -0.00232899  -0.00803154  1
  Cu  Cu114  1  0.50099947  0.49881133  0.74018100  1
  Se  Se115  1  0.08454292  0.08724373  0.04650794  1
  Se  Se116  1  0.07972998  0.07190514  0.55916863  1
  Se  Se117  1  0.07503281  0.41172781  0.06271032  1
  Se  Se118  1  0.07877268  0.41226825  0.55602518  1
  Se  Se119  1  0.09359692  0.75127063  0.05262731  1
  Se  Se120  1  0.08321598  0.74431667  0.55148838  1
  Se  Se121  1  0.40512495  0.07154268  0.05715531  1
  Se  Se122  1  0.41702576  0.08773522  0.55056362  1
  Se  Se123  1  0.40483966  0.41491760  0.06802803  1
  Se  Se124  1  0.41630128  0.42430040  0.55328880  1
  Se  Se125  1  0.41735869  0.74212512  0.05739018  1
  Se  Se126  1  0.41468494  0.74842160  0.55453735  1
  Se  Se127  1  0.73988369  0.08101574  0.06534428  1
  Se  Se128  1  0.74761656  0.08064441  0.56280799  1
  Se  Se129  1  0.75198609  0.41895632  0.05348179  1
  Se  Se130  1  0.76750745  0.41679571  0.54628648  1
  Se  Se131  1  0.75303750  0.75428959  0.05772449  1
  Se  Se132  1  0.75475238  0.74960510  0.55280583  1
  Se  Se133  1  0.24669208  0.24847124  0.05221389  1
  Se  Se134  1  0.24972566  0.25627260  0.56039585  1
  Se  Se135  1  0.26048763  0.58947205  0.06273353  1
  Se  Se136  1  0.25117711  0.58684000  0.56328085  1
  Se  Se137  1  0.25003236  0.90912379  0.04771978  1
  Se  Se138  1  0.25023573  0.91292930  0.55206586  1
  Se  Se139  1  0.58629243  0.25559147  0.06237692  1
  Se  Se140  1  0.58450914  0.26059000  0.54465626  1
  Se  Se141  1  0.59519145  0.58907902  0.06704707  1
  Se  Se142  1  0.58399178  0.58760193  0.55095380  1
  Se  Se143  1  0.58388582  0.91569004  0.06574329  1
  Se  Se144  1  0.58546675  0.91679855  0.55217289  1
  Se  Se145  1  0.91920386  0.25627897  0.05875275  1
  Se  Se146  1  0.92568937  0.25482061  0.55594574  1
  Se  Se147  1  0.92759480  0.58961360  0.05231451  1
  Se  Se148  1  0.91601962  0.57583790  0.55226870  1
  Se  Se149  1  0.91765506  0.91947902  0.05505689  1
  Se  Se150  1  0.91160810  0.90789244  0.55197406  1
  Se  Se151  1  0.08729852  0.26192406  0.43458513  1
  Se  Se152  1  0.08719172  0.25790409  0.95307283  1
  Se  Se153  1  0.07299253  0.58540176  0.43428590  1
  Se  Se154  1  0.07801045  0.59206805  0.94025627  1
  Se  Se155  1  0.08920700  0.90613287  0.45165941  1
  Se  Se156  1  0.08576548  0.91568533  0.94653729  1
  Se  Se157  1  0.41958250  0.24719420  0.45532851  1
  Se  Se158  1  0.41098078  0.26203979  0.94032393  1
  Se  Se159  1  0.40729859  0.58074030  0.44613279  1
  Se  Se160  1  0.41449422  0.58275858  0.94346115  1
  Se  Se161  1  0.41996371  0.91196461  0.44947544  1
  Se  Se162  1  0.40836937  0.92032296  0.93336877  1
  Se  Se163  1  0.74620190  0.26170278  0.43981215  1
  Se  Se164  1  0.74460183  0.25229141  0.93791530  1
  Se  Se165  1  0.75401530  0.58328104  0.44788283  1
  Se  Se166  1  0.75408454  0.57524302  0.95379125  1
  Se  Se167  1  0.75271272  0.91981017  0.44745286  1
  Se  Se168  1  0.75032919  0.90802650  0.95240325  1
  Se  Se169  1  0.25992698  0.07327545  0.43659461  1
  Se  Se170  1  0.24764634  0.09040824  0.94344176  1
  Se  Se171  1  0.25701404  0.40948589  0.43832620  1
  Se  Se172  1  0.25706761  0.42113028  0.94237888  1
  Se  Se173  1  0.24356251  0.74483847  0.44458774  1
  Se  Se174  1  0.25064076  0.75176012  0.94135279  1
  Se  Se175  1  0.58583872  0.08775041  0.44848615  1
  Se  Se176  1  0.58964215  0.07006766  0.94705245  1
  Se  Se177  1  0.57812483  0.42101383  0.45519553  1
  Se  Se178  1  0.58828607  0.40861618  0.94188092  1
  Se  Se179  1  0.58254444  0.75325183  0.44952216  1
  Se  Se180  1  0.59248968  0.73350040  0.93950587  1
  Se  Se181  1  0.93085688  0.07465375  0.44006561  1
  Se  Se182  1  0.92078519  0.07584953  0.93587846  1
  Se  Se183  1  0.91686151  0.41877498  0.43735564  1
  Se  Se184  1  0.91456044  0.41649196  0.94572883  1
  Se  Se185  1  0.91449337  0.74930327  0.44731717  1
  Se  Se186  1  0.89886701  0.76914467  0.94211091  1
  Se  Se187  1  0.25167555  0.24012570  0.30054891  1
  Se  Se188  1  0.25222329  0.25972633  0.80558507  1
  Se  Se189  1  0.23084144  0.56122879  0.30219777  1
  Se  Se190  1  0.25423269  0.59196061  0.79979348  1
  Se  Se191  1  0.24709119  0.91026049  0.30781588  1
  Se  Se192  1  0.24599517  0.92618006  0.79847348  1
  Se  Se193  1  0.58136815  0.25423906  0.31345712  1
  Se  Se194  1  0.58607983  0.25210287  0.79804328  1
  Se  Se195  1  0.57733245  0.57561303  0.32030242  1
  Se  Se196  1  0.57498343  0.57322364  0.81039803  1
  Se  Se197  1  0.58559535  0.91647257  0.30627489  1
  Se  Se198  1  0.57499972  0.90739306  0.80646123  1
  Se  Se199  1  0.92193843  0.26065744  0.29512261  1
  Se  Se200  1  0.91949454  0.25293314  0.80221441  1
  Se  Se201  1  0.92053622  0.59128725  0.29888334  1
  Se  Se202  1  0.91298992  0.58180287  0.80511388  1
  Se  Se203  1  0.91978360  0.91446364  0.31356109  1
  Se  Se204  1  0.91440523  0.90854798  0.80622398  1
  Se  Se205  1  0.08704730  0.08905287  0.31022656  1
  Se  Se206  1  0.08658496  0.09571813  0.81411599  1
  Se  Se207  1  0.07480154  0.40679417  0.29135835  1
  Se  Se208  1  0.08624830  0.42207844  0.80693105  1
  Se  Se209  1  0.08162279  0.74626509  0.30198708  1
  Se  Se210  1  0.08191601  0.75053234  0.80191108  1
  Se  Se211  1  0.42430970  0.08306116  0.31531609  1
  Se  Se212  1  0.41745976  0.08984170  0.79875693  1
  Se  Se213  1  0.39894498  0.39100546  0.31377045  1
  Se  Se214  1  0.41650724  0.41831269  0.79771260  1
  Se  Se215  1  0.41425512  0.74572560  0.30902864  1
  Se  Se216  1  0.42061577  0.75767759  0.79606098  1
  Se  Se217  1  0.76282575  0.09962847  0.30444414  1
  Se  Se218  1  0.75700393  0.09013299  0.81075811  1
  Se  Se219  1  0.74864124  0.42707160  0.30481073  1
  Se  Se220  1  0.74354422  0.41559914  0.79979255  1
  Se  Se221  1  0.76063578  0.75958023  0.31333083  1
  Se  Se222  1  0.75350194  0.74413035  0.81045695  1
  Se  Se223  1  0.23782561  0.07786464  0.18392127  1
  Se  Se224  1  0.24410725  0.09262508  0.69787579  1
  Se  Se225  1  0.26893498  0.38680329  0.19720969  1
  Se  Se226  1  0.24971033  0.41933700  0.69983264  1
  Se  Se227  1  0.25909914  0.74468534  0.19988734  1
  Se  Se228  1  0.24934239  0.75513540  0.69472128  1
  Se  Se229  1  0.59035329  0.07946139  0.20527002  1
  Se  Se230  1  0.57873455  0.09282288  0.68349717  1
  Se  Se231  1  0.56600651  0.43675028  0.20249478  1
  Se  Se232  1  0.58434147  0.41650863  0.68706952  1
  Se  Se233  1  0.57648127  0.75180028  0.19589882  1
  Se  Se234  1  0.57483916  0.75856732  0.69164400  1
  Se  Se235  1  0.90251981  0.10006261  0.19100533  1
  Se  Se236  1  0.90811258  0.09320615  0.68953832  1
  Se  Se237  1  0.91435235  0.42498229  0.19410112  1
  Se  Se238  1  0.92028248  0.41634633  0.69755066  1
  Se  Se239  1  0.92101931  0.75322551  0.19601367  1
  Se  Se240  1  0.91559041  0.73666155  0.69487586  1
  Se  Se241  1  0.08239472  0.24571592  0.19281326  1
  Se  Se242  1  0.07743684  0.25753705  0.70109522  1
  Se  Se243  1  0.10776436  0.56623956  0.19364529  1
  Se  Se244  1  0.08075104  0.58599622  0.69848085  1
  Se  Se245  1  0.08876252  0.90904030  0.19133028  1
  Se  Se246  1  0.08157485  0.91054370  0.68549857  1
  Se  Se247  1  0.42429495  0.23551773  0.19631616  1
  Se  Se248  1  0.41380980  0.25642485  0.69063792  1
  Se  Se249  1  0.41772604  0.57768335  0.21013363  1
  Se  Se250  1  0.41604964  0.58806757  0.69623715  1
  Se  Se251  1  0.42529918  0.90629551  0.19014465  1
  Se  Se252  1  0.40546274  0.93144916  0.69233595  1
  Se  Se253  1  0.73172108  0.27974460  0.19893062  1
  Se  Se254  1  0.74741720  0.25488169  0.69552980  1
  Se  Se255  1  0.75306292  0.58768093  0.18927360  1
  Se  Se256  1  0.74704520  0.56650522  0.68387104  1
  Se  Se257  1  0.75156906  0.92182780  0.20326396  1
  Se  Se258  1  0.75419361  0.90482650  0.69522631  1
