# generated using pymatgen
data_In86Cu29Se144
_symmetry_space_group_name_H-M   'P 1'
_cell_length_a   17.57731091
_cell_length_b   17.58169061
_cell_length_c   23.43837795
_cell_angle_alpha   90.00018565
_cell_angle_beta   89.98942705
_cell_angle_gamma   89.98349005
_symmetry_Int_Tables_number   1
_chemical_formula_structural   In86Cu29Se144
_chemical_formula_sum   'In86 Cu29 Se144'
_cell_volume   7243.36876181
_cell_formula_units_Z   1
loop_
 _symmetry_equiv_pos_site_id
 _symmetry_equiv_pos_as_xyz
  1  'x, y, z'
loop_
 _atom_site_type_symbol
 _atom_site_label
 _atom_site_symmetry_multiplicity
 _atom_site_fract_x
 _atom_site_fract_y
 _atom_site_fract_z
 _atom_site_occupancy
  In  In0  1  0.01573148  0.17734734  0.11709960  1
  In  In1  1  0.00495268  0.15381538  0.63053541  1
  In  In2  1  0.00449600  0.49623983  0.12731477  1
  In  In3  1  0.01033080  0.50093184  0.62972927  1
  In  In4  1  0.00454066  0.81630822  0.12135816  1
  In  In5  1  0.01564884  0.82077281  0.63418169  1
  In  In6  1  0.34099142  0.17405236  0.11964397  1
  In  In7  1  0.31379636  0.14768113  0.60794869  1
  In  In8  1  0.33432714  0.50322986  0.12632998  1
  In  In9  1  0.32852885  0.51403320  0.63020227  1
  In  In10  1  0.31946267  0.82256349  0.11683254  1
  In  In11  1  0.32722593  0.83018615  0.62522319  1
  In  In12  1  0.65027945  0.15834503  0.11203408  1
  In  In13  1  0.65901665  0.17177628  0.62546026  1
  In  In14  1  0.64826787  0.50305250  0.11142870  1
  In  In15  1  0.66837845  0.50460338  0.63289892  1
  In  In16  1  0.66283540  0.84263142  0.12291328  1
  In  In17  1  0.64775584  0.83434909  0.62822108  1
  In  In18  1  0.18604092  -0.00665682  0.39292512  1
  In  In19  1  0.16885572  -0.00387767  0.87381816  1
  In  In20  1  0.17062775  0.33728860  0.37231100  1
  In  In21  1  0.16234273  0.33935885  0.88360641  1
  In  In22  1  0.16874755  0.66503000  0.37427908  1
  In  In23  1  0.17129010  0.66417795  0.87360694  1
  In  In24  1  0.50047830  -0.00789502  0.37824770  1
  In  In25  1  0.49023916  0.00770661  0.87763002  1
  In  In26  1  0.48096819  0.33412236  0.36558711  1
  In  In27  1  0.49932532  0.33385738  0.88848160  1
  In  In28  1  0.49745454  0.67465334  0.37256791  1
  In  In29  1  0.49569106  0.66994890  0.88074301  1
  In  In30  1  0.83165838  0.01143971  0.37255570  1
  In  In31  1  0.84775533  0.00130207  0.87595486  1
  In  In32  1  0.84225825  0.32132325  0.36708728  1
  In  In33  1  0.82043355  0.33368423  0.88487525  1
  In  In34  1  0.83716442  0.65239943  0.37630923  1
  In  In35  1  0.84382379  0.66543577  0.86288155  1
  In  In36  1  0.00739965  0.17635671  0.36992825  1
  In  In37  1  0.01183341  0.15682598  0.88416801  1
  In  In38  1  0.01270865  0.51320461  0.36378233  1
  In  In39  1  0.01051312  0.51961316  0.87065901  1
  In  In40  1  0.01972382  0.83608173  0.37570711  1
  In  In41  1  0.00767511  0.83608698  0.87048957  1
  In  In42  1  0.32530338  0.17380185  0.38049807  1
  In  In43  1  0.34057188  0.15855647  0.87908466  1
  In  In44  1  0.32499917  0.48687595  0.36140277  1
  In  In45  1  0.31629016  0.51810180  0.88423810  1
  In  In46  1  0.34364458  0.82789276  0.38280888  1
  In  In47  1  0.33199211  0.83327494  0.87411033  1
  In  In48  1  0.66944470  0.15071843  0.36686747  1
  In  In49  1  0.66026656  0.17921551  0.89147986  1
  In  In50  1  0.66225539  0.51351394  0.37199983  1
  In  In51  1  0.65880129  0.50452517  0.88122613  1
  In  In52  1  0.64649903  0.82869469  0.37378776  1
  In  In53  1  0.66119821  0.81339167  0.87933157  1
  In  In54  1  0.16878344  -0.00151970  0.11853489  1
  In  In55  1  0.17255080  -0.00654656  0.62678557  1
  In  In56  1  0.16818868  0.33546376  0.12653856  1
  In  In57  1  0.17014199  0.33853339  0.61809431  1
  In  In58  1  0.16745870  0.66503148  0.12215662  1
  In  In59  1  0.16609799  0.66616336  0.62614944  1
  In  In60  1  0.50004232  0.00474641  0.12036043  1
  In  In61  1  0.46411677  -0.02606102  0.59902431  1
  In  In62  1  0.49450687  0.32787041  0.12039412  1
  In  In63  1  0.50042902  0.31641793  0.62228242  1
  In  In64  1  0.48007722  0.65123720  0.10294014  1
  In  In65  1  0.48137509  0.67833181  0.63873804  1
  In  In66  1  0.81595992  -0.00471891  0.12667848  1
  In  In67  1  0.84080278  0.01178683  0.63208706  1
  In  In68  1  0.85039601  0.33772755  0.12317817  1
  In  In69  1  0.83436738  0.32214096  0.62607037  1
  In  In70  1  0.83916506  0.66667049  0.12655910  1
  In  In71  1  0.83729391  0.65839732  0.64495443  1
  In  In72  1  0.66319974  0.00025462  0.75258583  1
  In  In73  1  0.33454189  0.00083505  0.25745545  1
  In  In74  1  -0.00393533  0.34149947  0.75322438  1
  In  In75  1  0.67276315  0.33294694  0.23435079  1
  In  In76  1  0.66058100  0.67144682  0.24119859  1
  In  In77  1  0.33215008  0.33761077  0.75458491  1
  In  In78  1  0.83178365  0.83284380  0.50712840  1
  In  In79  1  0.84204442  0.49489848  0.50835663  1
  In  In80  1  0.00183389  0.00076198  0.25430053  1
  In  In81  1  0.49082875  0.49978471  0.49969175  1
  In  In82  1  0.83797297  0.50131814  -0.00062714  1
  In  In83  1  0.83616039  0.83530543  -0.00564666  1
  In  In84  1  0.66077122  0.34132494  0.76573890  1
  In  In85  1  0.83715731  0.16547041  0.50442004  1
  Cu  Cu86  1  0.83546604  0.16679105  0.75920055  1
  Cu  Cu87  1  0.49478888  0.83656879  0.24951321  1
  Cu  Cu88  1  0.01237616  0.33860531  0.49155585  1
  Cu  Cu89  1  0.83875625  0.16289018  0.24444468  1
  Cu  Cu90  1  0.33042867  0.33624517  0.49363509  1
  Cu  Cu91  1  0.01086472  -0.00233734  0.50567970  1
  Cu  Cu92  1  0.17068589  0.17042726  0.25169029  1
  Cu  Cu93  1  0.00451017  0.33326986  0.00087147  1
  Cu  Cu94  1  0.33001307  0.33589477  0.00351038  1
  Cu  Cu95  1  0.17119797  0.83276717  0.75088258  1
  Cu  Cu96  1  0.01062116  0.67329046  0.49960390  1
  Cu  Cu97  1  0.33126119  -0.00365622  -0.00279025  1
  Cu  Cu98  1  0.49349314  0.82936876  0.75076853  1
  Cu  Cu99  1  0.00087981  0.00233447  -0.00047892  1
  Cu  Cu100  1  0.16669196  0.81970046  0.24854244  1
  Cu  Cu101  1  0.33169671  0.66685611  -0.00289946  1
  Cu  Cu102  1  0.49909040  0.50367708  0.75806860  1
  Cu  Cu103  1  0.66019209  0.33254578  0.49476490  1
  Cu  Cu104  1  0.65781718  0.67008350  0.50811376  1
  Cu  Cu105  1  0.50360568  0.16875375  0.24221327  1
  Cu  Cu106  1  0.83474924  0.83703794  0.75608823  1
  Cu  Cu107  1  0.32709120  0.66678827  0.50261496  1
  Cu  Cu108  1  0.16760866  0.16234505  0.75138233  1
  Cu  Cu109  1  0.83589734  0.49670151  0.24743373  1
  Cu  Cu110  1  0.16694222  0.50057798  0.24616224  1
  Cu  Cu111  1  0.65869951  -0.00414272  0.49549847  1
  Cu  Cu112  1  0.66007982  0.00023938  -0.00077599  1
  Cu  Cu113  1  0.49132530  0.15573491  0.74749954  1
  Cu  Cu114  1  0.83145467  0.82756895  0.24692010  1
  Se  Se115  1  0.08841145  0.08390399  0.05098938  1
  Se  Se116  1  0.09019461  0.08419600  0.55869520  1
  Se  Se117  1  0.08532364  0.41752459  0.05545258  1
  Se  Se118  1  0.08329741  0.42301050  0.55326513  1
  Se  Se119  1  0.09695839  0.75663863  0.05135021  1
  Se  Se120  1  0.09242030  0.75609418  0.55346039  1
  Se  Se121  1  0.41314034  0.08207474  0.05162444  1
  Se  Se122  1  0.43985113  0.10831443  0.56088722  1
  Se  Se123  1  0.41569963  0.41895359  0.05515029  1
  Se  Se124  1  0.40589201  0.40851118  0.56402315  1
  Se  Se125  1  0.41357325  0.75843942  0.04554955  1
  Se  Se126  1  0.41427786  0.74697000  0.55549812  1
  Se  Se127  1  0.74838314  0.07898182  0.05178529  1
  Se  Se128  1  0.74029298  0.07196531  0.55803861  1
  Se  Se129  1  0.74792572  0.41208154  0.05991509  1
  Se  Se130  1  0.73869040  0.40464896  0.55969467  1
  Se  Se131  1  0.74966741  0.74873772  0.05983889  1
  Se  Se132  1  0.74505805  0.74127117  0.56816715  1
  Se  Se133  1  0.24714566  0.25007369  0.05575676  1
  Se  Se134  1  0.24664380  0.25352725  0.54882746  1
  Se  Se135  1  0.25197009  0.58229940  0.05380238  1
  Se  Se136  1  0.24588118  0.58077824  0.55424702  1
  Se  Se137  1  0.24542557  0.91373722  0.04884087  1
  Se  Se138  1  0.26514604  0.92763230  0.55577706  1
  Se  Se139  1  0.58363434  0.25758063  0.04994319  1
  Se  Se140  1  0.58298314  0.24483119  0.54768650  1
  Se  Se141  1  0.59440285  0.60214554  0.04302719  1
  Se  Se142  1  0.57732695  0.58662727  0.56563936  1
  Se  Se143  1  0.57764467  0.91611589  0.05122499  1
  Se  Se144  1  0.57944518  0.90872639  0.54832740  1
  Se  Se145  1  0.91945666  0.24925958  0.05116896  1
  Se  Se146  1  0.93503951  0.25882682  0.55641447  1
  Se  Se147  1  0.92978023  0.59249394  0.05626508  1
  Se  Se148  1  0.92414557  0.59845395  0.56016740  1
  Se  Se149  1  0.92205442  0.92255107  0.06249825  1
  Se  Se150  1  0.92507278  0.92250579  0.56496185  1
  Se  Se151  1  0.09120777  0.24836059  0.44206466  1
  Se  Se152  1  0.08896267  0.24697606  0.95032822  1
  Se  Se153  1  0.08416868  0.58257888  0.44495346  1
  Se  Se154  1  0.09230637  0.58230749  0.94663016  1
  Se  Se155  1  0.09099529  0.91166454  0.45275580  1
  Se  Se156  1  0.08167429  0.91804981  0.94480808  1
  Se  Se157  1  0.41881288  0.25457928  0.44474468  1
  Se  Se158  1  0.41131853  0.24889230  0.95001821  1
  Se  Se159  1  0.40486953  0.58807102  0.43737387  1
  Se  Se160  1  0.41902220  0.57890375  0.94958904  1
  Se  Se161  1  0.40706786  0.92784515  0.44771610  1
  Se  Se162  1  0.41683662  0.91481931  0.94423522  1
  Se  Se163  1  0.74636237  0.25251896  0.43895658  1
  Se  Se164  1  0.75684532  0.24532327  0.95685497  1
  Se  Se165  1  0.74156777  0.58731139  0.45251492  1
  Se  Se166  1  0.75398963  0.59526569  0.93914949  1
  Se  Se167  1  0.74611038  0.91904047  0.43822542  1
  Se  Se168  1  0.74077894  0.92452394  0.93546567  1
  Se  Se169  1  0.25784087  0.08857960  0.45448744  1
  Se  Se170  1  0.24832793  0.08158002  0.94424390  1
  Se  Se171  1  0.24885819  0.42336573  0.44343168  1
  Se  Se172  1  0.24762636  0.42031573  0.95030170  1
  Se  Se173  1  0.24802746  0.74996629  0.44456723  1
  Se  Se174  1  0.24945461  0.75156348  0.94378642  1
  Se  Se175  1  0.58402368  0.08464475  0.44092767  1
  Se  Se176  1  0.57527297  0.08527395  0.94810482  1
  Se  Se177  1  0.58483800  0.41531552  0.43557109  1
  Se  Se178  1  0.60198806  0.40258895  0.94722439  1
  Se  Se179  1  0.57636838  0.74786478  0.44962891  1
  Se  Se180  1  0.58172294  0.74398680  0.95410925  1
  Se  Se181  1  0.93098213  0.07683379  0.44353513  1
  Se  Se182  1  0.91399784  0.08660615  0.95082026  1
  Se  Se183  1  0.92292790  0.41328490  0.43531061  1
  Se  Se184  1  0.93008559  0.41436337  0.93663839  1
  Se  Se185  1  0.92083725  0.74627537  0.44132484  1
  Se  Se186  1  0.92664553  0.74317282  0.93938990  1
  Se  Se187  1  0.25563702  0.25392099  0.30358277  1
  Se  Se188  1  0.24190122  0.24494145  0.81337473  1
  Se  Se189  1  0.24842456  0.58495438  0.30159668  1
  Se  Se190  1  0.25574493  0.58779462  0.80076123  1
  Se  Se191  1  0.24214851  0.90479560  0.30978657  1
  Se  Se192  1  0.25370312  0.91862984  0.80268784  1
  Se  Se193  1  0.58663199  0.24841450  0.30389742  1
  Se  Se194  1  0.56780050  0.23821344  0.80972506  1
  Se  Se195  1  0.56993789  0.57928722  0.30070199  1
  Se  Se196  1  0.58162408  0.58731846  0.81039721  1
  Se  Se197  1  0.58052217  0.91839769  0.30148419  1
  Se  Se198  1  0.57575810  0.90781001  0.81248579  1
  Se  Se199  1  0.92382394  0.24627203  0.29467635  1
  Se  Se200  1  0.91402190  0.24880924  0.81768951  1
  Se  Se201  1  0.91585055  0.58604178  0.29847334  1
  Se  Se202  1  0.92521353  0.58343613  0.79503727  1
  Se  Se203  1  0.90950515  0.90632010  0.31202611  1
  Se  Se204  1  0.92202736  0.92091745  0.80313225  1
  Se  Se205  1  0.10197822  0.08135270  0.31373219  1
  Se  Se206  1  0.08276451  0.08116548  0.80548187  1
  Se  Se207  1  0.08484569  0.41529737  0.30145085  1
  Se  Se208  1  0.09660043  0.42594459  0.80527889  1
  Se  Se209  1  0.07915638  0.74309161  0.30350757  1
  Se  Se210  1  0.08775750  0.74937515  0.80403246  1
  Se  Se211  1  0.42634452  0.09533023  0.31046089  1
  Se  Se212  1  0.40686390  0.07534807  0.80093900  1
  Se  Se213  1  0.42044571  0.42228002  0.29311679  1
  Se  Se214  1  0.42088914  0.42299030  0.81848790  1
  Se  Se215  1  0.41275923  0.75228248  0.30244569  1
  Se  Se216  1  0.41344705  0.74561280  0.80665586  1
  Se  Se217  1  0.75347512  0.07827802  0.29370241  1
  Se  Se218  1  0.74756443  0.09162132  0.81675934  1
  Se  Se219  1  0.75356405  0.42178781  0.30971602  1
  Se  Se220  1  0.76139561  0.43159845  0.81159496  1
  Se  Se221  1  0.75237374  0.75034293  0.31284924  1
  Se  Se222  1  0.75023285  0.75170942  0.80471947  1
  Se  Se223  1  0.24759375  0.08719926  0.19169559  1
  Se  Se224  1  0.25204844  0.08327702  0.69559358  1
  Se  Se225  1  0.25235093  0.41700345  0.19494160  1
  Se  Se226  1  0.23958129  0.42484024  0.69494045  1
  Se  Se227  1  0.25392562  0.74235474  0.19522960  1
  Se  Se228  1  0.25121027  0.74608648  0.69663189  1
  Se  Se229  1  0.58463911  0.08040404  0.19313553  1
  Se  Se230  1  0.57413842  0.08046047  0.68673428  1
  Se  Se231  1  0.57419494  0.42590831  0.18946463  1
  Se  Se232  1  0.56850668  0.41793639  0.69380898  1
  Se  Se233  1  0.56703305  0.75654271  0.18305331  1
  Se  Se234  1  0.58298474  0.74690972  0.70220084  1
  Se  Se235  1  0.91938401  0.08259764  0.18356151  1
  Se  Se236  1  0.92046623  0.08567597  0.70635654  1
  Se  Se237  1  0.92375455  0.41379916  0.19945688  1
  Se  Se238  1  0.90187644  0.42394046  0.68928902  1
  Se  Se239  1  0.91907597  0.74836807  0.19701703  1
  Se  Se240  1  0.91862718  0.75444669  0.70172493  1
  Se  Se241  1  0.08570222  0.25050087  0.19732329  1
  Se  Se242  1  0.08973328  0.24944485  0.69363659  1
  Se  Se243  1  0.08344614  0.58512402  0.19389793  1
  Se  Se244  1  0.07187618  0.59771749  0.69593263  1
  Se  Se245  1  0.09013872  0.91009645  0.19281426  1
  Se  Se246  1  0.08639613  0.91841540  0.69847820  1
  Se  Se247  1  0.41529572  0.25211070  0.19592253  1
  Se  Se248  1  0.41047192  0.24095381  0.69151937  1
  Se  Se249  1  0.42000774  0.59052829  0.19014211  1
  Se  Se250  1  0.41131969  0.58308369  0.70543787  1
  Se  Se251  1  0.41257090  0.91344725  0.18728023  1
  Se  Se252  1  0.41605069  0.91410940  0.69296242  1
  Se  Se253  1  0.75978804  0.23701276  0.17930812  1
  Se  Se254  1  0.75036553  0.24474794  0.70124604  1
  Se  Se255  1  0.75075306  0.57113924  0.18698533  1
  Se  Se256  1  0.73953885  0.58549633  0.70505430  1
  Se  Se257  1  0.74426821  0.91191723  0.20056302  1
  Se  Se258  1  0.75577099  0.91143614  0.69006559  1
