# generated using pymatgen
data_In86Cu29Se144
_symmetry_space_group_name_H-M   'P 1'
_cell_length_a   17.58751666
_cell_length_b   17.58145764
_cell_length_c   23.44260539
_cell_angle_alpha   90.01205825
_cell_angle_beta   90.00243447
_cell_angle_gamma   89.98920617
_symmetry_Int_Tables_number   1
_chemical_formula_structural   In86Cu29Se144
_chemical_formula_sum   'In86 Cu29 Se144'
_cell_volume   7248.78569078
_cell_formula_units_Z   1
loop_
 _symmetry_equiv_pos_site_id
 _symmetry_equiv_pos_as_xyz
  1  'x, y, z'
loop_
 _atom_site_type_symbol
 _atom_site_label
 _atom_site_symmetry_multiplicity
 _atom_site_fract_x
 _atom_site_fract_y
 _atom_site_fract_z
 _atom_site_occupancy
  In  In0  1  0.02521831  0.19961959  0.09035947  1
  In  In1  1  0.00965271  0.17661596  0.62642087  1
  In  In2  1  0.00645990  0.47539413  0.12375273  1
  In  In3  1  0.00992618  0.48803889  0.63461210  1
  In  In4  1  0.00328391  0.83725748  0.11779655  1
  In  In5  1  -0.01275697  0.83616740  0.62711106  1
  In  In6  1  0.34296896  0.17235403  0.11942943  1
  In  In7  1  0.33402652  0.16804912  0.62863321  1
  In  In8  1  0.32404762  0.50709553  0.13206703  1
  In  In9  1  0.32186717  0.48445228  0.61672634  1
  In  In10  1  0.32143236  0.83217288  0.13263689  1
  In  In11  1  0.34592253  0.83377501  0.62285429  1
  In  In12  1  0.66743684  0.17277233  0.10985883  1
  In  In13  1  0.67904212  0.18382908  0.61189532  1
  In  In14  1  0.66547641  0.49990951  0.12406471  1
  In  In15  1  0.66451592  0.50370993  0.62789722  1
  In  In16  1  0.67565677  0.82714288  0.12099936  1
  In  In17  1  0.66174548  0.82882128  0.62088909  1
  In  In18  1  0.17621139  0.00948066  0.37460995  1
  In  In19  1  0.16996201  -0.00268628  0.87817045  1
  In  In20  1  0.16847247  0.33089921  0.37497641  1
  In  In21  1  0.16576103  0.32960795  0.87968700  1
  In  In22  1  0.16386683  0.65263057  0.37508289  1
  In  In23  1  0.15342776  0.67705242  0.88163213  1
  In  In24  1  0.50039163  -0.00456943  0.38395845  1
  In  In25  1  0.49583332  0.02000269  0.87201648  1
  In  In26  1  0.48984655  0.34139901  0.39271064  1
  In  In27  1  0.49262899  0.32775758  0.86885573  1
  In  In28  1  0.48537446  0.67494921  0.38402462  1
  In  In29  1  0.50108239  0.65379228  0.86954342  1
  In  In30  1  0.82747037  0.00576616  0.38506873  1
  In  In31  1  0.82910546  0.00884597  0.87846962  1
  In  In32  1  0.83034232  0.31908843  0.37841722  1
  In  In33  1  0.83909687  0.32112859  0.86309010  1
  In  In34  1  0.84275587  0.67248205  0.37932062  1
  In  In35  1  0.84175106  0.67023551  0.86640548  1
  In  In36  1  -0.00873860  0.17550314  0.38249391  1
  In  In37  1  0.00219619  0.18075838  0.87664422  1
  In  In38  1  0.02068021  0.49697721  0.37922464  1
  In  In39  1  0.00212801  0.50182436  0.87115138  1
  In  In40  1  -0.00705689  0.82507138  0.37706083  1
  In  In41  1  0.00241044  0.83029564  0.87769900  1
  In  In42  1  0.31871528  0.17508301  0.38247181  1
  In  In43  1  0.33130369  0.17133678  0.87282156  1
  In  In44  1  0.33126963  0.49550087  0.37798304  1
  In  In45  1  0.32540348  0.47958527  0.86946328  1
  In  In46  1  0.34567689  0.83326566  0.36857067  1
  In  In47  1  0.31668586  0.83236970  0.87578463  1
  In  In48  1  0.66647682  0.17575144  0.39253343  1
  In  In49  1  0.66833572  0.17831047  0.87625750  1
  In  In50  1  0.65052732  0.48796836  0.38468994  1
  In  In51  1  0.66098126  0.49181090  0.86163962  1
  In  In52  1  0.66128885  0.83656038  0.38306816  1
  In  In53  1  0.67997054  0.83568880  0.87144048  1
  In  In54  1  0.16288264  -0.00397544  0.11692231  1
  In  In55  1  0.16800933  0.02229275  0.63113025  1
  In  In56  1  0.17052887  0.33606098  0.12040290  1
  In  In57  1  0.16447404  0.32841573  0.63301534  1
  In  In58  1  0.17586939  0.67335731  0.11827737  1
  In  In59  1  0.16891172  0.65121949  0.62528721  1
  In  In60  1  0.48957647  0.01184509  0.12537961  1
  In  In61  1  0.49456986  -0.00180769  0.62283911  1
  In  In62  1  0.49545090  0.31616552  0.12501231  1
  In  In63  1  0.50311366  0.33047081  0.62184423  1
  In  In64  1  0.49688473  0.65601759  0.13011025  1
  In  In65  1  0.50955857  0.67168405  0.61710666  1
  In  In66  1  0.83891439  0.00741478  0.11652596  1
  In  In67  1  0.83502608  0.00123991  0.62199378  1
  In  In68  1  0.84390612  0.33298387  0.11810258  1
  In  In69  1  0.83932662  0.32127546  0.63721904  1
  In  In70  1  0.82812173  0.67317411  0.11768468  1
  In  In71  1  0.82542765  0.67132659  0.63258253  1
  In  In72  1  0.66196110  0.33287535  0.25409693  1
  In  In73  1  0.00176452  0.01134015  0.75639941  1
  In  In74  1  0.49847183  0.83669354  0.00711612  1
  In  In75  1  0.66169663  0.66528910  0.24709255  1
  In  In76  1  0.00158748  0.00516327  0.23828673  1
  In  In77  1  0.66211122  0.00983237  0.75587036  1
  In  In78  1  0.66406413  0.00375766  0.26214209  1
  In  In79  1  0.16715651  0.83648552  0.49162373  1
  In  In80  1  0.00886874  0.66304987  0.24889832  1
  In  In81  1  0.33128729  0.00023309  0.24930108  1
  In  In82  1  0.83248841  0.49706668  -0.00293634  1
  In  In83  1  0.33329986  0.66520122  0.74478930  1
  In  In84  1  0.49622061  0.49231985  -0.00884590  1
  In  In85  1  0.83650230  0.49934206  0.50824788  1
  Cu  Cu86  1  0.16635077  0.49893904  0.75178164  1
  Cu  Cu87  1  -0.00224155  0.66417457  -0.00419192  1
  Cu  Cu88  1  0.66768071  0.00240162  -0.00873929  1
  Cu  Cu89  1  0.48908102  0.49707493  0.25751067  1
  Cu  Cu90  1  0.17220276  0.49128929  0.25126445  1
  Cu  Cu91  1  -0.00095185  0.67038018  0.50194815  1
  Cu  Cu92  1  0.16287380  0.83621314  0.75479985  1
  Cu  Cu93  1  0.32928069  0.33109897  0.50469050  1
  Cu  Cu94  1  0.33439757  0.00444413  -0.00064872  1
  Cu  Cu95  1  0.33223015  0.33023401  -0.00291133  1
  Cu  Cu96  1  0.66371005  -0.00414509  0.50509268  1
  Cu  Cu97  1  0.66878600  0.66497730  0.50418199  1
  Cu  Cu98  1  0.49605609  0.17173763  0.74695139  1
  Cu  Cu99  1  0.83419395  0.83908888  0.25122085  1
  Cu  Cu100  1  0.33878192  0.65817797  0.50177227  1
  Cu  Cu101  1  0.84283732  0.17485208  0.24939736  1
  Cu  Cu102  1  0.49615766  0.16683569  0.25265483  1
  Cu  Cu103  1  0.32012103  0.66164972  0.00212853  1
  Cu  Cu104  1  0.83403536  0.49800447  0.74940818  1
  Cu  Cu105  1  0.16228960  0.17367895  0.24547626  1
  Cu  Cu106  1  0.84155885  0.49125893  0.25017684  1
  Cu  Cu107  1  0.50287837  0.50149127  0.74231625  1
  Cu  Cu108  1  0.50052522  0.83292897  0.74301436  1
  Cu  Cu109  1  -0.00294177  0.00516302  0.50712482  1
  Cu  Cu110  1  0.00602199  0.33430995  0.50603400  1
  Cu  Cu111  1  0.00034032  -0.00500665  -0.00537484  1
  Cu  Cu112  1  0.83077708  0.82947316  0.74834895  1
  Cu  Cu113  1  0.32902224  0.00346479  0.50174986  1
  Cu  Cu114  1  0.67112420  0.67101410  -0.00647355  1
  Se  Se115  1  0.08598019  0.07835458  0.04600146  1
  Se  Se116  1  0.08397880  0.08811169  0.55532238  1
  Se  Se117  1  0.07820417  0.40164740  0.04738528  1
  Se  Se118  1  0.08980633  0.41650934  0.55891829  1
  Se  Se119  1  0.08048426  0.74620240  0.05309154  1
  Se  Se120  1  0.08328516  0.75059209  0.56097382  1
  Se  Se121  1  0.42182022  0.08865382  0.04748628  1
  Se  Se122  1  0.41312461  0.08422577  0.55601999  1
  Se  Se123  1  0.40983271  0.41266387  0.06069158  1
  Se  Se124  1  0.41906547  0.41496725  0.55201134  1
  Se  Se125  1  0.40898867  0.73773323  0.05942378  1
  Se  Se126  1  0.41820247  0.74926186  0.55054827  1
  Se  Se127  1  0.75080660  0.08338894  0.04848076  1
  Se  Se128  1  0.75052122  0.08030785  0.55306314  1
  Se  Se129  1  0.73801818  0.40842410  0.05621114  1
  Se  Se130  1  0.75118473  0.40859144  0.56678799  1
  Se  Se131  1  0.75483943  0.75558168  0.04443901  1
  Se  Se132  1  0.75288555  0.74934656  0.55523007  1
  Se  Se133  1  0.25153569  0.24631731  0.05289109  1
  Se  Se134  1  0.24673498  0.24948202  0.56051520  1
  Se  Se135  1  0.24221802  0.57199995  0.05341184  1
  Se  Se136  1  0.24788364  0.57900679  0.55014572  1
  Se  Se137  1  0.25814493  0.91657983  0.05538580  1
  Se  Se138  1  0.24891868  0.92135062  0.56147146  1
  Se  Se139  1  0.57875436  0.25478226  0.04902683  1
  Se  Se140  1  0.56881937  0.23588186  0.55182479  1
  Se  Se141  1  0.58875511  0.59080059  0.05185641  1
  Se  Se142  1  0.58451927  0.57769202  0.55157654  1
  Se  Se143  1  0.59292967  0.93036289  0.06189202  1
  Se  Se144  1  0.57730254  0.91246746  0.55507943  1
  Se  Se145  1  0.89627934  0.23660294  0.04593792  1
  Se  Se146  1  0.91976817  0.25334617  0.55813962  1
  Se  Se147  1  0.92428994  0.58429971  0.06203146  1
  Se  Se148  1  0.92629385  0.58966686  0.56748475  1
  Se  Se149  1  0.91582238  0.91544478  0.05126563  1
  Se  Se150  1  0.91390066  0.91541136  0.55238144  1
  Se  Se151  1  0.08507676  0.25092588  0.44677781  1
  Se  Se152  1  0.08798419  0.24729825  0.95199822  1
  Se  Se153  1  0.08488882  0.58512007  0.45375204  1
  Se  Se154  1  0.08211007  0.57971082  0.94576014  1
  Se  Se155  1  0.07139124  0.93003411  0.43740004  1
  Se  Se156  1  0.08754733  0.91119866  0.94512102  1
  Se  Se157  1  0.41111088  0.24390825  0.45178002  1
  Se  Se158  1  0.41887004  0.24909478  0.94480114  1
  Se  Se159  1  0.42081359  0.57298613  0.44753485  1
  Se  Se160  1  0.40152226  0.58775427  0.93834669  1
  Se  Se161  1  0.40830553  0.91566869  0.44761813  1
  Se  Se162  1  0.41334959  0.92093336  0.93906625  1
  Se  Se163  1  0.75967740  0.24859537  0.45696782  1
  Se  Se164  1  0.76541954  0.24733834  0.94180674  1
  Se  Se165  1  0.74680630  0.58619395  0.44020133  1
  Se  Se166  1  0.74291453  0.58446189  0.93350848  1
  Se  Se167  1  0.74922658  0.91459561  0.44932390  1
  Se  Se168  1  0.75354224  0.91604597  0.94504681  1
  Se  Se169  1  0.24219053  0.08742610  0.45289708  1
  Se  Se170  1  0.25248191  0.08521048  0.94339614  1
  Se  Se171  1  0.24755887  0.41347872  0.44683923  1
  Se  Se172  1  0.24784950  0.41776849  0.94992191  1
  Se  Se173  1  0.25869215  0.73982499  0.43961514  1
  Se  Se174  1  0.24387431  0.75264057  0.95042195  1
  Se  Se175  1  0.58309003  0.07988124  0.44957365  1
  Se  Se176  1  0.58537244  0.08857697  0.94161456  1
  Se  Se177  1  0.59977052  0.39181397  0.45592615  1
  Se  Se178  1  0.59268192  0.40522653  0.93825355  1
  Se  Se179  1  0.58411117  0.74580341  0.44787697  1
  Se  Se180  1  0.58199037  0.74810221  0.93812094  1
  Se  Se181  1  0.91410521  0.08724511  0.45031029  1
  Se  Se182  1  0.92513901  0.08348035  0.94008282  1
  Se  Se183  1  0.92508015  0.41309249  0.44294054  1
  Se  Se184  1  0.92100564  0.40954210  0.93792397  1
  Se  Se185  1  0.91317056  0.75518159  0.45400931  1
  Se  Se186  1  0.91387637  0.74803552  0.94396286  1
  Se  Se187  1  0.24942943  0.24891835  0.30219749  1
  Se  Se188  1  0.27082415  0.27819136  0.81140642  1
  Se  Se189  1  0.25048450  0.57817130  0.30562143  1
  Se  Se190  1  0.24379509  0.58466604  0.81172554  1
  Se  Se191  1  0.24006665  0.90854520  0.30729672  1
  Se  Se192  1  0.24996390  0.91932784  0.80248275  1
  Se  Se193  1  0.57517092  0.24395611  0.31622698  1
  Se  Se194  1  0.58298721  0.24937997  0.80231078  1
  Se  Se195  1  0.57658671  0.57629151  0.31201685  1
  Se  Se196  1  0.58543701  0.58552452  0.79583563  1
  Se  Se197  1  0.57046349  0.90473088  0.30760431  1
  Se  Se198  1  0.57273546  0.91137669  0.81153110  1
  Se  Se199  1  0.92263135  0.25759531  0.30484126  1
  Se  Se200  1  0.93636917  0.25511842  0.79463976  1
  Se  Se201  1  0.91544446  0.57496291  0.31121798  1
  Se  Se202  1  0.91999749  0.58230796  0.80024464  1
  Se  Se203  1  0.91250584  0.92137750  0.30942915  1
  Se  Se204  1  0.90788491  0.91313998  0.80833435  1
  Se  Se205  1  0.08578252  0.09176645  0.30661136  1
  Se  Se206  1  0.09848615  0.09657788  0.81077529  1
  Se  Se207  1  0.08407301  0.41202344  0.30339997  1
  Se  Se208  1  0.08694865  0.41509910  0.80753522  1
  Se  Se209  1  0.09214082  0.75791901  0.30996005  1
  Se  Se210  1  0.07873862  0.75022869  0.80287832  1
  Se  Se211  1  0.41855385  0.08669986  0.31431906  1
  Se  Se212  1  0.41109035  0.08780633  0.79874401  1
  Se  Se213  1  0.41483980  0.40743329  0.31111928  1
  Se  Se214  1  0.42192053  0.42105822  0.79934866  1
  Se  Se215  1  0.41778163  0.74298719  0.30166924  1
  Se  Se216  1  0.42046585  0.75614697  0.80863600  1
  Se  Se217  1  0.75850362  0.10102613  0.31118418  1
  Se  Se218  1  0.76206875  0.09872336  0.80418553  1
  Se  Se219  1  0.75452015  0.42438534  0.31313549  1
  Se  Se220  1  0.75266634  0.41050065  0.80038804  1
  Se  Se221  1  0.75474684  0.75531368  0.30849160  1
  Se  Se222  1  0.74636337  0.74547223  0.80049950  1
  Se  Se223  1  0.24184004  0.08897274  0.18728327  1
  Se  Se224  1  0.25679546  0.08581787  0.70196173  1
  Se  Se225  1  0.25399138  0.40825785  0.19588708  1
  Se  Se226  1  0.25057563  0.41690705  0.69846861  1
  Se  Se227  1  0.25195424  0.73849770  0.19809580  1
  Se  Se228  1  0.24100479  0.75934207  0.68829562  1
  Se  Se229  1  0.58278794  0.09382981  0.19323249  1
  Se  Se230  1  0.57843511  0.09181939  0.68748786  1
  Se  Se231  1  0.57125073  0.42419224  0.19244283  1
  Se  Se232  1  0.58494531  0.41335808  0.69289534  1
  Se  Se233  1  0.57592331  0.76120206  0.18914135  1
  Se  Se234  1  0.58479395  0.74777641  0.69463585  1
  Se  Se235  1  0.91660476  0.10068708  0.18253477  1
  Se  Se236  1  0.91133299  0.09145460  0.69080079  1
  Se  Se237  1  0.91918113  0.40605055  0.19644629  1
  Se  Se238  1  0.91963955  0.41297921  0.70063245  1
  Se  Se239  1  0.91134890  0.75520569  0.19240835  1
  Se  Se240  1  0.91905070  0.74783478  0.69889443  1
  Se  Se241  1  0.08031143  0.25063359  0.18572302  1
  Se  Se242  1  0.07282133  0.25889810  0.70479755  1
  Se  Se243  1  0.09191279  0.56983886  0.18776732  1
  Se  Se244  1  0.08392063  0.58491473  0.70015353  1
  Se  Se245  1  0.09465185  0.90421979  0.19318312  1
  Se  Se246  1  0.08550781  0.91686502  0.69131986  1
  Se  Se247  1  0.41125513  0.24867225  0.20037263  1
  Se  Se248  1  0.41476855  0.25818343  0.69452931  1
  Se  Se249  1  0.41264783  0.58333275  0.20125138  1
  Se  Se250  1  0.41927925  0.57757936  0.68143076  1
  Se  Se251  1  0.42649031  0.91048469  0.19241919  1
  Se  Se252  1  0.41453026  0.91875262  0.69717373  1
  Se  Se253  1  0.75097375  0.24664219  0.19044630  1
  Se  Se254  1  0.73981801  0.24841747  0.69857507  1
  Se  Se255  1  0.76319935  0.57496013  0.19244574  1
  Se  Se256  1  0.74834777  0.58217409  0.69872751  1
  Se  Se257  1  0.75335920  0.91940774  0.19288424  1
  Se  Se258  1  0.74967883  0.91511662  0.69324243  1
