# generated using pymatgen
data_In86Cu29Se144
_symmetry_space_group_name_H-M   'P 1'
_cell_length_a   17.57360652
_cell_length_b   17.57387212
_cell_length_c   23.43259970
_cell_angle_alpha   89.99222074
_cell_angle_beta   89.99577658
_cell_angle_gamma   89.99676973
_symmetry_Int_Tables_number   1
_chemical_formula_structural   In86Cu29Se144
_chemical_formula_sum   'In86 Cu29 Se144'
_cell_volume   7236.83761152
_cell_formula_units_Z   1
loop_
 _symmetry_equiv_pos_site_id
 _symmetry_equiv_pos_as_xyz
  1  'x, y, z'
loop_
 _atom_site_type_symbol
 _atom_site_label
 _atom_site_symmetry_multiplicity
 _atom_site_fract_x
 _atom_site_fract_y
 _atom_site_fract_z
 _atom_site_occupancy
  In  In0  1  -0.00059458  0.16870007  0.13207383  1
  In  In1  1  -0.00419577  0.16761369  0.61762754  1
  In  In2  1  -0.00610842  0.51247249  0.12972918  1
  In  In3  1  0.01135621  0.50723858  0.61575379  1
  In  In4  1  0.00548566  0.83581460  0.13120760  1
  In  In5  1  0.00085347  0.81336391  0.62345343  1
  In  In6  1  0.31284826  0.17548095  0.12003293  1
  In  In7  1  0.32464816  0.17822603  0.63369642  1
  In  In8  1  0.34144440  0.50429083  0.12683737  1
  In  In9  1  0.32578414  0.50058492  0.62521805  1
  In  In10  1  0.31251296  0.83386280  0.12340394  1
  In  In11  1  0.32685949  0.83532813  0.62751052  1
  In  In12  1  0.67956001  0.17508070  0.13410843  1
  In  In13  1  0.68670768  0.17834397  0.62186858  1
  In  In14  1  0.67329210  0.48097894  0.12996714  1
  In  In15  1  0.66898511  0.49620588  0.62443407  1
  In  In16  1  0.68511761  0.83475084  0.12613450  1
  In  In17  1  0.65338575  0.83379307  0.62294188  1
  In  In18  1  0.15283539  0.00688663  0.38628353  1
  In  In19  1  0.16523231  -0.00838155  0.88093009  1
  In  In20  1  0.15726553  0.34471755  0.38131140  1
  In  In21  1  0.16424766  0.32825935  0.87267012  1
  In  In22  1  0.16469514  0.66482350  0.37781732  1
  In  In23  1  0.17391677  0.67204335  0.86543425  1
  In  In24  1  0.50717359  -0.00465616  0.37261555  1
  In  In25  1  0.49506719  0.01506836  0.87522880  1
  In  In26  1  0.50984779  0.34101600  0.37444468  1
  In  In27  1  0.50629356  0.33312775  0.86735170  1
  In  In28  1  0.48623554  0.66666051  0.37964679  1
  In  In29  1  0.49269754  0.65375962  0.86317702  1
  In  In30  1  0.84285550  0.01154942  0.36487707  1
  In  In31  1  0.84333632  0.00555785  0.88260621  1
  In  In32  1  0.83450752  0.33169195  0.36963216  1
  In  In33  1  0.83037235  0.33286623  0.88369702  1
  In  In34  1  0.83671715  0.64717587  0.37789809  1
  In  In35  1  0.82259211  0.65425488  0.86108215  1
  In  In36  1  -0.01024067  0.17523722  0.36702918  1
  In  In37  1  -0.00045134  0.17436955  0.88588654  1
  In  In38  1  -0.00186237  0.49548260  0.37073267  1
  In  In39  1  -0.00973746  0.49131659  0.87094694  1
  In  In40  1  0.01243551  0.83915889  0.37198355  1
  In  In41  1  0.01038488  0.83706744  0.87610439  1
  In  In42  1  0.32619124  0.15861399  0.37834667  1
  In  In43  1  0.32808444  0.16181543  0.86653165  1
  In  In44  1  0.31236312  0.52675278  0.40155588  1
  In  In45  1  0.32554172  0.49672425  0.85712881  1
  In  In46  1  0.32750987  0.80905896  0.38039018  1
  In  In47  1  0.32049912  0.82085478  0.86569798  1
  In  In48  1  0.68020642  0.17719945  0.36192794  1
  In  In49  1  0.67563256  0.17663507  0.87475107  1
  In  In50  1  0.67894867  0.48793567  0.38955268  1
  In  In51  1  0.67067984  0.49481315  0.86901896  1
  In  In52  1  0.66572664  0.84580855  0.37198369  1
  In  In53  1  0.67631407  0.82834728  0.87222369  1
  In  In54  1  0.15938327  -0.00397695  0.12212175  1
  In  In55  1  0.17300307  0.01053094  0.61734831  1
  In  In56  1  0.16866017  0.31358284  0.12102740  1
  In  In57  1  0.17490403  0.34380855  0.61716868  1
  In  In58  1  0.15603269  0.67637687  0.13078324  1
  In  In59  1  0.16722354  0.65873378  0.62232215  1
  In  In60  1  0.50474809  0.01186692  0.12624996  1
  In  In61  1  0.49626540  -0.01031985  0.62439727  1
  In  In62  1  0.50484885  0.34640449  0.12743773  1
  In  In63  1  0.49166489  0.34581201  0.63347305  1
  In  In64  1  0.49527698  0.65067029  0.12627487  1
  In  In65  1  0.50213467  0.66073439  0.62839767  1
  In  In66  1  0.82153266  0.02543961  0.15233430  1
  In  In67  1  0.82879076  0.02107446  0.61925065  1
  In  In68  1  0.83345099  0.33640607  0.12868134  1
  In  In69  1  0.82386047  0.32313620  0.62122236  1
  In  In70  1  0.84851882  0.66991364  0.12278060  1
  In  In71  1  0.84716707  0.65338674  0.62883926  1
  In  In72  1  0.16437626  0.49705516  -0.00896118  1
  In  In73  1  0.00016332  -0.00197436  0.74701397  1
  In  In74  1  0.49566321  0.83035669  -0.00752322  1
  In  In75  1  0.33593491  -0.00781425  0.25446485  1
  In  In76  1  0.33676442  0.34006505  0.24929768  1
  In  In77  1  0.83740847  0.83621180  0.49776343  1
  In  In78  1  0.49998524  0.83413912  0.50052999  1
  In  In79  1  0.50024318  0.17073368  0.00577146  1
  In  In80  1  0.49984057  0.49564059  -0.00933419  1
  In  In81  1  0.85171762  0.83767572  0.00518831  1
  In  In82  1  0.00267052  0.33805493  0.75255972  1
  In  In83  1  0.66615341  0.66857910  0.25582329  1
  In  In84  1  0.50001647  0.16849794  0.49617922  1
  In  In85  1  0.65915846  -0.00183017  0.74879578  1
  Cu  Cu86  1  0.84297947  0.83398119  0.25091841  1
  Cu  Cu87  1  0.31982571  0.67185181  -0.00328653  1
  Cu  Cu88  1  0.49934252  0.16695282  0.74918228  1
  Cu  Cu89  1  0.33015481  0.33324309  0.50875428  1
  Cu  Cu90  1  -0.00052598  0.01269239  0.01013792  1
  Cu  Cu91  1  0.16591191  0.16645958  0.74870285  1
  Cu  Cu92  1  -0.00096396  -0.00003307  0.49503946  1
  Cu  Cu93  1  0.50015442  0.82999408  0.25240270  1
  Cu  Cu94  1  -0.00017839  0.66877329  0.00104797  1
  Cu  Cu95  1  0.16042535  0.16808681  0.25389864  1
  Cu  Cu96  1  0.67218657  0.65349821  -0.00847301  1
  Cu  Cu97  1  0.49384841  0.82945678  0.74620091  1
  Cu  Cu98  1  0.31940578  0.00059417  -0.00476525  1
  Cu  Cu99  1  0.32786640  0.00042275  0.50157008  1
  Cu  Cu100  1  0.16468065  0.50016383  0.25662564  1
  Cu  Cu101  1  0.16755531  0.83194519  0.74909037  1
  Cu  Cu102  1  0.83492007  0.49786499  0.25117435  1
  Cu  Cu103  1  0.00560867  0.65844061  0.49906274  1
  Cu  Cu104  1  0.50676211  0.49697153  0.74442663  1
  Cu  Cu105  1  0.17127958  0.82581475  0.25447938  1
  Cu  Cu106  1  0.00050673  0.33177701  0.00526954  1
  Cu  Cu107  1  0.83370054  0.49466317  0.74631424  1
  Cu  Cu108  1  -0.00679661  0.33117646  0.49641848  1
  Cu  Cu109  1  0.67451912  0.00433545  0.01238436  1
  Cu  Cu110  1  0.49561056  0.50416052  0.25686537  1
  Cu  Cu111  1  0.66843234  0.66398286  0.50515319  1
  Cu  Cu112  1  0.82843815  0.82808694  0.74462030  1
  Cu  Cu113  1  0.50993120  0.17297616  0.24640611  1
  Cu  Cu114  1  0.66632444  0.33530858  0.49929300  1
  Se  Se115  1  0.08903977  0.09476510  0.05908949  1
  Se  Se116  1  0.08029304  0.08454825  0.55122333  1
  Se  Se117  1  0.08064253  0.41643026  0.06262430  1
  Se  Se118  1  0.08114805  0.41257894  0.54826661  1
  Se  Se119  1  0.07953797  0.75385737  0.05515926  1
  Se  Se120  1  0.08612017  0.74539724  0.55053379  1
  Se  Se121  1  0.40163490  0.07487177  0.05812978  1
  Se  Se122  1  0.41009498  0.08082268  0.55984492  1
  Se  Se123  1  0.40770561  0.40893269  0.05446559  1
  Se  Se124  1  0.41548130  0.41835379  0.55683675  1
  Se  Se125  1  0.40946402  0.74140692  0.05789302  1
  Se  Se126  1  0.41245424  0.74542757  0.55976815  1
  Se  Se127  1  0.75660292  0.08727711  0.06412432  1
  Se  Se128  1  0.74367869  0.08805430  0.54695970  1
  Se  Se129  1  0.75930213  0.42146983  0.05554482  1
  Se  Se130  1  0.75227961  0.41652341  0.55307773  1
  Se  Se131  1  0.74731181  0.74072077  0.05104152  1
  Se  Se132  1  0.74903709  0.74769036  0.56238052  1
  Se  Se133  1  0.25627669  0.26014509  0.04258732  1
  Se  Se134  1  0.24615719  0.24270672  0.55343244  1
  Se  Se135  1  0.24832444  0.58683441  0.05951450  1
  Se  Se136  1  0.24927939  0.58010758  0.55110903  1
  Se  Se137  1  0.24031667  0.91469307  0.04980945  1
  Se  Se138  1  0.24741135  0.91365530  0.55368957  1
  Se  Se139  1  0.59309127  0.26036252  0.06230409  1
  Se  Se140  1  0.58298012  0.25906391  0.56096598  1
  Se  Se141  1  0.59121305  0.58179093  0.05678735  1
  Se  Se142  1  0.58410759  0.58172136  0.55724294  1
  Se  Se143  1  0.58791293  0.91653145  0.05926406  1
  Se  Se144  1  0.59472627  0.93233706  0.54927573  1
  Se  Se145  1  0.91865509  0.25074105  0.06147279  1
  Se  Se146  1  0.91014921  0.24704521  0.54972486  1
  Se  Se147  1  0.91614297  0.58197131  0.04983698  1
  Se  Se148  1  0.91474588  0.57867472  0.54846005  1
  Se  Se149  1  0.91795206  0.93510114  0.07241617  1
  Se  Se150  1  0.92418972  0.92459084  0.56409342  1
  Se  Se151  1  0.07642744  0.24896154  0.44033313  1
  Se  Se152  1  0.08850578  0.25495300  0.95068119  1
  Se  Se153  1  0.08262388  0.57327965  0.44207363  1
  Se  Se154  1  0.07483125  0.59134592  0.93495894  1
  Se  Se155  1  0.08514467  0.90909249  0.45309573  1
  Se  Se156  1  0.07330101  0.92341118  0.95231715  1
  Se  Se157  1  0.40662637  0.26056779  0.43889508  1
  Se  Se158  1  0.41623856  0.25058774  0.93548814  1
  Se  Se159  1  0.42793843  0.58051390  0.45557654  1
  Se  Se160  1  0.40066705  0.58783330  0.93944406  1
  Se  Se161  1  0.40641703  0.92306091  0.43810012  1
  Se  Se162  1  0.40452806  0.92341765  0.93686638  1
  Se  Se163  1  0.74741253  0.25431814  0.44194436  1
  Se  Se164  1  0.75968469  0.23784282  0.95051364  1
  Se  Se165  1  0.75497278  0.58082016  0.45486359  1
  Se  Se166  1  0.75700254  0.57327468  0.93982474  1
  Se  Se167  1  0.75034931  0.92832853  0.43978003  1
  Se  Se168  1  0.74586380  0.92044371  0.94729944  1
  Se  Se169  1  0.24410830  0.08672622  0.45136177  1
  Se  Se170  1  0.24407730  0.08933003  0.94093460  1
  Se  Se171  1  0.24622635  0.41415888  0.45293105  1
  Se  Se172  1  0.26237849  0.41072323  0.93730553  1
  Se  Se173  1  0.24999318  0.73537692  0.45303660  1
  Se  Se174  1  0.23834035  0.75606408  0.94447828  1
  Se  Se175  1  0.59152733  0.08574664  0.43442512  1
  Se  Se176  1  0.59249690  0.07721452  0.94723141  1
  Se  Se177  1  0.57724808  0.42013071  0.45310547  1
  Se  Se178  1  0.59663167  0.40257952  0.94307799  1
  Se  Se179  1  0.59566126  0.74533021  0.44050865  1
  Se  Se180  1  0.58839551  0.73556012  0.93696864  1
  Se  Se181  1  0.91848345  0.08564482  0.44199131  1
  Se  Se182  1  0.91526018  0.09076952  0.95348012  1
  Se  Se183  1  0.91298077  0.41567614  0.44047278  1
  Se  Se184  1  0.92036229  0.41509820  0.94859130  1
  Se  Se185  1  0.92509619  0.74201288  0.43941737  1
  Se  Se186  1  0.91769883  0.74196194  0.93454156  1
  Se  Se187  1  0.24658134  0.24787939  0.30961840  1
  Se  Se188  1  0.24830122  0.25228949  0.80087436  1
  Se  Se189  1  0.25139221  0.58079985  0.30911269  1
  Se  Se190  1  0.25636986  0.59459458  0.79596604  1
  Se  Se191  1  0.24448809  0.91017080  0.31788560  1
  Se  Se192  1  0.24489849  0.91962770  0.80427938  1
  Se  Se193  1  0.58504380  0.25991514  0.30161762  1
  Se  Se194  1  0.58779500  0.24481886  0.80206422  1
  Se  Se195  1  0.58218482  0.57786126  0.31819296  1
  Se  Se196  1  0.58879223  0.57987979  0.80094332  1
  Se  Se197  1  0.58392759  0.91868400  0.29713525  1
  Se  Se198  1  0.57059133  0.90703267  0.81275900  1
  Se  Se199  1  0.89305562  0.23729982  0.29493035  1
  Se  Se200  1  0.91412330  0.24492255  0.81011000  1
  Se  Se201  1  0.91935510  0.58387793  0.30039091  1
  Se  Se202  1  0.91871265  0.57807484  0.79862328  1
  Se  Se203  1  0.92534420  0.91754741  0.30440828  1
  Se  Se204  1  0.90553272  0.90817565  0.80770767  1
  Se  Se205  1  0.08156441  0.08327702  0.30883766  1
  Se  Se206  1  0.08432450  0.08994447  0.81081030  1
  Se  Se207  1  0.08018511  0.41049269  0.30076877  1
  Se  Se208  1  0.09789167  0.43090752  0.80483497  1
  Se  Se209  1  0.08313786  0.74415661  0.30504756  1
  Se  Se210  1  0.07988654  0.75298794  0.80238725  1
  Se  Se211  1  0.42674458  0.09480274  0.30598335  1
  Se  Se212  1  0.41468535  0.08037940  0.79785535  1
  Se  Se213  1  0.41142089  0.42958787  0.31847374  1
  Se  Se214  1  0.42286828  0.41558352  0.80007897  1
  Se  Se215  1  0.41560581  0.74834932  0.30350749  1
  Se  Se216  1  0.41219969  0.74481274  0.80018672  1
  Se  Se217  1  0.73972527  0.07117940  0.30046320  1
  Se  Se218  1  0.75579147  0.08011150  0.80853110  1
  Se  Se219  1  0.74700812  0.42110522  0.30554525  1
  Se  Se220  1  0.75788601  0.40986347  0.80482530  1
  Se  Se221  1  0.76295785  0.75575668  0.31408414  1
  Se  Se222  1  0.74267363  0.74602470  0.79636487  1
  Se  Se223  1  0.24566189  0.08717325  0.19691432  1
  Se  Se224  1  0.24916916  0.08039224  0.69674375  1
  Se  Se225  1  0.24040661  0.42406947  0.18790161  1
  Se  Se226  1  0.25384377  0.40874619  0.69453935  1
  Se  Se227  1  0.25405626  0.74456575  0.19883675  1
  Se  Se228  1  0.24645598  0.74716725  0.69301536  1
  Se  Se229  1  0.59030947  0.08536717  0.19533763  1
  Se  Se230  1  0.57786334  0.09099699  0.68437374  1
  Se  Se231  1  0.58013470  0.42076063  0.20413268  1
  Se  Se232  1  0.59377123  0.41073512  0.69756734  1
  Se  Se233  1  0.57912280  0.75346726  0.18647140  1
  Se  Se234  1  0.58301169  0.74983146  0.69601040  1
  Se  Se235  1  0.94126332  0.07071203  0.20322558  1
  Se  Se236  1  0.90932963  0.09549692  0.69644351  1
  Se  Se237  1  0.92062706  0.41970980  0.19616996  1
  Se  Se238  1  0.91540550  0.41870176  0.68354459  1
  Se  Se239  1  0.92228747  0.74823552  0.19742025  1
  Se  Se240  1  0.91837390  0.74502665  0.69889448  1
  Se  Se241  1  0.08388081  0.25619205  0.19972396  1
  Se  Se242  1  0.08650143  0.24615003  0.68799380  1
  Se  Se243  1  0.08446334  0.58491197  0.19945184  1
  Se  Se244  1  0.07270920  0.59130112  0.69198721  1
  Se  Se245  1  0.09357286  0.91398953  0.19994598  1
  Se  Se246  1  0.08886802  0.91040037  0.68542075  1
  Se  Se247  1  0.42056870  0.24290349  0.18594573  1
  Se  Se248  1  0.41526795  0.25353284  0.69950321  1
  Se  Se249  1  0.41187701  0.58603339  0.20316916  1
  Se  Se250  1  0.41741091  0.57806925  0.69472484  1
  Se  Se251  1  0.42283330  0.90738262  0.18538210  1
  Se  Se252  1  0.41241790  0.91750170  0.69669032  1
  Se  Se253  1  0.76640227  0.24950412  0.20538191  1
  Se  Se254  1  0.75392802  0.25043941  0.70172501  1
  Se  Se255  1  0.75555602  0.58357319  0.19113708  1
  Se  Se256  1  0.75108652  0.58147762  0.69401111  1
  Se  Se257  1  0.75040215  0.91362072  0.20373677  1
  Se  Se258  1  0.75562514  0.91470301  0.68536569  1
