# generated using pymatgen
data_In86Cu29Se144
_symmetry_space_group_name_H-M   'P 1'
_cell_length_a   17.54568042
_cell_length_b   17.54669035
_cell_length_c   23.39667636
_cell_angle_alpha   90.01161643
_cell_angle_beta   90.01376729
_cell_angle_gamma   89.97551981
_symmetry_Int_Tables_number   1
_chemical_formula_structural   In86Cu29Se144
_chemical_formula_sum   'In86 Cu29 Se144'
_cell_volume   7203.10148150
_cell_formula_units_Z   1
loop_
 _symmetry_equiv_pos_site_id
 _symmetry_equiv_pos_as_xyz
  1  'x, y, z'
loop_
 _atom_site_type_symbol
 _atom_site_label
 _atom_site_symmetry_multiplicity
 _atom_site_fract_x
 _atom_site_fract_y
 _atom_site_fract_z
 _atom_site_occupancy
  In  In0  1  0.01893474  0.16118868  0.13675958  1
  In  In1  1  0.00637871  0.15953638  0.62832389  1
  In  In2  1  0.00227027  0.50211762  0.12324713  1
  In  In3  1  -0.00683649  0.49598592  0.63008705  1
  In  In4  1  -0.00283201  0.83448820  0.10912121  1
  In  In5  1  0.01374756  0.83887383  0.63006983  1
  In  In6  1  0.31219350  0.17678606  0.14356528  1
  In  In7  1  0.33221817  0.16400716  0.62658823  1
  In  In8  1  0.32510021  0.49692239  0.11625592  1
  In  In9  1  0.33405560  0.49357587  0.64445758  1
  In  In10  1  0.33602880  0.83589032  0.12132437  1
  In  In11  1  0.34403608  0.82218335  0.63534370  1
  In  In12  1  0.66921932  0.16095232  0.12388040  1
  In  In13  1  0.65596866  0.17450770  0.63480328  1
  In  In14  1  0.69087918  0.53185828  0.09355010  1
  In  In15  1  0.64951292  0.49833200  0.63313220  1
  In  In16  1  0.65389034  0.81857396  0.10448806  1
  In  In17  1  0.66396769  0.84837747  0.63349523  1
  In  In18  1  0.18894926  0.01898889  0.34592249  1
  In  In19  1  0.16275370  -0.00853568  0.87421005  1
  In  In20  1  0.15677736  0.32003724  0.35768023  1
  In  In21  1  0.17008749  0.35000590  0.86267509  1
  In  In22  1  0.16349702  0.67369707  0.36250717  1
  In  In23  1  0.17721152  0.65651125  0.89178039  1
  In  In24  1  0.49080411  0.00631647  0.38770558  1
  In  In25  1  0.50155542  -0.00352721  0.87181192  1
  In  In26  1  0.48493961  0.32895969  0.37311224  1
  In  In27  1  0.50011487  0.33447244  0.86921805  1
  In  In28  1  0.51113929  0.66309362  0.36690349  1
  In  In29  1  0.49490545  0.67880456  0.88849833  1
  In  In30  1  0.83594474  -0.01173761  0.36994796  1
  In  In31  1  0.83487224  -0.00267360  0.87504740  1
  In  In32  1  0.84518254  0.32509877  0.37074088  1
  In  In33  1  0.84318954  0.34060025  0.87194176  1
  In  In34  1  0.83518838  0.66975792  0.35801860  1
  In  In35  1  0.83631148  0.66947091  0.90712814  1
  In  In36  1  0.02025712  0.17695320  0.35496753  1
  In  In37  1  0.00312935  0.16927743  0.86981523  1
  In  In38  1  0.00294211  0.49810136  0.35424107  1
  In  In39  1  0.00533633  0.49706990  0.89471158  1
  In  In40  1  0.00801983  0.84336518  0.35495344  1
  In  In41  1  -0.00168737  0.84331234  0.89286535  1
  In  In42  1  0.33012938  0.16597151  0.37806823  1
  In  In43  1  0.33359297  0.16841978  0.86532336  1
  In  In44  1  0.34059301  0.48660461  0.36639658  1
  In  In45  1  0.32496783  0.50864870  0.87434106  1
  In  In46  1  0.32820592  0.84319513  0.37441752  1
  In  In47  1  0.33828830  0.83650653  0.87677067  1
  In  In48  1  0.66197151  0.15187100  0.37853866  1
  In  In49  1  0.66030156  0.15975629  0.86544088  1
  In  In50  1  0.65613511  0.51016021  0.36467754  1
  In  In51  1  0.67299457  0.49712589  0.89045621  1
  In  In52  1  0.66771368  0.82595916  0.36883033  1
  In  In53  1  0.65906872  0.84469616  0.89804101  1
  In  In54  1  0.17184038  -0.00257205  0.12576745  1
  In  In55  1  0.15591124  0.00995645  0.63224945  1
  In  In56  1  0.15138590  0.35440152  0.15151088  1
  In  In57  1  0.18094388  0.32009080  0.63891972  1
  In  In58  1  0.13312745  0.65057900  0.09737684  1
  In  In59  1  0.16942456  0.67762901  0.63301645  1
  In  In60  1  0.49413161  -0.01528366  0.11992249  1
  In  In61  1  0.49517237  -0.00108654  0.62870023  1
  In  In62  1  0.48343325  0.34169833  0.12640170  1
  In  In63  1  0.50238547  0.32986562  0.63435337  1
  In  In64  1  0.50999897  0.67711293  0.11228105  1
  In  In65  1  0.48916817  0.66103345  0.62829173  1
  In  In66  1  0.84569687  -0.00539851  0.11343141  1
  In  In67  1  0.83466947  -0.00765532  0.63846239  1
  In  In68  1  0.84316892  0.35187225  0.11681546  1
  In  In69  1  0.83963008  0.32491272  0.63952253  1
  In  In70  1  0.83901888  0.66491421  0.11302031  1
  In  In71  1  0.83543092  0.66320478  0.63151235  1
  In  In72  1  0.83107617  0.83916288  0.49927843  1
  In  In73  1  0.66849297  0.34417837  0.24701303  1
  In  In74  1  0.16659049  0.16863917  0.00836939  1
  In  In75  1  0.83471358  0.16562484  -0.00151621  1
  In  In76  1  0.66986148  0.67034925  0.77328340  1
  In  In77  1  0.16977812  0.84595920  0.49915935  1
  In  In78  1  0.00772541  0.66310861  0.76870108  1
  In  In79  1  0.17191689  0.49719773  0.50356223  1
  In  In80  1  0.49321312  0.49554933  0.50042011  1
  In  In81  1  0.82781686  0.49462229  0.49667823  1
  In  In82  1  0.67109660  -0.00847947  0.24646060  1
  In  In83  1  0.49419699  0.16141305  -0.00334687  1
  In  In84  1  0.83037108  0.16321220  0.49919300  1
  In  In85  1  0.32443597  0.66668227  0.24104935  1
  Cu  Cu86  1  0.50715261  0.83117834  0.75812462  1
  Cu  Cu87  1  0.01339587  0.32688092  0.49629803  1
  Cu  Cu88  1  0.66035469  0.33264713  0.50761656  1
  Cu  Cu89  1  0.33114484  0.00135453  0.50184233  1
  Cu  Cu90  1  0.83043414  0.49805446  0.76424897  1
  Cu  Cu91  1  0.33767320  0.67004697  0.50507984  1
  Cu  Cu92  1  0.65824257  0.32809102  -0.00527176  1
  Cu  Cu93  1  0.83811473  0.50967394  0.23471106  1
  Cu  Cu94  1  0.66239175  0.67998651  0.49348727  1
  Cu  Cu95  1  0.49338018  0.49833073  0.75663776  1
  Cu  Cu96  1  0.16444162  0.16820468  0.75096753  1
  Cu  Cu97  1  0.49274678  0.16053877  0.25563436  1
  Cu  Cu98  1  0.00493881  0.33410954  0.00334502  1
  Cu  Cu99  1  0.17182954  0.83683479  0.75601963  1
  Cu  Cu100  1  0.51193329  0.50863025  0.23548717  1
  Cu  Cu101  1  0.49695654  0.16091838  0.74832096  1
  Cu  Cu102  1  0.15670007  0.82264274  0.23429093  1
  Cu  Cu103  1  0.65399896  0.00544402  0.51037490  1
  Cu  Cu104  1  0.84299406  0.83304405  0.76416618  1
  Cu  Cu105  1  -0.00010935  0.66851488  0.48736383  1
  Cu  Cu106  1  0.32824032  0.32150524  0.50109463  1
  Cu  Cu107  1  0.32296495  0.34552010  -0.00105707  1
  Cu  Cu108  1  0.00447968  0.00908928  0.49524128  1
  Cu  Cu109  1  0.33809497  0.00292570  0.00006963  1
  Cu  Cu110  1  0.83350001  0.16348136  0.75360953  1
  Cu  Cu111  1  0.84241680  0.17006455  0.24199083  1
  Cu  Cu112  1  0.33351862  0.67009261  0.00175223  1
  Cu  Cu113  1  0.83275970  0.82376702  0.23500200  1
  Cu  Cu114  1  0.49557600  0.83331010  0.24184255  1
  Se  Se115  1  0.07258627  0.07084571  0.05538972  1
  Se  Se116  1  0.08743670  0.08788397  0.55216338  1
  Se  Se117  1  0.09042489  0.41132544  0.06053771  1
  Se  Se118  1  0.08074912  0.40869610  0.56349381  1
  Se  Se119  1  0.09569551  0.77080375  0.03937971  1
  Se  Se120  1  0.07817486  0.74444403  0.55336607  1
  Se  Se121  1  0.40284340  0.08790786  0.06762337  1
  Se  Se122  1  0.41632661  0.08255395  0.55713858  1
  Se  Se123  1  0.41754193  0.42145122  0.04744779  1
  Se  Se124  1  0.40288620  0.40863056  0.56235826  1
  Se  Se125  1  0.41863850  0.75846642  0.04931413  1
  Se  Se126  1  0.42289876  0.75210885  0.55610751  1
  Se  Se127  1  0.74010762  0.07212987  0.05240714  1
  Se  Se128  1  0.74635330  0.07605166  0.56660097  1
  Se  Se129  1  0.74647407  0.40891224  0.04619343  1
  Se  Se130  1  0.74190402  0.41069349  0.56702876  1
  Se  Se131  1  0.74734923  0.73987107  0.04378190  1
  Se  Se132  1  0.74568898  0.74534015  0.56209056  1
  Se  Se133  1  0.25077638  0.26608152  0.06522128  1
  Se  Se134  1  0.24356406  0.24308040  0.55673912  1
  Se  Se135  1  0.24664623  0.58169050  0.04661588  1
  Se  Se136  1  0.25910751  0.59003301  0.56540263  1
  Se  Se137  1  0.25341221  0.92044743  0.05301979  1
  Se  Se138  1  0.25742659  0.92234972  0.56937064  1
  Se  Se139  1  0.58310961  0.25255133  0.06031688  1
  Se  Se140  1  0.57682538  0.24920109  0.55875593  1
  Se  Se141  1  0.56336487  0.56927192  0.04852560  1
  Se  Se142  1  0.58967768  0.59101400  0.55458713  1
  Se  Se143  1  0.58147225  0.92229055  0.04680692  1
  Se  Se144  1  0.57720314  0.91170647  0.55831586  1
  Se  Se145  1  0.92961455  0.24745188  0.06245014  1
  Se  Se146  1  0.92120271  0.25703502  0.55625415  1
  Se  Se147  1  0.91077018  0.56485212  0.05071443  1
  Se  Se148  1  0.92271011  0.59163832  0.55304494  1
  Se  Se149  1  0.89952629  0.90167242  0.03807978  1
  Se  Se150  1  0.92832088  0.92665906  0.55804420  1
  Se  Se151  1  0.09095760  0.24311671  0.43936972  1
  Se  Se152  1  0.08447627  0.25787732  0.94020215  1
  Se  Se153  1  0.08215064  0.58284910  0.43480067  1
  Se  Se154  1  0.07131759  0.59900637  0.95587635  1
  Se  Se155  1  0.07832393  0.92456469  0.43421513  1
  Se  Se156  1  0.09819842  0.91742871  0.95553952  1
  Se  Se157  1  0.41925009  0.24481033  0.44877520  1
  Se  Se158  1  0.40273555  0.25817942  0.94312992  1
  Se  Se159  1  0.40871947  0.58989577  0.43711825  1
  Se  Se160  1  0.41193594  0.58293406  0.94655081  1
  Se  Se161  1  0.41114924  0.91200425  0.45004015  1
  Se  Se162  1  0.42219097  0.92012638  0.94666067  1
  Se  Se163  1  0.74086238  0.25963085  0.44036183  1
  Se  Se164  1  0.74258368  0.25128537  0.93550201  1
  Se  Se165  1  0.74319117  0.59566224  0.43682422  1
  Se  Se166  1  0.74098519  0.58444583  0.96324235  1
  Se  Se167  1  0.73349958  0.92972940  0.44285061  1
  Se  Se168  1  0.77035385  0.91179870  0.95237354  1
  Se  Se169  1  0.24581651  0.07345594  0.43986708  1
  Se  Se170  1  0.25768552  0.08494481  0.94210638  1
  Se  Se171  1  0.25634082  0.40742393  0.43972419  1
  Se  Se172  1  0.23871932  0.42481314  0.94377005  1
  Se  Se173  1  0.25174161  0.74132260  0.44207960  1
  Se  Se174  1  0.25458521  0.75814931  0.94833706  1
  Se  Se175  1  0.57593697  0.09073894  0.45461140  1
  Se  Se176  1  0.59369393  0.07506960  0.94456747  1
  Se  Se177  1  0.59024338  0.41220234  0.43858125  1
  Se  Se178  1  0.57324078  0.41328953  0.94545810  1
  Se  Se179  1  0.57557958  0.75598263  0.43951396  1
  Se  Se180  1  0.59565487  0.73773090  0.95614671  1
  Se  Se181  1  0.91983635  0.08202901  0.43307554  1
  Se  Se182  1  0.93049631  0.07934525  0.94292797  1
  Se  Se183  1  0.93262020  0.41170299  0.43988694  1
  Se  Se184  1  0.91093237  0.41197681  0.95464898  1
  Se  Se185  1  0.91996053  0.75346993  0.43223708  1
  Se  Se186  1  0.93433909  0.74794024  0.96391085  1
  Se  Se187  1  0.27358107  0.26380154  0.30720504  1
  Se  Se188  1  0.24858647  0.25390719  0.80115719  1
  Se  Se189  1  0.24457834  0.57105719  0.30494284  1
  Se  Se190  1  0.23736486  0.58717294  0.80664757  1
  Se  Se191  1  0.24310092  0.89849543  0.29462232  1
  Se  Se192  1  0.25792565  0.92186162  0.80639936  1
  Se  Se193  1  0.58320718  0.24294198  0.30758117  1
  Se  Se194  1  0.57902219  0.24737633  0.80083143  1
  Se  Se195  1  0.59112834  0.59534773  0.28873178  1
  Se  Se196  1  0.57369846  0.57523869  0.81999989  1
  Se  Se197  1  0.57132702  0.91350320  0.30813225  1
  Se  Se198  1  0.59461565  0.91141180  0.81123363  1
  Se  Se199  1  0.92415674  0.25663795  0.29383998  1
  Se  Se200  1  0.91686674  0.25064993  0.80328229  1
  Se  Se201  1  0.92200940  0.59026732  0.29172089  1
  Se  Se202  1  0.90342465  0.58366039  0.82394259  1
  Se  Se203  1  0.90728943  0.91331451  0.29173564  1
  Se  Se204  1  0.92989369  0.91890476  0.81129086  1
  Se  Se205  1  0.05650984  0.05112849  0.30632157  1
  Se  Se206  1  0.08613434  0.08143869  0.80564785  1
  Se  Se207  1  0.09074467  0.41717868  0.29194406  1
  Se  Se208  1  0.06261728  0.42224653  0.81024399  1
  Se  Se209  1  0.07455469  0.74190339  0.29128865  1
  Se  Se210  1  0.09370490  0.76135681  0.82169977  1
  Se  Se211  1  0.41260961  0.07598993  0.30997756  1
  Se  Se212  1  0.41616815  0.07743855  0.80350354  1
  Se  Se213  1  0.43692498  0.42391905  0.29630477  1
  Se  Se214  1  0.40661693  0.41615261  0.80833573  1
  Se  Se215  1  0.41718708  0.75302893  0.30495157  1
  Se  Se216  1  0.41968229  0.74915571  0.80849588  1
  Se  Se217  1  0.76049971  0.09241549  0.30351932  1
  Se  Se218  1  0.75142314  0.07659975  0.80397890  1
  Se  Se219  1  0.76527470  0.43112073  0.30801509  1
  Se  Se220  1  0.74145245  0.41550516  0.81223369  1
  Se  Se221  1  0.74502105  0.75020561  0.29366818  1
  Se  Se222  1  0.76535333  0.75795318  0.82846890  1
  Se  Se223  1  0.23939302  0.07893072  0.20417481  1
  Se  Se224  1  0.24945205  0.08341991  0.69830558  1
  Se  Se225  1  0.27465826  0.40841116  0.19545256  1
  Se  Se226  1  0.23580825  0.42361450  0.70456677  1
  Se  Se227  1  0.23533499  0.74389044  0.17300567  1
  Se  Se228  1  0.25364606  0.74873898  0.70516053  1
  Se  Se229  1  0.57535860  0.08591079  0.19258472  1
  Se  Se230  1  0.58448790  0.07662897  0.69813659  1
  Se  Se231  1  0.59136617  0.42725139  0.17559963  1
  Se  Se232  1  0.58075462  0.41442992  0.70615851  1
  Se  Se233  1  0.58337337  0.75487930  0.19020953  1
  Se  Se234  1  0.58430486  0.74592260  0.69688187  1
  Se  Se235  1  0.91524634  0.07920983  0.18826975  1
  Se  Se236  1  0.91915990  0.08276168  0.69805845  1
  Se  Se237  1  0.92232796  0.41553401  0.19585414  1
  Se  Se238  1  0.91332072  0.42077809  0.70399721  1
  Se  Se239  1  0.92274413  0.74691323  0.18216965  1
  Se  Se240  1  0.91755675  0.75446333  0.69784533  1
  Se  Se241  1  0.10515288  0.23458183  0.20561921  1
  Se  Se242  1  0.07638186  0.25059297  0.69854745  1
  Se  Se243  1  0.09342681  0.58018278  0.18902299  1
  Se  Se244  1  0.08682905  0.57994809  0.69419188  1
  Se  Se245  1  0.07649788  0.91344393  0.18464893  1
  Se  Se246  1  0.08389588  0.91995398  0.70426618  1
  Se  Se247  1  0.41985426  0.24889328  0.19822751  1
  Se  Se248  1  0.41279240  0.24812882  0.69742514  1
  Se  Se249  1  0.42196463  0.58475799  0.18148511  1
  Se  Se250  1  0.41438709  0.58824217  0.70534457  1
  Se  Se251  1  0.40928585  0.91939765  0.19659265  1
  Se  Se252  1  0.42246294  0.91138243  0.70141449  1
  Se  Se253  1  0.75776312  0.25047292  0.18611355  1
  Se  Se254  1  0.74677350  0.24936406  0.70291897  1
  Se  Se255  1  0.74862926  0.59000820  0.18574786  1
  Se  Se256  1  0.75068035  0.57831182  0.70130984  1
  Se  Se257  1  0.75067189  0.90549218  0.17688689  1
  Se  Se258  1  0.75401095  0.90958832  0.70798722  1
