# generated using pymatgen
data_In86Cu29Se144
_symmetry_space_group_name_H-M   'P 1'
_cell_length_a   17.58148521
_cell_length_b   17.57733537
_cell_length_c   23.43027461
_cell_angle_alpha   89.99730484
_cell_angle_beta   89.99606434
_cell_angle_gamma   90.00787716
_symmetry_Int_Tables_number   1
_chemical_formula_structural   In86Cu29Se144
_chemical_formula_sum   'In86 Cu29 Se144'
_cell_volume   7240.79032725
_cell_formula_units_Z   1
loop_
 _symmetry_equiv_pos_site_id
 _symmetry_equiv_pos_as_xyz
  1  'x, y, z'
loop_
 _atom_site_type_symbol
 _atom_site_label
 _atom_site_symmetry_multiplicity
 _atom_site_fract_x
 _atom_site_fract_y
 _atom_site_fract_z
 _atom_site_occupancy
  In  In0  1  0.02139048  0.19306698  0.09435563  1
  In  In1  1  -0.00876888  0.15928573  0.61995760  1
  In  In2  1  -0.01526157  0.47509079  0.09676168  1
  In  In3  1  -0.00863817  0.51118356  0.62351351  1
  In  In4  1  -0.00285265  0.83845435  0.12516183  1
  In  In5  1  0.02181212  0.83467644  0.62228281  1
  In  In6  1  0.33239116  0.18195593  0.12336936  1
  In  In7  1  0.33304400  0.16924487  0.62539436  1
  In  In8  1  0.32889952  0.49551796  0.11455768  1
  In  In9  1  0.34678169  0.48855522  0.63797549  1
  In  In10  1  0.33094889  0.81271480  0.11777219  1
  In  In11  1  0.33692908  0.83550600  0.62760660  1
  In  In12  1  0.66362868  0.15062641  0.12836576  1
  In  In13  1  0.66870623  0.16578494  0.61984831  1
  In  In14  1  0.66134285  0.49496963  0.11979511  1
  In  In15  1  0.66303791  0.49222459  0.62114860  1
  In  In16  1  0.66087878  0.84332401  0.12507426  1
  In  In17  1  0.66261722  0.85677129  0.62059548  1
  In  In18  1  0.16316139  0.00039266  0.38917912  1
  In  In19  1  0.17123456  0.00499857  0.86947239  1
  In  In20  1  0.16172010  0.32785326  0.36759452  1
  In  In21  1  0.16893665  0.32322569  0.88367901  1
  In  In22  1  0.17770568  0.66245602  0.38008965  1
  In  In23  1  0.17474498  0.65210248  0.88029582  1
  In  In24  1  0.50782006  -0.00775424  0.38893827  1
  In  In25  1  0.49475273  -0.00037648  0.86217587  1
  In  In26  1  0.48539384  0.34080535  0.38208207  1
  In  In27  1  0.50903283  0.33766020  0.86913603  1
  In  In28  1  0.49758082  0.66475805  0.38481328  1
  In  In29  1  0.48715228  0.67541028  0.88532806  1
  In  In30  1  0.83366653  0.01398247  0.37871439  1
  In  In31  1  0.84472493  0.01487302  0.86148902  1
  In  In32  1  0.83988835  0.32191236  0.37652283  1
  In  In33  1  0.83140652  0.33691819  0.88278565  1
  In  In34  1  0.82518072  0.66206871  0.37813781  1
  In  In35  1  0.83810971  0.65748409  0.87931636  1
  In  In36  1  -0.00495091  0.17490031  0.37943706  1
  In  In37  1  0.01199346  0.15534696  0.89420549  1
  In  In38  1  0.00745074  0.48084752  0.37062289  1
  In  In39  1  0.00926874  0.48823751  0.89956756  1
  In  In40  1  -0.00059913  0.84443731  0.38316782  1
  In  In41  1  -0.00606950  0.83969945  0.87052810  1
  In  In42  1  0.32275866  0.17745439  0.38406162  1
  In  In43  1  0.32712766  0.15930126  0.86528425  1
  In  In44  1  0.34346246  0.49361679  0.37405282  1
  In  In45  1  0.33911478  0.49879303  0.87434219  1
  In  In46  1  0.33066010  0.83007311  0.38831725  1
  In  In47  1  0.34217126  0.84278979  0.86588922  1
  In  In48  1  0.67351983  0.15351417  0.38668277  1
  In  In49  1  0.67266002  0.17412753  0.86400663  1
  In  In50  1  0.66027596  0.49960846  0.38035641  1
  In  In51  1  0.67162814  0.48952908  0.87924527  1
  In  In52  1  0.65033420  0.83791585  0.38198629  1
  In  In53  1  0.65681709  0.83448313  0.86971123  1
  In  In54  1  0.15262295  0.01026140  0.11772724  1
  In  In55  1  0.17077545  0.00327088  0.62917919  1
  In  In56  1  0.16845495  0.33703870  0.11954142  1
  In  In57  1  0.18133284  0.33371559  0.62938112  1
  In  In58  1  0.16831034  0.64372789  0.11255423  1
  In  In59  1  0.17082906  0.68779201  0.62524887  1
  In  In60  1  0.50940935  0.00032356  0.12477336  1
  In  In61  1  0.50207203  0.00144776  0.62015048  1
  In  In62  1  0.48563686  0.33479681  0.13109792  1
  In  In63  1  0.50316734  0.33555939  0.62571944  1
  In  In64  1  0.48461119  0.66250101  0.10537488  1
  In  In65  1  0.49296453  0.65663929  0.62221010  1
  In  In66  1  0.82572561  0.00336416  0.12270031  1
  In  In67  1  0.81920201  0.01931917  0.63637523  1
  In  In68  1  0.83910883  0.33401555  0.11579679  1
  In  In69  1  0.82577288  0.32138165  0.61694581  1
  In  In70  1  0.83793279  0.64965265  0.11993746  1
  In  In71  1  0.84752668  0.65790286  0.61984453  1
  In  In72  1  0.83034143  0.83557589  0.00195804  1
  In  In73  1  0.33440564  0.66003386  0.24467488  1
  In  In74  1  0.66295641  0.33167026  0.25534569  1
  In  In75  1  0.65703242  0.66977094  0.25756918  1
  In  In76  1  0.00492606  0.66547694  0.75747575  1
  In  In77  1  -0.00429615  0.01337170  0.24964225  1
  In  In78  1  0.16393451  0.50203059  0.50414799  1
  In  In79  1  0.00127182  0.66514004  0.24331347  1
  In  In80  1  0.66473666  0.66550689  0.75112334  1
  In  In81  1  0.50267501  0.16949439  0.00058621  1
  In  In82  1  -0.00151016  0.33049421  0.76033983  1
  In  In83  1  0.16834054  0.83438998  -0.00106284  1
  In  In84  1  0.34000364  0.00333173  0.25325058  1
  In  In85  1  0.83551006  0.83322909  0.50601267  1
  Cu  Cu86  1  0.50018884  0.50015036  0.75145530  1
  Cu  Cu87  1  0.00093167  0.33168269  0.49710399  1
  Cu  Cu88  1  0.83181671  0.49071831  0.75434717  1
  Cu  Cu89  1  0.16587868  0.17495531  0.24475134  1
  Cu  Cu90  1  0.50038648  0.83511570  0.25186697  1
  Cu  Cu91  1  0.50051633  0.16907963  0.74081364  1
  Cu  Cu92  1  0.00588820  -0.00285803  0.50705299  1
  Cu  Cu93  1  0.16725308  0.83184692  0.25617172  1
  Cu  Cu94  1  0.66663454  0.33360554  -0.00131578  1
  Cu  Cu95  1  0.50186046  0.16653685  0.25613360  1
  Cu  Cu96  1  0.66412541  0.66344816  0.50233487  1
  Cu  Cu97  1  0.83632382  0.83800189  0.74635185  1
  Cu  Cu98  1  0.33056966  0.66764998  0.50627608  1
  Cu  Cu99  1  0.82180144  0.84365615  0.24549797  1
  Cu  Cu100  1  0.17406766  0.50221769  0.75312729  1
  Cu  Cu101  1  0.16368785  0.16758876  0.75181500  1
  Cu  Cu102  1  0.33208306  -0.00096708  0.50812290  1
  Cu  Cu103  1  0.33512969  0.33305051  0.50626657  1
  Cu  Cu104  1  0.83888944  0.49389782  0.24267273  1
  Cu  Cu105  1  0.17531288  0.84055039  0.74908444  1
  Cu  Cu106  1  0.83036450  0.16946846  0.74679430  1
  Cu  Cu107  1  0.66510249  0.33352967  0.49927115  1
  Cu  Cu108  1  0.50159269  0.83701896  0.74602419  1
  Cu  Cu109  1  0.33269533  0.00115750  -0.00978726  1
  Cu  Cu110  1  0.66373821  -0.00240767  -0.00386253  1
  Cu  Cu111  1  0.33230233  0.33330185  -0.00305222  1
  Cu  Cu112  1  0.66671766  0.66188134  -0.00646988  1
  Cu  Cu113  1  0.16641383  0.48568471  0.24106300  1
  Cu  Cu114  1  0.83576904  0.16869327  0.25094123  1
  Se  Se115  1  0.08497702  0.08326850  0.03928348  1
  Se  Se116  1  0.08849181  0.08460469  0.55748466  1
  Se  Se117  1  0.11467465  0.44346546  0.05334108  1
  Se  Se118  1  0.07581636  0.40830065  0.56422806  1
  Se  Se119  1  0.07709477  0.74565827  0.06100269  1
  Se  Se120  1  0.06291425  0.72463088  0.55713627  1
  Se  Se121  1  0.40888697  0.07790820  0.05889868  1
  Se  Se122  1  0.41525903  0.08761296  0.55544795  1
  Se  Se123  1  0.41972519  0.41166738  0.05105432  1
  Se  Se124  1  0.41835350  0.42001600  0.55619184  1
  Se  Se125  1  0.42885753  0.77052090  0.04420974  1
  Se  Se126  1  0.41738626  0.75040280  0.55707977  1
  Se  Se127  1  0.74323424  0.08203178  0.05076137  1
  Se  Se128  1  0.75911587  0.08839365  0.55261626  1
  Se  Se129  1  0.74930624  0.41791859  0.05295570  1
  Se  Se130  1  0.75118397  0.41625348  0.55216770  1
  Se  Se131  1  0.74056567  0.74077821  0.06154053  1
  Se  Se132  1  0.74169184  0.74288467  0.56578100  1
  Se  Se133  1  0.24799204  0.24894866  0.04887878  1
  Se  Se134  1  0.24692547  0.24946264  0.55394218  1
  Se  Se135  1  0.28515318  0.61103559  0.05306055  1
  Se  Se136  1  0.25608223  0.58361293  0.56871189  1
  Se  Se137  1  0.25783143  0.92672501  0.06095855  1
  Se  Se138  1  0.24770654  0.91415389  0.55961740  1
  Se  Se139  1  0.58950889  0.25723709  0.06556917  1
  Se  Se140  1  0.58252192  0.25224287  0.55494294  1
  Se  Se141  1  0.58368735  0.58090464  0.05048409  1
  Se  Se142  1  0.58067558  0.57828056  0.55475951  1
  Se  Se143  1  0.57977714  0.91668818  0.04982831  1
  Se  Se144  1  0.58310006  0.92477996  0.54548199  1
  Se  Se145  1  0.89131753  0.22636268  0.05208374  1
  Se  Se146  1  0.91710798  0.24700589  0.54983377  1
  Se  Se147  1  0.92180819  0.58861476  0.04517937  1
  Se  Se148  1  0.90935335  0.57139928  0.54550364  1
  Se  Se149  1  0.92562905  0.92959674  0.05513460  1
  Se  Se150  1  0.92080649  0.92339918  0.56900077  1
  Se  Se151  1  0.08847474  0.25073231  0.44517332  1
  Se  Se152  1  0.06058827  0.27303485  0.94788004  1
  Se  Se153  1  0.07463337  0.58471415  0.43762776  1
  Se  Se154  1  0.08165903  0.59405688  0.95176262  1
  Se  Se155  1  0.08757692  0.90906560  0.45657110  1
  Se  Se156  1  0.07851275  0.92354376  0.93941937  1
  Se  Se157  1  0.41676636  0.24828089  0.45214073  1
  Se  Se158  1  0.41188120  0.25174328  0.93619014  1
  Se  Se159  1  0.40771264  0.58302857  0.44807455  1
  Se  Se160  1  0.42344621  0.57334664  0.94677280  1
  Se  Se161  1  0.41393283  0.91422983  0.45272215  1
  Se  Se162  1  0.42100275  0.92232144  0.93981649  1
  Se  Se163  1  0.75145727  0.25061929  0.44690713  1
  Se  Se164  1  0.74363299  0.24671145  0.94438996  1
  Se  Se165  1  0.74606676  0.58088416  0.44763217  1
  Se  Se166  1  0.75308226  0.57761861  0.94611720  1
  Se  Se167  1  0.74847781  0.92115076  0.44296421  1
  Se  Se168  1  0.74740142  0.92183854  0.93451520  1
  Se  Se169  1  0.25099627  0.08296668  0.45159892  1
  Se  Se170  1  0.24834279  0.08766416  0.94307143  1
  Se  Se171  1  0.25197463  0.41108703  0.44316409  1
  Se  Se172  1  0.25083749  0.41829171  0.94309070  1
  Se  Se173  1  0.24305002  0.74872106  0.45457783  1
  Se  Se174  1  0.26047371  0.75263257  0.93659702  1
  Se  Se175  1  0.58102620  0.08366764  0.45432596  1
  Se  Se176  1  0.58606970  0.08085577  0.93524944  1
  Se  Se177  1  0.57872171  0.41649969  0.44796290  1
  Se  Se178  1  0.57982405  0.41495407  0.94767211  1
  Se  Se179  1  0.57959019  0.74888184  0.45200167  1
  Se  Se180  1  0.58765171  0.75194799  0.94446900  1
  Se  Se181  1  0.92677532  0.07956840  0.44817292  1
  Se  Se182  1  0.90453808  0.08226530  0.94691631  1
  Se  Se183  1  0.91823016  0.41390737  0.44263242  1
  Se  Se184  1  0.91282371  0.41099070  0.95655077  1
  Se  Se185  1  0.92085530  0.74238890  0.44184255  1
  Se  Se186  1  0.92534763  0.74710073  0.94344308  1
  Se  Se187  1  0.25325642  0.24977849  0.30181650  1
  Se  Se188  1  0.24542410  0.25367717  0.80427970  1
  Se  Se189  1  0.23980595  0.56941952  0.30398949  1
  Se  Se190  1  0.25805719  0.58593407  0.80423916  1
  Se  Se191  1  0.24595867  0.91353623  0.31357062  1
  Se  Se192  1  0.25729368  0.92719707  0.80039694  1
  Se  Se193  1  0.57953559  0.24317122  0.32015993  1
  Se  Se194  1  0.58243671  0.25097191  0.79776545  1
  Se  Se195  1  0.56626034  0.57354688  0.30893646  1
  Se  Se196  1  0.57908863  0.57882106  0.81478580  1
  Se  Se197  1  0.57972337  0.91939444  0.30649278  1
  Se  Se198  1  0.58690020  0.92038233  0.79701716  1
  Se  Se199  1  0.92267473  0.25140175  0.30075363  1
  Se  Se200  1  0.90923271  0.23809573  0.81584645  1
  Se  Se201  1  0.91149586  0.57769359  0.30670411  1
  Se  Se202  1  0.91945238  0.56465707  0.81324810  1
  Se  Se203  1  0.90954979  0.91368131  0.30743237  1
  Se  Se204  1  0.92209315  0.92136586  0.79680401  1
  Se  Se205  1  0.09496708  0.09134396  0.31062840  1
  Se  Se206  1  0.07868597  0.08948755  0.80824847  1
  Se  Se207  1  0.07996465  0.40553632  0.29407714  1
  Se  Se208  1  0.08956882  0.42702050  0.81357319  1
  Se  Se209  1  0.08498377  0.75232998  0.31343867  1
  Se  Se210  1  0.09830467  0.75854662  0.81258416  1
  Se  Se211  1  0.42185065  0.08944487  0.31989803  1
  Se  Se212  1  0.41576277  0.08666250  0.79529608  1
  Se  Se213  1  0.41223967  0.40951725  0.30161579  1
  Se  Se214  1  0.41700161  0.41372424  0.80285705  1
  Se  Se215  1  0.41753429  0.75501670  0.31022402  1
  Se  Se216  1  0.42391712  0.75118941  0.80214693  1
  Se  Se217  1  0.75190892  0.08690678  0.30480932  1
  Se  Se218  1  0.74480411  0.08080254  0.79632265  1
  Se  Se219  1  0.75804408  0.42387563  0.30996736  1
  Se  Se220  1  0.74835993  0.40761600  0.80610072  1
  Se  Se221  1  0.75255073  0.76305866  0.31164090  1
  Se  Se222  1  0.76326930  0.75389903  0.80919985  1
  Se  Se223  1  0.24404480  0.08662870  0.19019686  1
  Se  Se224  1  0.25094408  0.08846272  0.69787427  1
  Se  Se225  1  0.25932100  0.41128471  0.19011186  1
  Se  Se226  1  0.25455700  0.41261300  0.70420271  1
  Se  Se227  1  0.23347641  0.74804193  0.19070792  1
  Se  Se228  1  0.25685010  0.75142955  0.70036221  1
  Se  Se229  1  0.57935889  0.07928320  0.20244072  1
  Se  Se230  1  0.58516368  0.08419284  0.69014814  1
  Se  Se231  1  0.57511697  0.42353468  0.19579184  1
  Se  Se232  1  0.58532008  0.41899850  0.69734312  1
  Se  Se233  1  0.57131547  0.75079124  0.18778338  1
  Se  Se234  1  0.58198259  0.75557104  0.68579270  1
  Se  Se235  1  0.91397745  0.09728770  0.18305190  1
  Se  Se236  1  0.92138752  0.08540814  0.70049027  1
  Se  Se237  1  0.92086802  0.41430916  0.18643996  1
  Se  Se238  1  0.91298352  0.41567503  0.69083360  1
  Se  Se239  1  0.90080648  0.75797503  0.19030781  1
  Se  Se240  1  0.91693016  0.75306429  0.69157289  1
  Se  Se241  1  0.08233637  0.25036415  0.18525475  1
  Se  Se242  1  0.08383688  0.24759071  0.69083297  1
  Se  Se243  1  0.08343467  0.56829579  0.18542745  1
  Se  Se244  1  0.09312798  0.57843363  0.69183910  1
  Se  Se245  1  0.09041373  0.91437880  0.19618702  1
  Se  Se246  1  0.08568435  0.91946365  0.69865909  1
  Se  Se247  1  0.41595994  0.24448655  0.20162315  1
  Se  Se248  1  0.41470110  0.25566303  0.69326838  1
  Se  Se249  1  0.42612942  0.57446194  0.18644642  1
  Se  Se250  1  0.41700080  0.58797791  0.70227667  1
  Se  Se251  1  0.41574963  0.90599313  0.18815972  1
  Se  Se252  1  0.41931667  0.92239949  0.69344088  1
  Se  Se253  1  0.75082813  0.24600599  0.19069430  1
  Se  Se254  1  0.74650331  0.25156807  0.69374840  1
  Se  Se255  1  0.74945423  0.57807156  0.19513228  1
  Se  Se256  1  0.76007082  0.57737141  0.69317923  1
  Se  Se257  1  0.74027039  0.92768751  0.19456935  1
  Se  Se258  1  0.74698355  0.91890179  0.69823356  1
