# generated using pymatgen
data_In86Cu29Se144
_symmetry_space_group_name_H-M   'P 1'
_cell_length_a   17.57793657
_cell_length_b   17.57703437
_cell_length_c   23.44203482
_cell_angle_alpha   89.98140686
_cell_angle_beta   90.01315045
_cell_angle_gamma   89.97329403
_symmetry_Int_Tables_number   1
_chemical_formula_structural   In86Cu29Se144
_chemical_formula_sum   'In86 Cu29 Se144'
_cell_volume   7242.83714582
_cell_formula_units_Z   1
loop_
 _symmetry_equiv_pos_site_id
 _symmetry_equiv_pos_as_xyz
  1  'x, y, z'
loop_
 _atom_site_type_symbol
 _atom_site_label
 _atom_site_symmetry_multiplicity
 _atom_site_fract_x
 _atom_site_fract_y
 _atom_site_fract_z
 _atom_site_occupancy
  In  In0  1  -0.01583301  0.16340109  0.12239643  1
  In  In1  1  0.00411503  0.16312396  0.63294197  1
  In  In2  1  0.01298940  0.50700898  0.12772943  1
  In  In3  1  0.00150501  0.50307203  0.62262252  1
  In  In4  1  -0.00534079  0.82983398  0.11883719  1
  In  In5  1  -0.00774541  0.82556671  0.62900852  1
  In  In6  1  0.34541678  0.16521828  0.12740149  1
  In  In7  1  0.35007414  0.16699135  0.62297906  1
  In  In8  1  0.33022495  0.50363730  0.13665181  1
  In  In9  1  0.33218152  0.50264598  0.62247088  1
  In  In10  1  0.33235117  0.82366419  0.11878822  1
  In  In11  1  0.31532828  0.83281875  0.62309700  1
  In  In12  1  0.65986783  0.17761133  0.13361619  1
  In  In13  1  0.65628417  0.16034475  0.62504270  1
  In  In14  1  0.66768584  0.49836525  0.13587543  1
  In  In15  1  0.66633046  0.50263749  0.61052789  1
  In  In16  1  0.66717457  0.83801284  0.12406919  1
  In  In17  1  0.68840723  0.83444410  0.62754181  1
  In  In18  1  0.16183485  -0.02045142  0.37588853  1
  In  In19  1  0.15116299  -0.00950891  0.87082673  1
  In  In20  1  0.18008167  0.33710993  0.37613459  1
  In  In21  1  0.16775534  0.33009406  0.86631165  1
  In  In22  1  0.16229633  0.66665599  0.37708889  1
  In  In23  1  0.17174455  0.66909517  0.86900682  1
  In  In24  1  0.51746591  -0.00142301  0.37513732  1
  In  In25  1  0.51166859  -0.00985409  0.88926038  1
  In  In26  1  0.50110102  0.33388082  0.37717604  1
  In  In27  1  0.48928379  0.33490948  0.87933509  1
  In  In28  1  0.48898869  0.65512893  0.36711121  1
  In  In29  1  0.50071063  0.67957567  0.87493082  1
  In  In30  1  0.82320166  -0.00620136  0.37558447  1
  In  In31  1  0.82104350  -0.01409589  0.85829380  1
  In  In32  1  0.83465949  0.34496868  0.37429821  1
  In  In33  1  0.83650804  0.32754951  0.87257536  1
  In  In34  1  0.83301710  0.66875871  0.37418002  1
  In  In35  1  0.84935311  0.67387379  0.86982387  1
  In  In36  1  -0.01289812  0.16241810  0.37595967  1
  In  In37  1  0.00194776  0.16811661  0.86459498  1
  In  In38  1  -0.01389432  0.51370789  0.38631051  1
  In  In39  1  -0.00038803  0.50222368  0.86327589  1
  In  In40  1  0.01911287  0.81432306  0.39079950  1
  In  In41  1  -0.00226684  0.83516577  0.87808206  1
  In  In42  1  0.33152097  0.18646774  0.37610604  1
  In  In43  1  0.33596022  0.17573903  0.87486129  1
  In  In44  1  0.33342571  0.50049318  0.38009816  1
  In  In45  1  0.32856144  0.49510132  0.86376427  1
  In  In46  1  0.32727912  0.81855123  0.37003363  1
  In  In47  1  0.33744135  0.82512386  0.87726153  1
  In  In48  1  0.66047300  0.15323669  0.36708201  1
  In  In49  1  0.67286690  0.14992813  0.88628781  1
  In  In50  1  0.66614481  0.49938425  0.37340934  1
  In  In51  1  0.66075482  0.49924160  0.87678846  1
  In  In52  1  0.67394662  0.84354422  0.36571448  1
  In  In53  1  0.66481436  0.84417207  0.88604828  1
  In  In54  1  0.17263465  -0.00791826  0.11929038  1
  In  In55  1  0.15695017  -0.01892245  0.61696280  1
  In  In56  1  0.16688478  0.34650552  0.12843238  1
  In  In57  1  0.15726375  0.34476043  0.62978417  1
  In  In58  1  0.15818938  0.68503349  0.14493019  1
  In  In59  1  0.16467475  0.66654621  0.62408443  1
  In  In60  1  0.51582487  0.01141672  0.11053759  1
  In  In61  1  0.49963310  0.01158747  0.62367989  1
  In  In62  1  0.51118920  0.31956050  0.13310305  1
  In  In63  1  0.49627856  0.32839828  0.62047274  1
  In  In64  1  0.49349303  0.67176121  0.13315839  1
  In  In65  1  0.50351316  0.65483358  0.62246866  1
  In  In66  1  0.83533640  -0.00972735  0.12649346  1
  In  In67  1  0.85322778  -0.03027937  0.65043361  1
  In  In68  1  0.81956821  0.32374921  0.12471113  1
  In  In69  1  0.83763713  0.34722561  0.61995218  1
  In  In70  1  0.82298433  0.67731466  0.13622875  1
  In  In71  1  0.84622567  0.68298476  0.61520986  1
  In  In72  1  0.34078109  -0.00421653  0.24900460  1
  In  In73  1  0.83115410  0.16371290  0.00035147  1
  In  In74  1  -0.00433946  -0.00698980  0.24821014  1
  In  In75  1  0.49839903  0.50136186  0.00439127  1
  In  In76  1  0.83297579  0.50469461  0.00001775  1
  In  In77  1  0.33202533  0.00289076  0.74454259  1
  In  In78  1  0.82683532  0.15935239  0.49893992  1
  In  In79  1  0.16839637  0.50366471  0.00336845  1
  In  In80  1  0.17049443  0.16698856  0.50509931  1
  In  In81  1  -0.00279639  0.33934769  0.24947579  1
  In  In82  1  0.17039816  0.16201414  -0.01249160  1
  In  In83  1  0.66789509  0.32970527  0.75176478  1
  In  In84  1  0.66964596  0.67126031  0.74905115  1
  In  In85  1  0.49954996  0.83122023  0.49218784  1
  Cu  Cu86  1  0.66893248  -0.00152593  0.50041884  1
  Cu  Cu87  1  0.32837390  0.66578079  0.49753605  1
  Cu  Cu88  1  0.83897885  0.50670853  0.74173612  1
  Cu  Cu89  1  0.49760832  0.17157263  0.25011493  1
  Cu  Cu90  1  0.33633662  0.32879164  0.00392115  1
  Cu  Cu91  1  0.33696580  -0.01078566  0.00083195  1
  Cu  Cu92  1  0.16395636  0.16869492  0.25338754  1
  Cu  Cu93  1  0.15823574  0.82603808  0.74754513  1
  Cu  Cu94  1  0.33940763  0.34311270  0.50023710  1
  Cu  Cu95  1  0.49156848  0.49663786  0.74419717  1
  Cu  Cu96  1  0.00466604  0.33546679  0.50103812  1
  Cu  Cu97  1  0.83272843  0.50378061  0.25545681  1
  Cu  Cu98  1  0.83504921  0.16849755  0.75158084  1
  Cu  Cu99  1  0.33312066  0.00279081  0.50074556  1
  Cu  Cu100  1  0.50081107  0.16546601  0.75129650  1
  Cu  Cu101  1  0.83825866  0.82789665  0.25027644  1
  Cu  Cu102  1  0.50612685  0.83605969  0.24547629  1
  Cu  Cu103  1  -0.00212050  -0.00301913  -0.00491269  1
  Cu  Cu104  1  0.33331983  0.66858942  -0.00034252  1
  Cu  Cu105  1  0.00071625  0.67312429  0.00207860  1
  Cu  Cu106  1  0.67228532  0.67564068  0.00485793  1
  Cu  Cu107  1  0.17394637  0.16980149  0.74652954  1
  Cu  Cu108  1  0.66708844  0.66439243  0.49329466  1
  Cu  Cu109  1  0.66285869  0.33333060  0.49779349  1
  Cu  Cu110  1  -0.00004006  0.66610602  0.50311837  1
  Cu  Cu111  1  0.49860414  0.49534669  0.25572156  1
  Cu  Cu112  1  0.16745239  0.50284143  0.74343133  1
  Cu  Cu113  1  0.49917193  0.83478265  0.75594018  1
  Cu  Cu114  1  0.16909303  0.50435484  0.25735827  1
  Se  Se115  1  0.07655873  0.07949874  0.05564956  1
  Se  Se116  1  0.07189750  0.07655397  0.55473272  1
  Se  Se117  1  0.07232705  0.40804662  0.05377686  1
  Se  Se118  1  0.08640218  0.42147306  0.55200689  1
  Se  Se119  1  0.09002459  0.74722710  0.05797162  1
  Se  Se120  1  0.08094298  0.75148783  0.55741611  1
  Se  Se121  1  0.41093270  0.08245992  0.05151905  1
  Se  Se122  1  0.42125894  0.08548207  0.54725766  1
  Se  Se123  1  0.40956389  0.41242407  0.06588029  1
  Se  Se124  1  0.42348546  0.42341840  0.55553001  1
  Se  Se125  1  0.42365662  0.74556211  0.05200551  1
  Se  Se126  1  0.41054967  0.74650318  0.55790770  1
  Se  Se127  1  0.74468969  0.08164582  0.06633114  1
  Se  Se128  1  0.74860870  0.07070583  0.56654759  1
  Se  Se129  1  0.73938860  0.41488352  0.05637972  1
  Se  Se130  1  0.75114734  0.41572040  0.54715531  1
  Se  Se131  1  0.75789616  0.75606191  0.05674894  1
  Se  Se132  1  0.74613610  0.74920967  0.54875473  1
  Se  Se133  1  0.24825192  0.25179116  0.06039643  1
  Se  Se134  1  0.25943278  0.26082067  0.56179977  1
  Se  Se135  1  0.25472250  0.59335009  0.06395048  1
  Se  Se136  1  0.24673192  0.58350191  0.55404811  1
  Se  Se137  1  0.24930217  0.90801561  0.05031031  1
  Se  Se138  1  0.24855548  0.91437817  0.54565651  1
  Se  Se139  1  0.57869556  0.24377665  0.05519370  1
  Se  Se140  1  0.58491930  0.24823240  0.55408125  1
  Se  Se141  1  0.59299273  0.59029336  0.06160272  1
  Se  Se142  1  0.57934902  0.58394135  0.54436683  1
  Se  Se143  1  0.58173909  0.90857170  0.05060896  1
  Se  Se144  1  0.58545977  0.91669963  0.55967369  1
  Se  Se145  1  0.92248831  0.26386990  0.05356949  1
  Se  Se146  1  0.92383079  0.25026179  0.55723758  1
  Se  Se147  1  0.92199047  0.59229268  0.06297607  1
  Se  Se148  1  0.91365987  0.58062638  0.55311634  1
  Se  Se149  1  0.91502513  0.91693749  0.05140756  1
  Se  Se150  1  0.90630648  0.90811046  0.56097398  1
  Se  Se151  1  0.07827170  0.25259745  0.43876602  1
  Se  Se152  1  0.07606422  0.25838605  0.93987232  1
  Se  Se153  1  0.08477240  0.58311766  0.45004231  1
  Se  Se154  1  0.07539217  0.58810828  0.94127218  1
  Se  Se155  1  0.07964984  0.92035602  0.45298696  1
  Se  Se156  1  0.08695701  0.91130335  0.95000549  1
  Se  Se157  1  0.41830117  0.25230218  0.44982532  1
  Se  Se158  1  0.41837936  0.24574950  0.95083156  1
  Se  Se159  1  0.41796831  0.58460717  0.44846055  1
  Se  Se160  1  0.40827384  0.58440776  0.93827689  1
  Se  Se161  1  0.40784030  0.92349156  0.43361217  1
  Se  Se162  1  0.41934504  0.90487273  0.94776501  1
  Se  Se163  1  0.74341968  0.25310279  0.43709426  1
  Se  Se164  1  0.74234704  0.26205720  0.94371897  1
  Se  Se165  1  0.75269773  0.58033968  0.44187571  1
  Se  Se166  1  0.74350953  0.59599436  0.93764080  1
  Se  Se167  1  0.74760325  0.91070133  0.44819920  1
  Se  Se168  1  0.75142168  0.93274342  0.94584066  1
  Se  Se169  1  0.25338049  0.07934850  0.43575157  1
  Se  Se170  1  0.26057375  0.06557751  0.93307549  1
  Se  Se171  1  0.24741011  0.42082937  0.45106246  1
  Se  Se172  1  0.25667701  0.40852074  0.94289149  1
  Se  Se173  1  0.24588159  0.75199508  0.44703103  1
  Se  Se174  1  0.24724678  0.74744383  0.94462175  1
  Se  Se175  1  0.58601563  0.08444839  0.44922538  1
  Se  Se176  1  0.57425718  0.09167851  0.95341154  1
  Se  Se177  1  0.58225911  0.41983338  0.44496027  1
  Se  Se178  1  0.58951471  0.40801689  0.94690276  1
  Se  Se179  1  0.58842232  0.74439098  0.43050492  1
  Se  Se180  1  0.58404776  0.74987152  0.94804693  1
  Se  Se181  1  0.92231454  0.06687959  0.44565543  1
  Se  Se182  1  0.92182811  0.08103767  0.93557248  1
  Se  Se183  1  0.91479837  0.41512745  0.45034802  1
  Se  Se184  1  0.92300315  0.41659118  0.93875759  1
  Se  Se185  1  0.91300303  0.74695897  0.44875381  1
  Se  Se186  1  0.91424266  0.75301624  0.94901669  1
  Se  Se187  1  0.24944021  0.25521828  0.29974375  1
  Se  Se188  1  0.25740592  0.25136784  0.80012873  1
  Se  Se189  1  0.25323408  0.58605713  0.31096125  1
  Se  Se190  1  0.25079225  0.58482469  0.79917754  1
  Se  Se191  1  0.24255434  0.90511601  0.29914241  1
  Se  Se192  1  0.24500249  0.90842845  0.80384012  1
  Se  Se193  1  0.58236875  0.25029736  0.30661888  1
  Se  Se194  1  0.57988595  0.24358201  0.81503895  1
  Se  Se195  1  0.58489840  0.58236067  0.30266984  1
  Se  Se196  1  0.57319283  0.57633444  0.80514370  1
  Se  Se197  1  0.58744141  0.92331856  0.29677279  1
  Se  Se198  1  0.58198594  0.91596931  0.80928569  1
  Se  Se199  1  0.90691212  0.24486806  0.30516761  1
  Se  Se200  1  0.91891183  0.25634106  0.79921033  1
  Se  Se201  1  0.91944496  0.58681001  0.30454800  1
  Se  Se202  1  0.92054694  0.58992437  0.79646206  1
  Se  Se203  1  0.91687478  0.90357665  0.31517358  1
  Se  Se204  1  0.93765940  0.93236125  0.80750930  1
  Se  Se205  1  0.08794017  0.08584456  0.31122859  1
  Se  Se206  1  0.09099885  0.08647859  0.80022081  1
  Se  Se207  1  0.08320654  0.42445009  0.31573877  1
  Se  Se208  1  0.08765173  0.41812977  0.80052758  1
  Se  Se209  1  0.08371284  0.75054303  0.30623521  1
  Se  Se210  1  0.07749771  0.74815455  0.80769912  1
  Se  Se211  1  0.42101111  0.09050867  0.31326673  1
  Se  Se212  1  0.42233766  0.08202545  0.81152854  1
  Se  Se213  1  0.41314512  0.41493247  0.31001885  1
  Se  Se214  1  0.41658620  0.41000781  0.80097315  1
  Se  Se215  1  0.42303028  0.75529200  0.30097862  1
  Se  Se216  1  0.41366004  0.74709657  0.80102622  1
  Se  Se217  1  0.75519542  0.07960761  0.30391497  1
  Se  Se218  1  0.74524925  0.08931831  0.80165386  1
  Se  Se219  1  0.74852618  0.41598447  0.30229059  1
  Se  Se220  1  0.75850315  0.43039305  0.80576656  1
  Se  Se221  1  0.74950733  0.74795061  0.30247046  1
  Se  Se222  1  0.75256606  0.76079121  0.81214658  1
  Se  Se223  1  0.24241118  0.08779202  0.19218893  1
  Se  Se224  1  0.24195645  0.08725625  0.67937147  1
  Se  Se225  1  0.24755157  0.41704654  0.20328652  1
  Se  Se226  1  0.25368787  0.41758963  0.69400751  1
  Se  Se227  1  0.27248410  0.74077819  0.19817758  1
  Se  Se228  1  0.24828787  0.74729923  0.69671413  1
  Se  Se229  1  0.57658953  0.08478787  0.19566704  1
  Se  Se230  1  0.58240888  0.07948658  0.70024113  1
  Se  Se231  1  0.58193387  0.41412509  0.19999831  1
  Se  Se232  1  0.58396287  0.42351443  0.68898457  1
  Se  Se233  1  0.58952771  0.74972134  0.19427554  1
  Se  Se234  1  0.57643607  0.75904130  0.68773304  1
  Se  Se235  1  0.90320615  0.09113363  0.19792159  1
  Se  Se236  1  0.91994647  0.08333348  0.70162887  1
  Se  Se237  1  0.90730397  0.42722759  0.18646132  1
  Se  Se238  1  0.92128933  0.41661548  0.69398829  1
  Se  Se239  1  0.92548745  0.74879957  0.19650219  1
  Se  Se240  1  0.90242585  0.75422246  0.70000116  1
  Se  Se241  1  0.08407293  0.24231246  0.18824329  1
  Se  Se242  1  0.08455300  0.25224077  0.69727457  1
  Se  Se243  1  0.08263592  0.58497778  0.20447918  1
  Se  Se244  1  0.08023219  0.58620802  0.69401772  1
  Se  Se245  1  0.09115590  0.90871259  0.18960331  1
  Se  Se246  1  0.07935984  0.91407720  0.69511220  1
  Se  Se247  1  0.41047913  0.25460611  0.20028421  1
  Se  Se248  1  0.42084727  0.25058419  0.69743883  1
  Se  Se249  1  0.41852792  0.58276746  0.20200127  1
  Se  Se250  1  0.41404065  0.58703724  0.69371213  1
  Se  Se251  1  0.42727839  0.91478927  0.18188729  1
  Se  Se252  1  0.42177246  0.90804739  0.68691758  1
  Se  Se253  1  0.74774252  0.25355854  0.20220612  1
  Se  Se254  1  0.75800331  0.24635922  0.68618800  1
  Se  Se255  1  0.74719660  0.58598848  0.20188350  1
  Se  Se256  1  0.75301708  0.58177670  0.68346436  1
  Se  Se257  1  0.75405642  0.91217064  0.19791299  1
  Se  Se258  1  0.73245399  0.92792839  0.70417557  1
