# generated using pymatgen
data_In86Cu29Se144
_symmetry_space_group_name_H-M   'P 1'
_cell_length_a   17.58053866
_cell_length_b   17.57952790
_cell_length_c   23.44216407
_cell_angle_alpha   89.99616647
_cell_angle_beta   90.01034901
_cell_angle_gamma   89.99813963
_symmetry_Int_Tables_number   1
_chemical_formula_structural   In86Cu29Se144
_chemical_formula_sum   'In86 Cu29 Se144'
_cell_volume   7244.97811941
_cell_formula_units_Z   1
loop_
 _symmetry_equiv_pos_site_id
 _symmetry_equiv_pos_as_xyz
  1  'x, y, z'
loop_
 _atom_site_type_symbol
 _atom_site_label
 _atom_site_symmetry_multiplicity
 _atom_site_fract_x
 _atom_site_fract_y
 _atom_site_fract_z
 _atom_site_occupancy
  In  In0  1  -0.00228418  0.16462854  0.12105805  1
  In  In1  1  -0.02386997  0.18856259  0.62720943  1
  In  In2  1  -0.00196259  0.49452747  0.12138659  1
  In  In3  1  -0.01217340  0.47660044  0.60517387  1
  In  In4  1  0.00706019  0.84084347  0.12055235  1
  In  In5  1  -0.00876454  0.84322512  0.62254169  1
  In  In6  1  0.31980117  0.15002404  0.11129197  1
  In  In7  1  0.34645196  0.16228908  0.62838817  1
  In  In8  1  0.33168507  0.51224310  0.13032569  1
  In  In9  1  0.32846484  0.49752417  0.62556685  1
  In  In10  1  0.32320169  0.84012289  0.13190575  1
  In  In11  1  0.33419123  0.81732379  0.62373547  1
  In  In12  1  0.66055734  0.15887588  0.11802704  1
  In  In13  1  0.66609074  0.16625307  0.62620852  1
  In  In14  1  0.67138749  0.49071990  0.12664363  1
  In  In15  1  0.64507784  0.47015649  0.59989668  1
  In  In16  1  0.68193889  0.83853339  0.12370933  1
  In  In17  1  0.66538146  0.83650535  0.61826639  1
  In  In18  1  0.16428276  0.00670648  0.35731578  1
  In  In19  1  0.16058847  0.00781652  0.88686819  1
  In  In20  1  0.17772490  0.33283749  0.37718967  1
  In  In21  1  0.17785474  0.32683240  0.88072342  1
  In  In22  1  0.17407870  0.65809841  0.37452836  1
  In  In23  1  0.17409080  0.65798591  0.88188051  1
  In  In24  1  0.50139942  -0.00084469  0.37248036  1
  In  In25  1  0.52001106  0.00233427  0.87077451  1
  In  In26  1  0.51163511  0.32966923  0.39961325  1
  In  In27  1  0.49169485  0.32431097  0.86463352  1
  In  In28  1  0.48823326  0.67681302  0.39150155  1
  In  In29  1  0.48762836  0.67366511  0.86631244  1
  In  In30  1  0.82934302  0.00476468  0.37100768  1
  In  In31  1  0.82336824  0.00901746  0.88274143  1
  In  In32  1  0.82923434  0.33866487  0.38859016  1
  In  In33  1  0.83198830  0.33190780  0.87420025  1
  In  In34  1  0.84407716  0.67003681  0.38207587  1
  In  In35  1  0.83920801  0.66012951  0.88106831  1
  In  In36  1  0.00058119  0.15305106  0.37093546  1
  In  In37  1  0.00003040  0.17001408  0.88128217  1
  In  In38  1  -0.00222085  0.50171467  0.38468488  1
  In  In39  1  -0.00332686  0.50352041  0.88009358  1
  In  In40  1  -0.00862234  0.84734437  0.37424390  1
  In  In41  1  -0.00525034  0.84059479  0.88744194  1
  In  In42  1  0.34070405  0.16633024  0.37484505  1
  In  In43  1  0.32514871  0.18007245  0.88202925  1
  In  In44  1  0.33396137  0.50688393  0.38838711  1
  In  In45  1  0.32883341  0.49095233  0.86534113  1
  In  In46  1  0.33495991  0.83695112  0.37088826  1
  In  In47  1  0.33526144  0.82241418  0.87389632  1
  In  In48  1  0.67452804  0.16406125  0.38343783  1
  In  In49  1  0.67055376  0.16491809  0.87368036  1
  In  In50  1  0.66807843  0.49841933  0.39082402  1
  In  In51  1  0.67983337  0.49453781  0.87236012  1
  In  In52  1  0.66026706  0.84141416  0.37665042  1
  In  In53  1  0.66742637  0.84616211  0.87252519  1
  In  In54  1  0.17005092  0.00145925  0.12604241  1
  In  In55  1  0.16647174  0.00444919  0.62633479  1
  In  In56  1  0.16177586  0.32916803  0.11481580  1
  In  In57  1  0.15698204  0.34756147  0.62882759  1
  In  In58  1  0.17038948  0.67213590  0.12122776  1
  In  In59  1  0.18314651  0.65247049  0.62953549  1
  In  In60  1  0.48962552  0.00739106  0.13365429  1
  In  In61  1  0.51379645  0.01779841  0.61211570  1
  In  In62  1  0.51409266  0.32639810  0.12780059  1
  In  In63  1  0.50104992  0.32519272  0.62721215  1
  In  In64  1  0.48992058  0.65770529  0.13296153  1
  In  In65  1  0.47450859  0.64818075  0.60541234  1
  In  In66  1  0.83488408  0.00287315  0.12667359  1
  In  In67  1  0.81945183  -0.00631242  0.62086640  1
  In  In68  1  0.83674249  0.33424080  0.11794879  1
  In  In69  1  0.79928176  0.30547921  0.58682806  1
  In  In70  1  0.83288818  0.66638983  0.12106101  1
  In  In71  1  0.82341304  0.65945237  0.61888572  1
  In  In72  1  0.65903274  0.66388955  0.74380756  1
  In  In73  1  -0.00110394  0.33170396  0.75421593  1
  In  In74  1  0.66825740  0.33037870  0.26425141  1
  In  In75  1  0.16426998  0.83107205  0.49208215  1
  In  In76  1  0.50141431  0.49666978  0.00342874  1
  In  In77  1  0.66379638  0.67075358  0.25216254  1
  In  In78  1  0.33857047  0.00091890  0.74817549  1
  In  In79  1  0.00440152  0.67072224  0.25872597  1
  In  In80  1  0.33741365  0.32926393  0.25699272  1
  In  In81  1  0.00632672  0.66358468  0.75229110  1
  In  In82  1  -0.00460333  0.00638259  0.75935197  1
  In  In83  1  0.16043372  0.17043511  0.50205936  1
  In  In84  1  -0.00203737  0.32874256  0.24469821  1
  In  In85  1  0.50182752  0.83511332  -0.00373068  1
  Cu  Cu86  1  0.83637312  0.84281401  0.24909375  1
  Cu  Cu87  1  0.16954963  0.49898536  0.25259216  1
  Cu  Cu88  1  0.67254218  0.00216551  -0.00054322  1
  Cu  Cu89  1  0.16908550  0.83188725  0.75415912  1
  Cu  Cu90  1  0.82483989  0.83131314  0.74591751  1
  Cu  Cu91  1  0.49884196  0.83400739  0.25698878  1
  Cu  Cu92  1  0.67103314  0.32983713  -0.00192816  1
  Cu  Cu93  1  0.00928601  0.67514389  0.49863446  1
  Cu  Cu94  1  0.50113950  0.49745034  0.73754019  1
  Cu  Cu95  1  0.00031287  0.66691364  0.00384330  1
  Cu  Cu96  1  0.33530548  -0.00425290  0.49544360  1
  Cu  Cu97  1  0.50625306  0.16669343  0.74901088  1
  Cu  Cu98  1  -0.01392034  0.00897060  0.49996582  1
  Cu  Cu99  1  0.17431935  0.83423459  0.24308223  1
  Cu  Cu100  1  0.33679402  0.33671868  -0.00502217  1
  Cu  Cu101  1  0.67575588  0.67748862  0.49807296  1
  Cu  Cu102  1  -0.00007080  0.33586807  -0.00236751  1
  Cu  Cu103  1  0.49569242  0.15851058  0.24998714  1
  Cu  Cu104  1  0.66787782  -0.00040019  0.49497454  1
  Cu  Cu105  1  0.82472346  0.48596624  0.74337775  1
  Cu  Cu106  1  0.33276000  0.33562729  0.50559178  1
  Cu  Cu107  1  0.00086945  -0.00154865  0.00675002  1
  Cu  Cu108  1  0.67413301  0.66688096  -0.00128584  1
  Cu  Cu109  1  0.82834651  0.16618059  0.24917725  1
  Cu  Cu110  1  0.49593378  0.50405264  0.26329272  1
  Cu  Cu111  1  0.32896813  0.66607581  0.00108797  1
  Cu  Cu112  1  0.33710364  0.00238430  0.00483223  1
  Cu  Cu113  1  0.49859874  0.83243552  0.74152196  1
  Cu  Cu114  1  0.17167534  0.50266933  0.74994774  1
  Se  Se115  1  0.08676768  0.08361213  0.05579720  1
  Se  Se116  1  0.06774837  0.08208910  0.56418864  1
  Se  Se117  1  0.08385805  0.42012962  0.05041545  1
  Se  Se118  1  0.09435136  0.41617555  0.54529216  1
  Se  Se119  1  0.08533322  0.75190413  0.05377738  1
  Se  Se120  1  0.08459491  0.74948478  0.56658888  1
  Se  Se121  1  0.42720505  0.08506408  0.05132780  1
  Se  Se122  1  0.41262305  0.08553370  0.54819558  1
  Se  Se123  1  0.41081464  0.40920543  0.06611406  1
  Se  Se124  1  0.41784333  0.41403171  0.56097013  1
  Se  Se125  1  0.41312582  0.74528838  0.05954761  1
  Se  Se126  1  0.41675269  0.75758452  0.54610057  1
  Se  Se127  1  0.75590261  0.08565510  0.05367967  1
  Se  Se128  1  0.74684688  0.08363481  0.55203135  1
  Se  Se129  1  0.74988134  0.41773246  0.05180325  1
  Se  Se130  1  0.77742420  0.44458862  0.55748056  1
  Se  Se131  1  0.75372898  0.75216984  0.05236225  1
  Se  Se132  1  0.75887571  0.75943816  0.55320564  1
  Se  Se133  1  0.25256422  0.25240567  0.04906947  1
  Se  Se134  1  0.25329005  0.25299984  0.56550795  1
  Se  Se135  1  0.24859205  0.58001946  0.05476916  1
  Se  Se136  1  0.25485630  0.58182004  0.55184488  1
  Se  Se137  1  0.25212828  0.91704679  0.05447177  1
  Se  Se138  1  0.25240963  0.92191145  0.55762478  1
  Se  Se139  1  0.58357082  0.24959311  0.05025850  1
  Se  Se140  1  0.57556995  0.23876438  0.55719999  1
  Se  Se141  1  0.59161137  0.59305128  0.06177124  1
  Se  Se142  1  0.59548424  0.59623934  0.55604554  1
  Se  Se143  1  0.58756585  0.92378553  0.05984822  1
  Se  Se144  1  0.58199453  0.91776131  0.54853145  1
  Se  Se145  1  0.91826352  0.25000089  0.05168039  1
  Se  Se146  1  0.92325329  0.25560387  0.53994021  1
  Se  Se147  1  0.91632330  0.58146991  0.05535780  1
  Se  Se148  1  0.92762253  0.59496858  0.55637201  1
  Se  Se149  1  0.91283543  0.91591270  0.05643101  1
  Se  Se150  1  0.90936097  0.91733245  0.55074884  1
  Se  Se151  1  0.07481626  0.25501728  0.43585344  1
  Se  Se152  1  0.08600612  0.25177958  0.94724911  1
  Se  Se153  1  0.08723386  0.58734954  0.44574486  1
  Se  Se154  1  0.08196213  0.58357483  0.94787558  1
  Se  Se155  1  0.07885341  0.93626124  0.44236690  1
  Se  Se156  1  0.08655020  0.91582644  0.95306889  1
  Se  Se157  1  0.40970403  0.24723842  0.45122573  1
  Se  Se158  1  0.42348541  0.25223938  0.94691902  1
  Se  Se159  1  0.43665446  0.56659890  0.45241389  1
  Se  Se160  1  0.41238420  0.58716062  0.94154321  1
  Se  Se161  1  0.41847468  0.91457297  0.44188793  1
  Se  Se162  1  0.41259613  0.92661394  0.93612220  1
  Se  Se163  1  0.73101241  0.26662271  0.44996664  1
  Se  Se164  1  0.75409007  0.24631374  0.94446513  1
  Se  Se165  1  0.75733903  0.58964165  0.44825847  1
  Se  Se166  1  0.75159628  0.57761593  0.94639672  1
  Se  Se167  1  0.75345737  0.91754673  0.44162931  1
  Se  Se168  1  0.75134531  0.91139756  0.94874788  1
  Se  Se169  1  0.24724739  0.07601154  0.44049734  1
  Se  Se170  1  0.25390609  0.08614366  0.94953720  1
  Se  Se171  1  0.24961349  0.41582898  0.44967904  1
  Se  Se172  1  0.25284282  0.42327754  0.94585449  1
  Se  Se173  1  0.26227301  0.74062229  0.44337697  1
  Se  Se174  1  0.24985385  0.75295755  0.94729003  1
  Se  Se175  1  0.58059975  0.08226638  0.44376357  1
  Se  Se176  1  0.58724709  0.08409548  0.94676495  1
  Se  Se177  1  0.58823107  0.42113592  0.46283245  1
  Se  Se178  1  0.58729237  0.41011947  0.93886184  1
  Se  Se179  1  0.58578430  0.75737029  0.44845492  1
  Se  Se180  1  0.59014565  0.73958438  0.93647442  1
  Se  Se181  1  0.90741568  0.09121094  0.44285938  1
  Se  Se182  1  0.92170674  0.07939028  0.94646149  1
  Se  Se183  1  0.92036922  0.41671908  0.45156673  1
  Se  Se184  1  0.91356680  0.41584304  0.94342673  1
  Se  Se185  1  0.92462159  0.75902385  0.44733657  1
  Se  Se186  1  0.91446287  0.74805562  0.94948748  1
  Se  Se187  1  0.23942802  0.23530455  0.30558029  1
  Se  Se188  1  0.25900617  0.25979638  0.80451301  1
  Se  Se189  1  0.25703468  0.57564875  0.30672852  1
  Se  Se190  1  0.25245073  0.58925415  0.80312053  1
  Se  Se191  1  0.25418709  0.91807251  0.30011838  1
  Se  Se192  1  0.24418368  0.91801939  0.81300652  1
  Se  Se193  1  0.56869068  0.24168338  0.31433180  1
  Se  Se194  1  0.58967482  0.25000022  0.80308180  1
  Se  Se195  1  0.58150346  0.58287978  0.31884131  1
  Se  Se196  1  0.57317602  0.57217415  0.80952492  1
  Se  Se197  1  0.58674506  0.91988581  0.30107799  1
  Se  Se198  1  0.58250933  0.91142672  0.79669876  1
  Se  Se199  1  0.90384844  0.24962485  0.31060045  1
  Se  Se200  1  0.90770318  0.23446265  0.80612546  1
  Se  Se201  1  0.91103425  0.57541250  0.30812753  1
  Se  Se202  1  0.90458231  0.57015895  0.80145031  1
  Se  Se203  1  0.91930315  0.92839552  0.30017102  1
  Se  Se204  1  0.90529030  0.90675658  0.81002600  1
  Se  Se205  1  0.07443046  0.08312639  0.29310909  1
  Se  Se206  1  0.09474616  0.09609566  0.80902862  1
  Se  Se207  1  0.08650074  0.41954955  0.30966454  1
  Se  Se208  1  0.08997639  0.42538356  0.81184855  1
  Se  Se209  1  0.09639904  0.76471624  0.31390330  1
  Se  Se210  1  0.08605047  0.75832947  0.81610415  1
  Se  Se211  1  0.41120882  0.07787737  0.30395896  1
  Se  Se212  1  0.42359087  0.09003588  0.81219398  1
  Se  Se213  1  0.42763266  0.41232152  0.32164565  1
  Se  Se214  1  0.41981270  0.41801933  0.79783299  1
  Se  Se215  1  0.41891726  0.74564350  0.30757788  1
  Se  Se216  1  0.41085760  0.75290183  0.79358751  1
  Se  Se217  1  0.74210006  0.08706816  0.30339384  1
  Se  Se218  1  0.74084126  0.06996407  0.80580885  1
  Se  Se219  1  0.75712664  0.42972606  0.31298256  1
  Se  Se220  1  0.74551584  0.40465672  0.80038748  1
  Se  Se221  1  0.76115085  0.75746335  0.30956154  1
  Se  Se222  1  0.75331085  0.74637746  0.80905798  1
  Se  Se223  1  0.25983925  0.07845300  0.19379924  1
  Se  Se224  1  0.24217068  0.09328251  0.69562699  1
  Se  Se225  1  0.24504661  0.41476917  0.19182080  1
  Se  Se226  1  0.25079793  0.41362567  0.69858161  1
  Se  Se227  1  0.25381309  0.74080513  0.19726338  1
  Se  Se228  1  0.24829452  0.74923186  0.69847056  1
  Se  Se229  1  0.58661527  0.08393042  0.19600367  1
  Se  Se230  1  0.58572497  0.07933717  0.69650243  1
  Se  Se231  1  0.57613292  0.42542173  0.20176996  1
  Se  Se232  1  0.58900336  0.41219074  0.69221819  1
  Se  Se233  1  0.57587887  0.76037344  0.18807817  1
  Se  Se234  1  0.57074308  0.74748177  0.67975924  1
  Se  Se235  1  0.91602706  0.08912148  0.19492706  1
  Se  Se236  1  0.90744547  0.08339280  0.68961220  1
  Se  Se237  1  0.90454636  0.42491969  0.19459147  1
  Se  Se238  1  0.91116095  0.41111933  0.68686741  1
  Se  Se239  1  0.91439832  0.75519979  0.19305482  1
  Se  Se240  1  0.91096708  0.75107877  0.69211059  1
  Se  Se241  1  0.09454431  0.24129317  0.19090563  1
  Se  Se242  1  0.08783559  0.24084870  0.69190521  1
  Se  Se243  1  0.08667576  0.57736370  0.19321844  1
  Se  Se244  1  0.08179634  0.56895399  0.68732823  1
  Se  Se245  1  0.08575782  0.91641412  0.19453495  1
  Se  Se246  1  0.08733954  0.91177185  0.69657641  1
  Se  Se247  1  0.42049272  0.24252666  0.18912136  1
  Se  Se248  1  0.41693937  0.24830135  0.70082129  1
  Se  Se249  1  0.41202283  0.58262158  0.20752614  1
  Se  Se250  1  0.41324378  0.58445611  0.69352348  1
  Se  Se251  1  0.41586659  0.91365623  0.19840525  1
  Se  Se252  1  0.42311586  0.91748594  0.68063137  1
  Se  Se253  1  0.74995690  0.24968726  0.18975000  1
  Se  Se254  1  0.75909147  0.25340949  0.68355712  1
  Se  Se255  1  0.75493296  0.57885010  0.19467158  1
  Se  Se256  1  0.74522786  0.56962853  0.68668672  1
  Se  Se257  1  0.74867213  0.92354571  0.19810494  1
  Se  Se258  1  0.74162899  0.91440243  0.69489505  1
