# generated using pymatgen
data_In86Cu29Se144
_symmetry_space_group_name_H-M   'P 1'
_cell_length_a   17.59219409
_cell_length_b   17.59399306
_cell_length_c   23.44961162
_cell_angle_alpha   89.98086791
_cell_angle_beta   89.98398320
_cell_angle_gamma   90.01239433
_symmetry_Int_Tables_number   1
_chemical_formula_structural   In86Cu29Se144
_chemical_formula_sum   'In86 Cu29 Se144'
_cell_volume   7258.05119129
_cell_formula_units_Z   1
loop_
 _symmetry_equiv_pos_site_id
 _symmetry_equiv_pos_as_xyz
  1  'x, y, z'
loop_
 _atom_site_type_symbol
 _atom_site_label
 _atom_site_symmetry_multiplicity
 _atom_site_fract_x
 _atom_site_fract_y
 _atom_site_fract_z
 _atom_site_occupancy
  In  In0  1  0.00601171  0.15997110  0.13876919  1
  In  In1  1  0.00357351  0.17046878  0.62262978  1
  In  In2  1  -0.00257764  0.49826402  0.13563782  1
  In  In3  1  -0.00915731  0.48610702  0.62029996  1
  In  In4  1  0.00225852  0.82951570  0.14033377  1
  In  In5  1  0.00940476  0.84278006  0.61315850  1
  In  In6  1  0.33804716  0.16457802  0.13577709  1
  In  In7  1  0.33559521  0.16833590  0.61721705  1
  In  In8  1  0.32169026  0.50757612  0.13573345  1
  In  In9  1  0.32211277  0.50699994  0.62299915  1
  In  In10  1  0.34247671  0.83018053  0.14184619  1
  In  In11  1  0.32683080  0.81081709  0.60049537  1
  In  In12  1  0.65203183  0.17162069  0.12529125  1
  In  In13  1  0.67452056  0.16920605  0.61492266  1
  In  In14  1  0.66258345  0.50870545  0.12423735  1
  In  In15  1  0.68384570  0.49196802  0.64130942  1
  In  In16  1  0.67684759  0.83510236  0.12955797  1
  In  In17  1  0.65785788  0.82337375  0.61647798  1
  In  In18  1  0.16668816  0.00203009  0.37924416  1
  In  In19  1  0.16774698  0.00821960  0.86867196  1
  In  In20  1  0.16364569  0.33419429  0.38190847  1
  In  In21  1  0.17401338  0.33406046  0.85697137  1
  In  In22  1  0.17058569  0.67116848  0.38058921  1
  In  In23  1  0.16511673  0.65740344  0.87315025  1
  In  In24  1  0.50101478  -0.00266385  0.36967860  1
  In  In25  1  0.51313605  0.00354366  0.87861137  1
  In  In26  1  0.48467630  0.33394550  0.37644300  1
  In  In27  1  0.49663303  0.33237960  0.86483476  1
  In  In28  1  0.48770420  0.68814809  0.37973833  1
  In  In29  1  0.49430602  0.66496724  0.86750436  1
  In  In30  1  0.83339052  -0.00201119  0.37700574  1
  In  In31  1  0.84283121  -0.00708299  0.86840549  1
  In  In32  1  0.84719635  0.32207291  0.38850156  1
  In  In33  1  0.83997875  0.34313734  0.85705613  1
  In  In34  1  0.84139895  0.65584130  0.38764062  1
  In  In35  1  0.82911453  0.67877416  0.86866615  1
  In  In36  1  0.00125337  0.16719464  0.37909209  1
  In  In37  1  0.00974453  0.16857383  0.85773517  1
  In  In38  1  0.00387994  0.50095999  0.38067712  1
  In  In39  1  0.01129141  0.49778733  0.87152808  1
  In  In40  1  0.00189525  0.83169329  0.38010308  1
  In  In41  1  -0.00809849  0.83535681  0.86716095  1
  In  In42  1  0.33084050  0.16805079  0.38135277  1
  In  In43  1  0.33970909  0.17681260  0.87262805  1
  In  In44  1  0.32209695  0.49699447  0.37481968  1
  In  In45  1  0.33671321  0.50306088  0.86255456  1
  In  In46  1  0.32981322  0.83228875  0.37471566  1
  In  In47  1  0.33949838  0.82814515  0.87342997  1
  In  In48  1  0.67785961  0.15927209  0.38441348  1
  In  In49  1  0.65527370  0.16624645  0.87391693  1
  In  In50  1  0.67205990  0.50894807  0.37763719  1
  In  In51  1  0.67403414  0.50782467  0.85622293  1
  In  In52  1  0.65594762  0.84485970  0.38096049  1
  In  In53  1  0.66893140  0.83671273  0.86945718  1
  In  In54  1  0.17116872  -0.00623138  0.14210230  1
  In  In55  1  0.16381943  -0.00452050  0.61558560  1
  In  In56  1  0.16736117  0.33182894  0.13800607  1
  In  In57  1  0.16207085  0.33091076  0.62271311  1
  In  In58  1  0.16188267  0.66575830  0.13125445  1
  In  In59  1  0.17667185  0.66743790  0.61062433  1
  In  In60  1  0.48567497  0.01301907  0.14285051  1
  In  In61  1  0.49754934  -0.00554506  0.61439720  1
  In  In62  1  0.50199079  0.32336289  0.12661702  1
  In  In63  1  0.50718841  0.32380815  0.62881136  1
  In  In64  1  0.49319650  0.66074850  0.12471504  1
  In  In65  1  0.49541287  0.66713933  0.62529275  1
  In  In66  1  0.83817488  -0.00893169  0.14084274  1
  In  In67  1  0.84415056  0.01033414  0.61224572  1
  In  In68  1  0.84012053  0.34141465  0.12845365  1
  In  In69  1  0.84020643  0.33338151  0.62676280  1
  In  In70  1  0.82958556  0.67416456  0.12905658  1
  In  In71  1  0.82361866  0.65493783  0.61958384  1
  In  In72  1  -0.00346406  0.66366464  0.74421647  1
  In  In73  1  0.66933244  0.33157469  0.24837531  1
  In  In74  1  0.83187712  0.83391603  -0.00243912  1
  In  In75  1  0.16951114  0.16802377  -0.00031423  1
  In  In76  1  0.66328958  0.67003391  0.25219796  1
  In  In77  1  0.16817627  0.83322491  0.01016567  1
  In  In78  1  0.83228040  0.16484457  -0.00258107  1
  In  In79  1  0.32936298  -0.00176942  0.73597953  1
  In  In80  1  0.50189982  0.50471791  0.49854498  1
  In  In81  1  0.82809572  0.50541166  -0.00427805  1
  In  In82  1  0.16776028  0.50054466  -0.00159363  1
  In  In83  1  0.50416679  0.83365234  0.00741729  1
  In  In84  1  0.49511173  0.49985731  -0.00376706  1
  In  In85  1  0.67234503  0.00017217  0.74801976  1
  Cu  Cu86  1  0.66236836  0.33375554  -0.00769049  1
  Cu  Cu87  1  0.66590850  0.33278188  0.50829420  1
  Cu  Cu88  1  0.49822642  0.16308230  0.74608052  1
  Cu  Cu89  1  -0.00441142  0.00411867  0.49672047  1
  Cu  Cu90  1  0.83617626  0.16208786  0.25930353  1
  Cu  Cu91  1  0.49849858  0.16908627  0.25547892  1
  Cu  Cu92  1  0.16903015  0.49922513  0.74256602  1
  Cu  Cu93  1  0.00405391  -0.00145154  0.00021904  1
  Cu  Cu94  1  0.33202669  0.33354070  0.50153208  1
  Cu  Cu95  1  0.66521206  -0.00548085  0.49684150  1
  Cu  Cu96  1  0.16336558  0.50103939  0.25868356  1
  Cu  Cu97  1  0.33609754  -0.00043099  0.49525861  1
  Cu  Cu98  1  0.49395234  0.49783525  0.74284464  1
  Cu  Cu99  1  0.83377707  0.83525405  0.74091871  1
  Cu  Cu100  1  0.48984383  0.50433461  0.25395503  1
  Cu  Cu101  1  0.84358143  0.49430995  0.25922419  1
  Cu  Cu102  1  0.16228610  0.83420744  0.26081119  1
  Cu  Cu103  1  0.00305989  0.32895126  0.00000773  1
  Cu  Cu104  1  0.67268397  0.66145384  0.50262359  1
  Cu  Cu105  1  0.17320914  0.82894789  0.73482985  1
  Cu  Cu106  1  -0.00156979  0.33349925  0.50276208  1
  Cu  Cu107  1  0.49463444  0.82201498  0.74108969  1
  Cu  Cu108  1  0.00501306  0.66555276  0.50181808  1
  Cu  Cu109  1  0.16579448  0.17079954  0.26164004  1
  Cu  Cu110  1  0.83436903  0.82966850  0.26045657  1
  Cu  Cu111  1  0.83696182  0.17051211  0.73904680  1
  Cu  Cu112  1  0.33964115  0.33241848  -0.00321569  1
  Cu  Cu113  1  0.66164735  0.00919899  0.00665526  1
  Cu  Cu114  1  0.34387883  0.00714115  0.01059311  1
  Se  Se115  1  0.08405828  0.07403863  0.06234234  1
  Se  Se116  1  0.08112236  0.08439299  0.55140033  1
  Se  Se117  1  0.07930075  0.40933841  0.06156126  1
  Se  Se118  1  0.08527095  0.41860111  0.55136618  1
  Se  Se119  1  0.06889249  0.74425764  0.06080667  1
  Se  Se120  1  0.09001469  0.75399795  0.54788858  1
  Se  Se121  1  0.42374923  0.09345200  0.06164296  1
  Se  Se122  1  0.41797830  0.08359096  0.55008182  1
  Se  Se123  1  0.40845383  0.41430655  0.06344555  1
  Se  Se124  1  0.41814926  0.41195336  0.56077504  1
  Se  Se125  1  0.40362781  0.74622937  0.05767853  1
  Se  Se126  1  0.43873129  0.75134201  0.54568400  1
  Se  Se127  1  0.75186606  0.07788483  0.06678676  1
  Se  Se128  1  0.74917810  0.08156091  0.54625291  1
  Se  Se129  1  0.73944946  0.40859067  0.05761097  1
  Se  Se130  1  0.74968150  0.41577851  0.56014877  1
  Se  Se131  1  0.73865647  0.74167305  0.05349910  1
  Se  Se132  1  0.75494388  0.75090064  0.55187238  1
  Se  Se133  1  0.25717896  0.25946117  0.06077063  1
  Se  Se134  1  0.24649747  0.24977372  0.55243418  1
  Se  Se135  1  0.25496048  0.59320978  0.05706424  1
  Se  Se136  1  0.25688676  0.58224770  0.54279738  1
  Se  Se137  1  0.26197827  0.92561185  0.06564066  1
  Se  Se138  1  0.25160781  0.91664423  0.54802268  1
  Se  Se139  1  0.58194591  0.25358638  0.04967392  1
  Se  Se140  1  0.57865971  0.24516151  0.55119632  1
  Se  Se141  1  0.58925313  0.59491946  0.05135652  1
  Se  Se142  1  0.59577507  0.57989211  0.56524022  1
  Se  Se143  1  0.58743027  0.92779144  0.06885116  1
  Se  Se144  1  0.58069637  0.91077563  0.54826035  1
  Se  Se145  1  0.92571680  0.24969900  0.06105403  1
  Se  Se146  1  0.91338813  0.24803745  0.55358682  1
  Se  Se147  1  0.91737900  0.58624700  0.06230106  1
  Se  Se148  1  0.92007497  0.58338151  0.55474256  1
  Se  Se149  1  0.92406082  0.92015763  0.06111039  1
  Se  Se150  1  0.91438476  0.91398542  0.54657425  1
  Se  Se151  1  0.08199489  0.24926817  0.45019999  1
  Se  Se152  1  0.08243808  0.25725833  0.93635152  1
  Se  Se153  1  0.08846980  0.58324992  0.44815597  1
  Se  Se154  1  0.06948241  0.59290302  0.94703903  1
  Se  Se155  1  0.08200721  0.91940354  0.44778737  1
  Se  Se156  1  0.08175911  0.91824010  0.93964890  1
  Se  Se157  1  0.41767430  0.24964464  0.45117023  1
  Se  Se158  1  0.42372924  0.25260949  0.94315603  1
  Se  Se159  1  0.40792366  0.58995748  0.44100950  1
  Se  Se160  1  0.40236897  0.59109257  0.94101997  1
  Se  Se161  1  0.41828856  0.91670649  0.44121568  1
  Se  Se162  1  0.41310031  0.92550687  0.94401495  1
  Se  Se163  1  0.74940066  0.25145549  0.45212176  1
  Se  Se164  1  0.74990926  0.25871099  0.93470395  1
  Se  Se165  1  0.75461270  0.57259342  0.45454408  1
  Se  Se166  1  0.73879288  0.59550538  0.93666802  1
  Se  Se167  1  0.75343042  0.91237481  0.44708991  1
  Se  Se168  1  0.73997297  0.93373060  0.94232988  1
  Se  Se169  1  0.24757484  0.08547219  0.45020005  1
  Se  Se170  1  0.26123656  0.07501364  0.94355289  1
  Se  Se171  1  0.24859139  0.41775241  0.45044648  1
  Se  Se172  1  0.25701700  0.40907291  0.93683709  1
  Se  Se173  1  0.24719691  0.75932546  0.44912208  1
  Se  Se174  1  0.25122218  0.74592018  0.94125787  1
  Se  Se175  1  0.58222137  0.07866387  0.44341624  1
  Se  Se176  1  0.58045567  0.09062676  0.95167903  1
  Se  Se177  1  0.59118694  0.40822600  0.43934628  1
  Se  Se178  1  0.58923019  0.41909437  0.93238238  1
  Se  Se179  1  0.59155576  0.74269206  0.44657186  1
  Se  Se180  1  0.58579255  0.74950980  0.93665540  1
  Se  Se181  1  0.91084621  0.08775285  0.44566232  1
  Se  Se182  1  0.92927748  0.07964113  0.93808565  1
  Se  Se183  1  0.91664861  0.42178207  0.45119860  1
  Se  Se184  1  0.92301151  0.40961047  0.94156558  1
  Se  Se185  1  0.91912760  0.74909323  0.45087517  1
  Se  Se186  1  0.92618676  0.74279362  0.94244743  1
  Se  Se187  1  0.25050144  0.25432461  0.31218887  1
  Se  Se188  1  0.24114404  0.22730762  0.80290392  1
  Se  Se189  1  0.24850007  0.58783064  0.30645969  1
  Se  Se190  1  0.24628124  0.58531473  0.79973289  1
  Se  Se191  1  0.24740651  0.92093079  0.30726433  1
  Se  Se192  1  0.24596540  0.90649788  0.80411118  1
  Se  Se193  1  0.58214142  0.24829890  0.31411929  1
  Se  Se194  1  0.58232972  0.24632764  0.79947560  1
  Se  Se195  1  0.57154177  0.58045164  0.31373039  1
  Se  Se196  1  0.57538521  0.58446249  0.79763269  1
  Se  Se197  1  0.58357717  0.91304399  0.30170943  1
  Se  Se198  1  0.56997927  0.90894818  0.80004581  1
  Se  Se199  1  0.91758118  0.25028391  0.30788029  1
  Se  Se200  1  0.92110191  0.25164435  0.79573968  1
  Se  Se201  1  0.92008072  0.58454488  0.31024859  1
  Se  Se202  1  0.91056608  0.57751060  0.81046438  1
  Se  Se203  1  0.91867746  0.91448357  0.30961040  1
  Se  Se204  1  0.91913455  0.91764282  0.79322334  1
  Se  Se205  1  0.08194449  0.08360753  0.30922243  1
  Se  Se206  1  0.07601905  0.06697604  0.79790298  1
  Se  Se207  1  0.08135199  0.41526831  0.30977494  1
  Se  Se208  1  0.08366638  0.41870957  0.79691343  1
  Se  Se209  1  0.08064878  0.74612960  0.30959496  1
  Se  Se210  1  0.09135394  0.75634864  0.80349968  1
  Se  Se211  1  0.41372072  0.08867554  0.30919411  1
  Se  Se212  1  0.42277560  0.07872442  0.80577161  1
  Se  Se213  1  0.41024533  0.41747309  0.30553640  1
  Se  Se214  1  0.41129261  0.41228028  0.79665719  1
  Se  Se215  1  0.41407224  0.75614587  0.30157069  1
  Se  Se216  1  0.40923206  0.74583184  0.79922571  1
  Se  Se217  1  0.74781887  0.08036861  0.30690053  1
  Se  Se218  1  0.76129151  0.09446627  0.80797203  1
  Se  Se219  1  0.75693463  0.41542668  0.31420614  1
  Se  Se220  1  0.74058965  0.40828144  0.79496948  1
  Se  Se221  1  0.75402606  0.74729027  0.31934523  1
  Se  Se222  1  0.74893437  0.75875019  0.79758993  1
  Se  Se223  1  0.24761126  0.09030539  0.20268119  1
  Se  Se224  1  0.23807009  0.09208104  0.68525094  1
  Se  Se225  1  0.24830977  0.41840792  0.20333988  1
  Se  Se226  1  0.25046553  0.41365776  0.69051173  1
  Se  Se227  1  0.23973713  0.75458673  0.19753507  1
  Se  Se228  1  0.25686601  0.74473659  0.68545569  1
  Se  Se229  1  0.58667961  0.08950139  0.20192030  1
  Se  Se230  1  0.57863812  0.08312451  0.68673430  1
  Se  Se231  1  0.57439033  0.42887304  0.19409867  1
  Se  Se232  1  0.58221536  0.41317365  0.69720960  1
  Se  Se233  1  0.57485861  0.75580328  0.18940418  1
  Se  Se234  1  0.58716982  0.74380991  0.69367741  1
  Se  Se235  1  0.92008046  0.07859427  0.20445741  1
  Se  Se236  1  0.91897047  0.08232159  0.69048232  1
  Se  Se237  1  0.92189727  0.40841859  0.20390969  1
  Se  Se238  1  0.90731113  0.42560028  0.69795551  1
  Se  Se239  1  0.91243771  0.74484071  0.20223435  1
  Se  Se240  1  0.91564813  0.75719452  0.68114108  1
  Se  Se241  1  0.08180264  0.25070235  0.20383489  1
  Se  Se242  1  0.06882518  0.26424443  0.69297020  1
  Se  Se243  1  0.08151131  0.58268983  0.20028251  1
  Se  Se244  1  0.08931253  0.58071790  0.68210802  1
  Se  Se245  1  0.07825139  0.91888993  0.20634753  1
  Se  Se246  1  0.08643884  0.91574880  0.69078013  1
  Se  Se247  1  0.41800466  0.25574232  0.20139162  1
  Se  Se248  1  0.41358322  0.24525336  0.69345224  1
  Se  Se249  1  0.41123959  0.59001159  0.19904501  1
  Se  Se250  1  0.41147109  0.58320372  0.69198832  1
  Se  Se251  1  0.41147180  0.92311083  0.20752790  1
  Se  Se252  1  0.41621950  0.90200902  0.68155242  1
  Se  Se253  1  0.76171852  0.23860185  0.19015528  1
  Se  Se254  1  0.74638757  0.24913047  0.69044489  1
  Se  Se255  1  0.75852843  0.57087277  0.19824962  1
  Se  Se256  1  0.75273922  0.59253823  0.70327361  1
  Se  Se257  1  0.74947193  0.91119842  0.20625427  1
  Se  Se258  1  0.75433726  0.91548358  0.67997480  1
