# generated using pymatgen
data_In86Cu29Se144
_symmetry_space_group_name_H-M   'P 1'
_cell_length_a   17.58590920
_cell_length_b   17.58349810
_cell_length_c   23.44255294
_cell_angle_alpha   90.02512740
_cell_angle_beta   90.03344203
_cell_angle_gamma   89.99563769
_symmetry_Int_Tables_number   1
_chemical_formula_structural   In86Cu29Se144
_chemical_formula_sum   'In86 Cu29 Se144'
_cell_volume   7248.94648954
_cell_formula_units_Z   1
loop_
 _symmetry_equiv_pos_site_id
 _symmetry_equiv_pos_as_xyz
  1  'x, y, z'
loop_
 _atom_site_type_symbol
 _atom_site_label
 _atom_site_symmetry_multiplicity
 _atom_site_fract_x
 _atom_site_fract_y
 _atom_site_fract_z
 _atom_site_occupancy
  In  In0  1  -0.01487342  0.14878392  0.10908737  1
  In  In1  1  0.00693223  0.16950963  0.62440358  1
  In  In2  1  -0.00810228  0.49448963  0.11486308  1
  In  In3  1  -0.00778899  0.49350950  0.62916714  1
  In  In4  1  0.01132194  0.83801113  0.12560986  1
  In  In5  1  -0.00192935  0.83636638  0.61759398  1
  In  In6  1  0.32490721  0.16413040  0.10551844  1
  In  In7  1  0.32692743  0.17123671  0.63309309  1
  In  In8  1  0.33804583  0.50915094  0.12268020  1
  In  In9  1  0.33676112  0.48217421  0.62934422  1
  In  In10  1  0.32445022  0.82944961  0.12569482  1
  In  In11  1  0.32887163  0.84561583  0.62946797  1
  In  In12  1  0.67231898  0.16595175  0.12208582  1
  In  In13  1  0.68075566  0.15315759  0.64158452  1
  In  In14  1  0.66422529  0.49353336  0.12459655  1
  In  In15  1  0.66259269  0.50120168  0.63523410  1
  In  In16  1  0.66693945  0.83306270  0.12885066  1
  In  In17  1  0.67703564  0.83443555  0.63770119  1
  In  In18  1  0.15495418  0.00717076  0.37954389  1
  In  In19  1  0.16600138  -0.00399629  0.88256892  1
  In  In20  1  0.15758300  0.32398611  0.37616073  1
  In  In21  1  0.16853332  0.32838264  0.87589699  1
  In  In22  1  0.18244152  0.66967196  0.37020621  1
  In  In23  1  0.16309618  0.66814133  0.88399199  1
  In  In24  1  0.50454261  -0.01114135  0.37401678  1
  In  In25  1  0.51926615  0.02232495  0.86588684  1
  In  In26  1  0.51683494  0.33253145  0.38041065  1
  In  In27  1  0.48738592  0.32629079  0.86481332  1
  In  In28  1  0.49295603  0.66029728  0.37113949  1
  In  In29  1  0.51699513  0.65360948  0.87183990  1
  In  In30  1  0.83353751  0.00359772  0.37381545  1
  In  In31  1  0.82869569  0.01138974  0.87562878  1
  In  In32  1  0.81843368  0.33460761  0.37923114  1
  In  In33  1  0.83575683  0.32744222  0.87113393  1
  In  In34  1  0.83644640  0.68320983  0.37279746  1
  In  In35  1  0.81207508  0.66268988  0.87623142  1
  In  In36  1  0.00649850  0.15877310  0.37969752  1
  In  In37  1  -0.02207768  0.17829744  0.88863528  1
  In  In38  1  -0.00579719  0.49224572  0.37318599  1
  In  In39  1  0.01101573  0.48885971  0.88268385  1
  In  In40  1  -0.01606458  0.84858019  0.38218631  1
  In  In41  1  0.00130635  0.85470027  0.88269845  1
  In  In42  1  0.32449460  0.15639256  0.37459439  1
  In  In43  1  0.33656906  0.16870794  0.87678916  1
  In  In44  1  0.33547766  0.51230583  0.37580648  1
  In  In45  1  0.34100697  0.46052515  0.88130808  1
  In  In46  1  0.33784282  0.82103514  0.37661038  1
  In  In47  1  0.31880773  0.83612128  0.87554975  1
  In  In48  1  0.67656685  0.17806717  0.37017855  1
  In  In49  1  0.66718139  0.16186500  0.87578054  1
  In  In50  1  0.65747207  0.49141369  0.37304491  1
  In  In51  1  0.66869625  0.50671253  0.86547219  1
  In  In52  1  0.67877454  0.84326896  0.36613879  1
  In  In53  1  0.67409647  0.83249912  0.86450479  1
  In  In54  1  0.15810764  -0.00870854  0.11336298  1
  In  In55  1  0.16553039  0.00662134  0.62454437  1
  In  In56  1  0.15914298  0.31359271  0.10543909  1
  In  In57  1  0.17989968  0.32443718  0.63701196  1
  In  In58  1  0.17296591  0.67646412  0.11959270  1
  In  In59  1  0.15776127  0.67042620  0.62268190  1
  In  In60  1  0.50615539  0.01420918  0.11884943  1
  In  In61  1  0.49807893  -0.00708529  0.63584160  1
  In  In62  1  0.51181257  0.33324335  0.11923498  1
  In  In63  1  0.49871652  0.33937693  0.63391673  1
  In  In64  1  0.50246581  0.65890139  0.13202601  1
  In  In65  1  0.51761281  0.66743654  0.62318663  1
  In  In66  1  0.82515850  0.00954571  0.12965737  1
  In  In67  1  0.82654451  -0.00270229  0.62306342  1
  In  In68  1  0.82181566  0.31958939  0.11453312  1
  In  In69  1  0.84367586  0.31610108  0.64555255  1
  In  In70  1  0.82587805  0.65490078  0.12016425  1
  In  In71  1  0.82361567  0.67263922  0.62388074  1
  In  In72  1  -0.00630968  0.66680875  0.74629343  1
  In  In73  1  0.50080626  0.16832518  0.50508098  1
  In  In74  1  0.33868102  0.33771362  0.23681692  1
  In  In75  1  0.50124102  0.83764568  -0.00463183  1
  In  In76  1  -0.00409066  0.33037860  0.24717529  1
  In  In77  1  0.00004720  0.67406424  0.24906672  1
  In  In78  1  -0.00822304  0.00663528  0.76092704  1
  In  In79  1  0.33753708  0.65983017  0.75536609  1
  In  In80  1  0.50395226  0.49619077  -0.00436625  1
  In  In81  1  0.50341699  0.83165510  0.49954934  1
  In  In82  1  0.34105690  -0.00393625  0.24819571  1
  In  In83  1  0.16749559  0.50034379  0.49657803  1
  In  In84  1  0.83539958  0.83828339  -0.00248470  1
  In  In85  1  0.82694591  0.50197468  0.50647191  1
  Cu  Cu86  1  -0.00567553  0.66587844  0.00289421  1
  Cu  Cu87  1  0.31902429  0.00334578  0.50478933  1
  Cu  Cu88  1  0.66856380  0.33134076  0.50596894  1
  Cu  Cu89  1  -0.00125604  0.33616606  -0.00635576  1
  Cu  Cu90  1  0.33709630  0.00099940  -0.00409933  1
  Cu  Cu91  1  0.49547357  0.16818565  0.75177612  1
  Cu  Cu92  1  -0.00505414  0.00301555  0.50124653  1
  Cu  Cu93  1  0.16878267  0.49172592  0.75969401  1
  Cu  Cu94  1  0.50073737  0.50011543  0.24975088  1
  Cu  Cu95  1  0.16261792  0.83837452  0.75402539  1
  Cu  Cu96  1  0.67214415  0.00385621  0.50002837  1
  Cu  Cu97  1  0.83736591  0.49646669  0.75298840  1
  Cu  Cu98  1  0.66958814  0.32827195  -0.00453763  1
  Cu  Cu99  1  0.51155122  0.17025613  0.24466095  1
  Cu  Cu100  1  0.83155815  0.83910975  0.24913304  1
  Cu  Cu101  1  0.83187004  0.16598987  0.24512855  1
  Cu  Cu102  1  0.33341158  0.66389311  -0.00219333  1
  Cu  Cu103  1  0.16702338  0.16131800  0.24529927  1
  Cu  Cu104  1  0.82011481  0.49968007  0.24715034  1
  Cu  Cu105  1  0.33340570  0.32790792  0.50806406  1
  Cu  Cu106  1  0.50625981  0.82885912  0.25135405  1
  Cu  Cu107  1  0.33635999  0.66530228  0.49785772  1
  Cu  Cu108  1  0.16882895  0.83617218  0.24732807  1
  Cu  Cu109  1  0.00442207  0.67722620  0.49684821  1
  Cu  Cu110  1  0.17103543  0.50457522  0.24024050  1
  Cu  Cu111  1  0.66910570  0.66996478  0.50150113  1
  Cu  Cu112  1  0.00264307  0.32480070  0.50799501  1
  Cu  Cu113  1  0.49845682  0.83426419  0.75147844  1
  Cu  Cu114  1  0.16809600  0.16528562  0.75332433  1
  Se  Se115  1  0.10971930  0.10884436  0.05967968  1
  Se  Se116  1  0.08249193  0.08411579  0.55336718  1
  Se  Se117  1  0.08181543  0.41619708  0.05011243  1
  Se  Se118  1  0.08370463  0.41141631  0.56225285  1
  Se  Se119  1  0.07985139  0.75028316  0.05339582  1
  Se  Se120  1  0.08840438  0.75723524  0.55128433  1
  Se  Se121  1  0.42203961  0.08527240  0.04619857  1
  Se  Se122  1  0.41048654  0.07476999  0.56238374  1
  Se  Se123  1  0.41127021  0.41092668  0.05705927  1
  Se  Se124  1  0.42016771  0.41231017  0.55458591  1
  Se  Se125  1  0.41512775  0.74253847  0.05819579  1
  Se  Se126  1  0.41063214  0.74648217  0.56286585  1
  Se  Se127  1  0.76699188  0.09782728  0.05363190  1
  Se  Se128  1  0.74949279  0.08968719  0.55554846  1
  Se  Se129  1  0.74576450  0.41609045  0.05209675  1
  Se  Se130  1  0.75064314  0.40745487  0.56891024  1
  Se  Se131  1  0.74309829  0.74663304  0.05438738  1
  Se  Se132  1  0.74518575  0.75835530  0.55537963  1
  Se  Se133  1  0.26716450  0.26627979  0.04037622  1
  Se  Se134  1  0.24704677  0.24600342  0.55705834  1
  Se  Se135  1  0.24970752  0.58422235  0.05396595  1
  Se  Se136  1  0.25754411  0.58644500  0.56176662  1
  Se  Se137  1  0.25753984  0.91643496  0.05253648  1
  Se  Se138  1  0.24189105  0.91359135  0.55682355  1
  Se  Se139  1  0.58656403  0.24620588  0.05094234  1
  Se  Se140  1  0.59020858  0.25094553  0.56796027  1
  Se  Se141  1  0.58848055  0.59093086  0.05510655  1
  Se  Se142  1  0.59330414  0.58058204  0.55428664  1
  Se  Se143  1  0.59394435  0.92408708  0.05517427  1
  Se  Se144  1  0.58919840  0.92418029  0.55952730  1
  Se  Se145  1  0.91658423  0.25046035  0.04774564  1
  Se  Se146  1  0.91256173  0.24964015  0.56072236  1
  Se  Se147  1  0.90844384  0.57922416  0.04859276  1
  Se  Se148  1  0.92782743  0.59431065  0.55834113  1
  Se  Se149  1  0.92053417  0.92400271  0.06300566  1
  Se  Se150  1  0.91145029  0.91873047  0.55300925  1
  Se  Se151  1  0.08514787  0.24552773  0.45036382  1
  Se  Se152  1  0.08329039  0.24802622  0.94611428  1
  Se  Se153  1  0.07532578  0.59132901  0.43512884  1
  Se  Se154  1  0.08088024  0.58369380  0.95057273  1
  Se  Se155  1  0.08042848  0.91841942  0.44831046  1
  Se  Se156  1  0.09147690  0.91264232  0.95582891  1
  Se  Se157  1  0.40889488  0.25284382  0.43877751  1
  Se  Se158  1  0.40643254  0.26514184  0.94373880  1
  Se  Se159  1  0.42219426  0.58086229  0.44939939  1
  Se  Se160  1  0.40982624  0.58560481  0.93524079  1
  Se  Se161  1  0.40482962  0.92583865  0.44592302  1
  Se  Se162  1  0.41554647  0.92498045  0.93201612  1
  Se  Se163  1  0.74992321  0.24739854  0.45201683  1
  Se  Se164  1  0.75465842  0.24543234  0.94328855  1
  Se  Se165  1  0.74748552  0.59060277  0.43769730  1
  Se  Se166  1  0.74299896  0.57522431  0.94638563  1
  Se  Se167  1  0.75093345  0.91882158  0.44390517  1
  Se  Se168  1  0.73867225  0.92430138  0.94126095  1
  Se  Se169  1  0.24148441  0.08799814  0.44856709  1
  Se  Se170  1  0.25194070  0.08457083  0.94494493  1
  Se  Se171  1  0.25871236  0.40597615  0.43881141  1
  Se  Se172  1  0.22799787  0.43157004  0.94419602  1
  Se  Se173  1  0.25036405  0.74938687  0.44866319  1
  Se  Se174  1  0.24902744  0.75206117  0.94974907  1
  Se  Se175  1  0.58731439  0.07952488  0.43989164  1
  Se  Se176  1  0.57999026  0.09123249  0.94976250  1
  Se  Se177  1  0.58691391  0.41744596  0.45397716  1
  Se  Se178  1  0.58956619  0.40625541  0.93368987  1
  Se  Se179  1  0.59162542  0.74663929  0.43542758  1
  Se  Se180  1  0.59330043  0.74572004  0.93991482  1
  Se  Se181  1  0.91292005  0.08657050  0.44585869  1
  Se  Se182  1  0.94354366  0.05120991  0.93814086  1
  Se  Se183  1  0.92259727  0.40734688  0.44896116  1
  Se  Se184  1  0.91004186  0.41652379  0.94316581  1
  Se  Se185  1  0.91100916  0.75590743  0.45015566  1
  Se  Se186  1  0.92105825  0.74348996  0.93587914  1
  Se  Se187  1  0.24656890  0.24682391  0.30139846  1
  Se  Se188  1  0.25299836  0.25013104  0.80507276  1
  Se  Se189  1  0.25292160  0.58120283  0.29925485  1
  Se  Se190  1  0.24566304  0.57663887  0.81739717  1
  Se  Se191  1  0.24850203  0.91350325  0.31214291  1
  Se  Se192  1  0.24600667  0.92284508  0.80442677  1
  Se  Se193  1  0.58649853  0.25548572  0.30261925  1
  Se  Se194  1  0.58263430  0.24583689  0.80604665  1
  Se  Se195  1  0.58376707  0.58257770  0.30508303  1
  Se  Se196  1  0.58298690  0.57953758  0.79283335  1
  Se  Se197  1  0.58616597  0.91955767  0.29951057  1
  Se  Se198  1  0.58343348  0.91728010  0.80370023  1
  Se  Se199  1  0.90803535  0.24530187  0.31201456  1
  Se  Se200  1  0.91174332  0.23781578  0.80273755  1
  Se  Se201  1  0.90763861  0.57591326  0.30506893  1
  Se  Se202  1  0.91620565  0.57765167  0.81441251  1
  Se  Se203  1  0.91666805  0.92194488  0.30165748  1
  Se  Se204  1  0.90200255  0.90504238  0.80870708  1
  Se  Se205  1  0.08246521  0.08421175  0.30209572  1
  Se  Se206  1  0.08703923  0.09332884  0.81695998  1
  Se  Se207  1  0.09407265  0.42473615  0.30311223  1
  Se  Se208  1  0.07999663  0.40812511  0.80583450  1
  Se  Se209  1  0.08707638  0.76159395  0.31262681  1
  Se  Se210  1  0.08174925  0.75612242  0.81093050  1
  Se  Se211  1  0.43001179  0.09303971  0.30735501  1
  Se  Se212  1  0.41202922  0.08265908  0.80410768  1
  Se  Se213  1  0.42198375  0.41786591  0.31106050  1
  Se  Se214  1  0.43315470  0.43454821  0.80018176  1
  Se  Se215  1  0.41659463  0.74889886  0.30148309  1
  Se  Se216  1  0.42374603  0.75432294  0.81564148  1
  Se  Se217  1  0.74939072  0.08491679  0.30378522  1
  Se  Se218  1  0.74945204  0.08507905  0.80230455  1
  Se  Se219  1  0.74533433  0.41335294  0.30424637  1
  Se  Se220  1  0.75197388  0.41458716  0.80451372  1
  Se  Se221  1  0.75065933  0.74893035  0.29822305  1
  Se  Se222  1  0.74984869  0.74260472  0.79791402  1
  Se  Se223  1  0.25234960  0.08467456  0.18719617  1
  Se  Se224  1  0.24832323  0.07990515  0.69835185  1
  Se  Se225  1  0.23777405  0.41627215  0.17902225  1
  Se  Se226  1  0.25591897  0.41313859  0.70533051  1
  Se  Se227  1  0.25043005  0.74697558  0.19923256  1
  Se  Se228  1  0.24132958  0.75169936  0.69690437  1
  Se  Se229  1  0.59067120  0.08198739  0.19366706  1
  Se  Se230  1  0.57790030  0.08163506  0.70027114  1
  Se  Se231  1  0.58047348  0.41441647  0.19585049  1
  Se  Se232  1  0.58906670  0.41212342  0.70220094  1
  Se  Se233  1  0.58715044  0.74544689  0.19600092  1
  Se  Se234  1  0.58300800  0.75246205  0.69802893  1
  Se  Se235  1  0.92082603  0.08442720  0.19607432  1
  Se  Se236  1  0.91225022  0.08900788  0.68960704  1
  Se  Se237  1  0.90332633  0.41967323  0.18900277  1
  Se  Se238  1  0.92513353  0.41259168  0.70479038  1
  Se  Se239  1  0.90721299  0.75681040  0.18579880  1
  Se  Se240  1  0.90768158  0.76375550  0.69128455  1
  Se  Se241  1  0.08358436  0.24047219  0.18727113  1
  Se  Se242  1  0.08413848  0.24831727  0.69909031  1
  Se  Se243  1  0.08107388  0.57988586  0.18575778  1
  Se  Se244  1  0.09388982  0.57209896  0.69523663  1
  Se  Se245  1  0.08742377  0.92280923  0.19685427  1
  Se  Se246  1  0.08003636  0.91606113  0.69456095  1
  Se  Se247  1  0.42230167  0.23657549  0.18324500  1
  Se  Se248  1  0.41322427  0.25306776  0.69830612  1
  Se  Se249  1  0.41318065  0.58299326  0.20030898  1
  Se  Se250  1  0.42348434  0.58085086  0.68629009  1
  Se  Se251  1  0.43009191  0.90792903  0.18549657  1
  Se  Se252  1  0.40899222  0.91689767  0.70444282  1
  Se  Se253  1  0.74802162  0.25239604  0.19580101  1
  Se  Se254  1  0.72727267  0.26826286  0.70100358  1
  Se  Se255  1  0.74078891  0.58487369  0.19358164  1
  Se  Se256  1  0.76019664  0.58096249  0.69512847  1
  Se  Se257  1  0.74655203  0.92046660  0.19589305  1
  Se  Se258  1  0.73942510  0.93696094  0.69997920  1
