# generated using pymatgen
data_In86Cu29Se144
_symmetry_space_group_name_H-M   'P 1'
_cell_length_a   17.58091825
_cell_length_b   17.58626766
_cell_length_c   23.44616333
_cell_angle_alpha   89.98348464
_cell_angle_beta   89.98605245
_cell_angle_gamma   89.99003703
_symmetry_Int_Tables_number   1
_chemical_formula_structural   In86Cu29Se144
_chemical_formula_sum   'In86 Cu29 Se144'
_cell_volume   7249.14825936
_cell_formula_units_Z   1
loop_
 _symmetry_equiv_pos_site_id
 _symmetry_equiv_pos_as_xyz
  1  'x, y, z'
loop_
 _atom_site_type_symbol
 _atom_site_label
 _atom_site_symmetry_multiplicity
 _atom_site_fract_x
 _atom_site_fract_y
 _atom_site_fract_z
 _atom_site_occupancy
  In  In0  1  0.00293768  0.15227526  0.12301915  1
  In  In1  1  0.03282032  0.14759058  0.65025140  1
  In  In2  1  0.00271004  0.51136017  0.10616197  1
  In  In3  1  -0.00374083  0.49623549  0.62340302  1
  In  In4  1  0.01463788  0.83790173  0.12491282  1
  In  In5  1  0.01510636  0.83993015  0.61789384  1
  In  In6  1  0.33950671  0.17868875  0.11435518  1
  In  In7  1  0.31083822  0.17868879  0.64227326  1
  In  In8  1  0.33363283  0.50020365  0.12546462  1
  In  In9  1  0.32543584  0.50637727  0.62815138  1
  In  In10  1  0.31869846  0.82902410  0.12227599  1
  In  In11  1  0.34112605  0.84236771  0.61921279  1
  In  In12  1  0.65356664  0.17154472  0.12186502  1
  In  In13  1  0.66687883  0.16715555  0.63293304  1
  In  In14  1  0.66596260  0.51077428  0.11115690  1
  In  In15  1  0.66898201  0.48712526  0.63010325  1
  In  In16  1  0.66415727  0.83121664  0.13188693  1
  In  In17  1  0.65932306  0.84792212  0.62735168  1
  In  In18  1  0.15820755  0.00380771  0.38649272  1
  In  In19  1  0.17162751  0.00302188  0.86851384  1
  In  In20  1  0.17655839  0.32587060  0.38006548  1
  In  In21  1  0.16877168  0.33219475  0.87180006  1
  In  In22  1  0.17498452  0.66063896  0.37871231  1
  In  In23  1  0.16665103  0.66571652  0.89162536  1
  In  In24  1  0.49488963  -0.01394593  0.37585596  1
  In  In25  1  0.51048917  0.00695549  0.86696732  1
  In  In26  1  0.48547714  0.34840151  0.37252055  1
  In  In27  1  0.49357712  0.33419992  0.86814607  1
  In  In28  1  0.50755398  0.66818940  0.36450484  1
  In  In29  1  0.49618773  0.66074289  0.88286838  1
  In  In30  1  0.83281977  0.00019831  0.36844530  1
  In  In31  1  0.83741390  0.00801684  0.86788003  1
  In  In32  1  0.84688673  0.32937031  0.38125608  1
  In  In33  1  0.84177155  0.33754906  0.87006501  1
  In  In34  1  0.81889504  0.66428905  0.37375970  1
  In  In35  1  0.83292509  0.65124144  0.88589577  1
  In  In36  1  0.01654952  0.16433688  0.37882305  1
  In  In37  1  0.02598671  0.18171590  0.85114992  1
  In  In38  1  0.00011096  0.49770889  0.38253333  1
  In  In39  1  0.01385142  0.49138532  0.88906505  1
  In  In40  1  0.00415248  0.84717972  0.37561690  1
  In  In41  1  0.00483090  0.84952503  0.86994329  1
  In  In42  1  0.32071208  0.16470787  0.37593826  1
  In  In43  1  0.32545047  0.17305651  0.86671895  1
  In  In44  1  0.33208628  0.48866490  0.36116479  1
  In  In45  1  0.34212334  0.48408842  0.88090692  1
  In  In46  1  0.34092579  0.82895562  0.38382061  1
  In  In47  1  0.32496757  0.82667044  0.87399971  1
  In  In48  1  0.67889230  0.16576316  0.37249606  1
  In  In49  1  0.65461079  0.16208223  0.87159156  1
  In  In50  1  0.66170937  0.51200863  0.37466099  1
  In  In51  1  0.67104038  0.49512459  0.88306326  1
  In  In52  1  0.65835279  0.82517943  0.36856803  1
  In  In53  1  0.66015950  0.84655526  0.87300828  1
  In  In54  1  0.16282449  -0.00370679  0.11847371  1
  In  In55  1  0.16821710  0.00301184  0.62878551  1
  In  In56  1  0.17620212  0.34334518  0.11572691  1
  In  In57  1  0.16445311  0.33573419  0.63069233  1
  In  In58  1  0.17245074  0.67550288  0.11944834  1
  In  In59  1  0.17098092  0.66354862  0.61620243  1
  In  In60  1  0.49791298  0.01367795  0.12328971  1
  In  In61  1  0.49503295  -0.00548358  0.63205595  1
  In  In62  1  0.49128024  0.32845459  0.11590423  1
  In  In63  1  0.49892348  0.34293511  0.64413066  1
  In  In64  1  0.51090090  0.64714474  0.14089468  1
  In  In65  1  0.48837884  0.67178416  0.62442288  1
  In  In66  1  0.83787688  -0.00781812  0.13010325  1
  In  In67  1  0.83342658  -0.00056783  0.63043950  1
  In  In68  1  0.82289763  0.34491381  0.12000067  1
  In  In69  1  0.83469671  0.33556742  0.63114856  1
  In  In70  1  0.82725205  0.65358200  0.12177459  1
  In  In71  1  0.84170350  0.66271930  0.61988031  1
  In  In72  1  0.66626208  0.66781334  0.76081194  1
  In  In73  1  0.00079616  0.32960244  0.24817041  1
  In  In74  1  0.66329919  0.33346616  0.24772877  1
  In  In75  1  -0.00318551  0.66906380  0.24120133  1
  In  In76  1  0.83854800  0.83014939  0.50127134  1
  In  In77  1  0.33247560  -0.00129309  0.24967577  1
  In  In78  1  0.33861603  0.66376484  0.75622187  1
  In  In79  1  0.84726461  0.16826406  0.51094284  1
  In  In80  1  -0.00138638  0.67115841  0.74809518  1
  In  In81  1  0.49498884  0.50470391  0.50033016  1
  In  In82  1  0.49681744  0.16192926  0.51142474  1
  In  In83  1  0.49440019  0.83006927  -0.00296414  1
  In  In84  1  0.83872276  0.16866521  -0.00510638  1
  In  In85  1  0.84148488  0.82762136  0.00598980  1
  Cu  Cu86  1  0.82504383  0.17193374  0.75137326  1
  Cu  Cu87  1  0.65797246  0.33448111  -0.00227952  1
  Cu  Cu88  1  0.50225576  0.16772357  0.24305102  1
  Cu  Cu89  1  0.49858281  0.16567091  0.75109841  1
  Cu  Cu90  1  0.32689339  0.33016126  0.50373320  1
  Cu  Cu91  1  0.16706468  0.83572476  0.24927357  1
  Cu  Cu92  1  0.49842352  0.83256156  0.25237296  1
  Cu  Cu93  1  0.67105914  0.34034091  0.50956538  1
  Cu  Cu94  1  0.17225547  0.83654965  0.74742585  1
  Cu  Cu95  1  0.82913340  0.83894610  0.75093953  1
  Cu  Cu96  1  0.33215393  0.66075706  0.00395659  1
  Cu  Cu97  1  0.83361917  0.15202331  0.24640376  1
  Cu  Cu98  1  0.17267451  0.49607036  0.24780092  1
  Cu  Cu99  1  0.65965378  -0.00566703  0.49917378  1
  Cu  Cu100  1  0.16914669  0.49477272  0.75459839  1
  Cu  Cu101  1  -0.00002628  0.33061784  -0.00841602  1
  Cu  Cu102  1  0.17232427  0.16781019  0.25255314  1
  Cu  Cu103  1  0.32953678  0.00622420  -0.00381840  1
  Cu  Cu104  1  0.66747797  0.00440068  -0.00260709  1
  Cu  Cu105  1  0.83602391  0.49547578  0.75293013  1
  Cu  Cu106  1  0.00513930  0.33787236  0.50742025  1
  Cu  Cu107  1  0.33126566  0.66912047  0.49753459  1
  Cu  Cu108  1  0.01687660  0.00757282  -0.00999152  1
  Cu  Cu109  1  0.82833250  0.49828392  0.24586412  1
  Cu  Cu110  1  0.82769699  0.83384055  0.25306554  1
  Cu  Cu111  1  0.66227923  0.66720635  0.49434719  1
  Cu  Cu112  1  0.32111402  0.00114769  0.50453384  1
  Cu  Cu113  1  0.00397587  0.65898818  0.49807508  1
  Cu  Cu114  1  0.32805605  0.33249989  -0.00638196  1
  Se  Se115  1  0.09311800  0.09091755  0.04907632  1
  Se  Se116  1  0.08350233  0.08461878  0.56023313  1
  Se  Se117  1  0.08134802  0.41360146  0.04846590  1
  Se  Se118  1  0.09077073  0.42246950  0.55793439  1
  Se  Se119  1  0.07320713  0.74338875  0.05558453  1
  Se  Se120  1  0.08320670  0.74507450  0.55115479  1
  Se  Se121  1  0.41708884  0.08565632  0.04920711  1
  Se  Se122  1  0.39935084  0.08036582  0.56822715  1
  Se  Se123  1  0.40869133  0.41544033  0.05128053  1
  Se  Se124  1  0.41194443  0.40859783  0.56180444  1
  Se  Se125  1  0.41362047  0.74190430  0.06355398  1
  Se  Se126  1  0.41667991  0.75136039  0.54965092  1
  Se  Se127  1  0.75063112  0.07985178  0.05950115  1
  Se  Se128  1  0.74067683  0.07690991  0.55664516  1
  Se  Se129  1  0.74571649  0.41904064  0.04594625  1
  Se  Se130  1  0.75921800  0.42134857  0.55786442  1
  Se  Se131  1  0.73776438  0.74537633  0.05735080  1
  Se  Se132  1  0.73992042  0.74567850  0.56004389  1
  Se  Se133  1  0.24461024  0.24828152  0.04728951  1
  Se  Se134  1  0.24398782  0.25010056  0.55916719  1
  Se  Se135  1  0.24518107  0.57864698  0.05554816  1
  Se  Se136  1  0.25323462  0.57875910  0.54883650  1
  Se  Se137  1  0.25144236  0.91873683  0.05052213  1
  Se  Se138  1  0.24204880  0.91268313  0.55679655  1
  Se  Se139  1  0.57684107  0.24597798  0.04731958  1
  Se  Se140  1  0.58559442  0.26175369  0.56466840  1
  Se  Se141  1  0.56764590  0.58590508  0.05144920  1
  Se  Se142  1  0.58992895  0.58857998  0.56259144  1
  Se  Se143  1  0.58745674  0.92220269  0.05718618  1
  Se  Se144  1  0.57366839  0.91773441  0.55403361  1
  Se  Se145  1  0.92358955  0.25838954  0.06155543  1
  Se  Se146  1  0.93664724  0.25334733  0.57194113  1
  Se  Se147  1  0.90784189  0.58693857  0.04590449  1
  Se  Se148  1  0.91740837  0.57861966  0.55051122  1
  Se  Se149  1  0.93287012  0.93179495  0.05278079  1
  Se  Se150  1  0.92326863  0.92919673  0.55531137  1
  Se  Se151  1  0.08386230  0.25521767  0.44879001  1
  Se  Se152  1  0.08352533  0.24708284  0.94021153  1
  Se  Se153  1  0.09015976  0.57728946  0.44587441  1
  Se  Se154  1  0.07614117  0.58950653  0.95506220  1
  Se  Se155  1  0.08545010  0.91048868  0.45203919  1
  Se  Se156  1  0.09494795  0.91509178  0.94192266  1
  Se  Se157  1  0.41285643  0.25377541  0.44459488  1
  Se  Se158  1  0.41111284  0.25061733  0.93803149  1
  Se  Se159  1  0.40969239  0.58912739  0.43473357  1
  Se  Se160  1  0.41356854  0.57822414  0.94914242  1
  Se  Se161  1  0.41162365  0.92286849  0.45272886  1
  Se  Se162  1  0.41100349  0.92490663  0.93642334  1
  Se  Se163  1  0.74701985  0.25461743  0.44980470  1
  Se  Se164  1  0.74260924  0.25514781  0.93826464  1
  Se  Se165  1  0.74886194  0.58029399  0.44854926  1
  Se  Se166  1  0.73693785  0.58960671  0.95251530  1
  Se  Se167  1  0.74456924  0.91773489  0.44045565  1
  Se  Se168  1  0.75399109  0.92414471  0.94396852  1
  Se  Se169  1  0.24478655  0.08975851  0.45072078  1
  Se  Se170  1  0.24841683  0.08790012  0.94005889  1
  Se  Se171  1  0.25795310  0.41823171  0.44225701  1
  Se  Se172  1  0.24123766  0.41826346  0.94551481  1
  Se  Se173  1  0.24511482  0.75369737  0.44740275  1
  Se  Se174  1  0.25423112  0.75253928  0.95337333  1
  Se  Se175  1  0.58634031  0.08275568  0.44062157  1
  Se  Se176  1  0.57903785  0.08403620  0.94740324  1
  Se  Se177  1  0.58860809  0.40976442  0.44368791  1
  Se  Se178  1  0.57410759  0.41439919  0.94207307  1
  Se  Se179  1  0.57787740  0.74918549  0.44242259  1
  Se  Se180  1  0.59497890  0.74654012  0.94160582  1
  Se  Se181  1  0.92226161  0.07738160  0.44102357  1
  Se  Se182  1  0.93244679  0.08730449  0.93336334  1
  Se  Se183  1  0.91786710  0.41546513  0.45209109  1
  Se  Se184  1  0.91085848  0.41668072  0.94757477  1
  Se  Se185  1  0.92386542  0.73897359  0.43630330  1
  Se  Se186  1  0.92765824  0.74999954  0.93554287  1
  Se  Se187  1  0.25558528  0.25393609  0.30230415  1
  Se  Se188  1  0.22730552  0.23813201  0.79678664  1
  Se  Se189  1  0.24897507  0.58443553  0.30208320  1
  Se  Se190  1  0.24275773  0.57970898  0.81590657  1
  Se  Se191  1  0.24538010  0.91298992  0.31404831  1
  Se  Se192  1  0.25731592  0.91553943  0.80211418  1
  Se  Se193  1  0.57459621  0.24494666  0.31292223  1
  Se  Se194  1  0.58285753  0.25162306  0.80186469  1
  Se  Se195  1  0.57607971  0.57054725  0.29944304  1
  Se  Se196  1  0.57474804  0.57334344  0.81217942  1
  Se  Se197  1  0.58201630  0.91867088  0.30285572  1
  Se  Se198  1  0.58581398  0.91899207  0.79796245  1
  Se  Se199  1  0.91089869  0.23448965  0.30738277  1
  Se  Se200  1  0.91623777  0.25268145  0.79898803  1
  Se  Se201  1  0.91208972  0.57586563  0.30668493  1
  Se  Se202  1  0.91795674  0.57662371  0.81124665  1
  Se  Se203  1  0.91626924  0.91466163  0.30256733  1
  Se  Se204  1  0.91715364  0.92164047  0.79978860  1
  Se  Se205  1  0.09079795  0.08248008  0.30543484  1
  Se  Se206  1  0.06890906  0.06018339  0.80061691  1
  Se  Se207  1  0.08871486  0.42025676  0.30888858  1
  Se  Se208  1  0.07905127  0.41810954  0.80700004  1
  Se  Se209  1  0.08532152  0.75249514  0.30774399  1
  Se  Se210  1  0.09601944  0.75216727  0.80886259  1
  Se  Se211  1  0.42378294  0.09079599  0.30929623  1
  Se  Se212  1  0.41476571  0.08422404  0.80486948  1
  Se  Se213  1  0.42679307  0.42392028  0.29184135  1
  Se  Se214  1  0.40444082  0.41082262  0.79953909  1
  Se  Se215  1  0.41252281  0.75272229  0.30586242  1
  Se  Se216  1  0.43135208  0.75735154  0.81054661  1
  Se  Se217  1  0.74379778  0.07698885  0.29995960  1
  Se  Se218  1  0.74477910  0.08489236  0.80404042  1
  Se  Se219  1  0.75936864  0.41529570  0.31175106  1
  Se  Se220  1  0.74871570  0.41829695  0.80740980  1
  Se  Se221  1  0.74530985  0.74505337  0.30056501  1
  Se  Se222  1  0.76340720  0.75684697  0.81700525  1
  Se  Se223  1  0.24923452  0.09005468  0.18668009  1
  Se  Se224  1  0.25979288  0.06703244  0.70144235  1
  Se  Se225  1  0.25307976  0.41084664  0.19469424  1
  Se  Se226  1  0.25387108  0.41779377  0.69777839  1
  Se  Se227  1  0.24741185  0.74872180  0.19853954  1
  Se  Se228  1  0.24858810  0.74855044  0.69065532  1
  Se  Se229  1  0.58725900  0.08239543  0.19567946  1
  Se  Se230  1  0.58038188  0.08244918  0.69560400  1
  Se  Se231  1  0.58241457  0.41700188  0.17996053  1
  Se  Se232  1  0.59038564  0.42037331  0.70619013  1
  Se  Se233  1  0.58345600  0.74856908  0.20091104  1
  Se  Se234  1  0.58018670  0.75162548  0.69268381  1
  Se  Se235  1  0.92436060  0.07486474  0.19629111  1
  Se  Se236  1  0.90884475  0.09125426  0.69570785  1
  Se  Se237  1  0.91619016  0.42549613  0.18705496  1
  Se  Se238  1  0.92256108  0.41676523  0.69861142  1
  Se  Se239  1  0.90420603  0.76034714  0.18441822  1
  Se  Se240  1  0.90918457  0.76354654  0.68755089  1
  Se  Se241  1  0.09242249  0.24364199  0.18772937  1
  Se  Se242  1  0.10111658  0.25029321  0.71017271  1
  Se  Se243  1  0.08858597  0.57350996  0.18870815  1
  Se  Se244  1  0.09325634  0.57935670  0.69333859  1
  Se  Se245  1  0.08691855  0.92290986  0.19753218  1
  Se  Se246  1  0.08221568  0.91544893  0.69697834  1
  Se  Se247  1  0.41642101  0.24980853  0.19286268  1
  Se  Se248  1  0.41366094  0.25102485  0.70150581  1
  Se  Se249  1  0.39336153  0.59971757  0.19475234  1
  Se  Se250  1  0.42867436  0.57272873  0.69572926  1
  Se  Se251  1  0.42132524  0.90959602  0.18694556  1
  Se  Se252  1  0.41888051  0.90402204  0.69880878  1
  Se  Se253  1  0.75924515  0.24152339  0.18957524  1
  Se  Se254  1  0.74477550  0.25753124  0.69775715  1
  Se  Se255  1  0.74302480  0.57861045  0.19331143  1
  Se  Se256  1  0.76016061  0.58354772  0.69561050  1
  Se  Se257  1  0.74664612  0.91813185  0.19693315  1
  Se  Se258  1  0.74540857  0.92132483  0.69796230  1
