# generated using pymatgen
data_In86Cu29Se144
_symmetry_space_group_name_H-M   'P 1'
_cell_length_a   17.58090288
_cell_length_b   17.57856454
_cell_length_c   23.45002486
_cell_angle_alpha   89.98569550
_cell_angle_beta   90.02588165
_cell_angle_gamma   89.98124659
_symmetry_Int_Tables_number   1
_chemical_formula_structural   In86Cu29Se144
_chemical_formula_sum   'In86 Cu29 Se144'
_cell_volume   7247.15931983
_cell_formula_units_Z   1
loop_
 _symmetry_equiv_pos_site_id
 _symmetry_equiv_pos_as_xyz
  1  'x, y, z'
loop_
 _atom_site_type_symbol
 _atom_site_label
 _atom_site_symmetry_multiplicity
 _atom_site_fract_x
 _atom_site_fract_y
 _atom_site_fract_z
 _atom_site_occupancy
  In  In0  1  -0.01765304  0.16743831  0.12449418  1
  In  In1  1  -0.00928863  0.16849436  0.63160673  1
  In  In2  1  0.01114799  0.50960099  0.12021057  1
  In  In3  1  -0.00743395  0.50770489  0.63607880  1
  In  In4  1  0.00013752  0.83406808  0.13677570  1
  In  In5  1  0.00642907  0.82861445  0.62170652  1
  In  In6  1  0.35241548  0.16933412  0.12738165  1
  In  In7  1  0.32876650  0.15196607  0.62212239  1
  In  In8  1  0.32659438  0.50302373  0.11666445  1
  In  In9  1  0.34370925  0.50559985  0.63073964  1
  In  In10  1  0.34155585  0.81354702  0.12039810  1
  In  In11  1  0.33635582  0.82964546  0.62238474  1
  In  In12  1  0.67579479  0.16105066  0.13234262  1
  In  In13  1  0.67490030  0.17077076  0.61870805  1
  In  In14  1  0.65860132  0.50503719  0.12906864  1
  In  In15  1  0.66596970  0.50062832  0.63669190  1
  In  In16  1  0.66220709  0.83893946  0.13172683  1
  In  In17  1  0.65740572  0.82386802  0.61619331  1
  In  In18  1  0.15161770  -0.00480180  0.37135451  1
  In  In19  1  0.16117891  -0.00904580  0.86618152  1
  In  In20  1  0.16759954  0.32466352  0.37057579  1
  In  In21  1  0.17070498  0.35377281  0.87735423  1
  In  In22  1  0.16659371  0.68078047  0.38088795  1
  In  In23  1  0.15803089  0.65633431  0.86992302  1
  In  In24  1  0.51198849  -0.01320046  0.38146478  1
  In  In25  1  0.49082292  0.00499300  0.87045257  1
  In  In26  1  0.49843688  0.32957339  0.36772751  1
  In  In27  1  0.51585016  0.34206759  0.87385420  1
  In  In28  1  0.50344177  0.66771939  0.37437784  1
  In  In29  1  0.50200660  0.66469216  0.87467636  1
  In  In30  1  0.83348826  -0.00183587  0.37955816  1
  In  In31  1  0.83952688  -0.00715105  0.87594298  1
  In  In32  1  0.81909839  0.33733589  0.37512077  1
  In  In33  1  0.82163461  0.32461731  0.87384186  1
  In  In34  1  0.84245737  0.68010317  0.36835811  1
  In  In35  1  0.83922089  0.67146164  0.86619141  1
  In  In36  1  0.00030154  0.15104879  0.37691356  1
  In  In37  1  -0.01299431  0.15698584  0.87009478  1
  In  In38  1  -0.00344504  0.50211215  0.37053551  1
  In  In39  1  0.01204671  0.51091821  0.87115456  1
  In  In40  1  -0.00607924  0.83023543  0.38268539  1
  In  In41  1  -0.00112786  0.83159675  0.86469633  1
  In  In42  1  0.33422649  0.17899214  0.37148003  1
  In  In43  1  0.34302625  0.15940624  0.86956527  1
  In  In44  1  0.34200694  0.50604621  0.37257489  1
  In  In45  1  0.32086377  0.51838290  0.89277706  1
  In  In46  1  0.32932354  0.82259071  0.39158755  1
  In  In47  1  0.33994251  0.83620077  0.86553613  1
  In  In48  1  0.66950680  0.16393291  0.37713327  1
  In  In49  1  0.66490642  0.18277169  0.87982073  1
  In  In50  1  0.66535282  0.50159067  0.36369453  1
  In  In51  1  0.65672103  0.49218480  0.87515843  1
  In  In52  1  0.66835756  0.83463504  0.37380889  1
  In  In53  1  0.67294780  0.82136803  0.87396294  1
  In  In54  1  0.16049167  -0.01441096  0.12809380  1
  In  In55  1  0.17508045  -0.01218924  0.63276764  1
  In  In56  1  0.16933504  0.35779327  0.12720653  1
  In  In57  1  0.15813715  0.31701539  0.62657028  1
  In  In58  1  0.15980846  0.64983598  0.12454315  1
  In  In59  1  0.16287174  0.67595513  0.62739121  1
  In  In60  1  0.52322815  0.00221599  0.11969409  1
  In  In61  1  0.48980194  -0.01195067  0.61554426  1
  In  In62  1  0.49225847  0.34017334  0.13236451  1
  In  In63  1  0.51530141  0.33803098  0.62512228  1
  In  In64  1  0.50436491  0.67996528  0.11206950  1
  In  In65  1  0.49218848  0.67746189  0.63537600  1
  In  In66  1  0.82188423  0.01088422  0.13461269  1
  In  In67  1  0.84267201  0.00426976  0.61833120  1
  In  In68  1  0.83049756  0.31764511  0.12126070  1
  In  In69  1  0.83493053  0.32997992  0.63382811  1
  In  In70  1  0.83421107  0.66507542  0.13328993  1
  In  In71  1  0.83123651  0.67162957  0.62633399  1
  In  In72  1  0.33577645  0.00142156  0.24964874  1
  In  In73  1  0.83264741  0.83468246  -0.00441208  1
  In  In74  1  0.50116252  0.51032766  0.49415796  1
  In  In75  1  0.50498057  0.17176997  -0.00225186  1
  In  In76  1  0.66837901  0.00077214  0.74375604  1
  In  In77  1  0.16591193  0.17347427  -0.00288754  1
  In  In78  1  0.33391829  0.33260601  0.75403330  1
  In  In79  1  -0.00275218  0.33635042  0.24292610  1
  In  In80  1  0.16510254  0.50608673  0.50455205  1
  In  In81  1  0.32820714  0.66259090  0.24818989  1
  In  In82  1  0.16575168  0.15719059  0.49737433  1
  In  In83  1  0.16646104  0.82407503  -0.00446584  1
  In  In84  1  0.82946719  0.50753192  0.50705589  1
  In  In85  1  0.83235896  0.49684382  0.00366124  1
  Cu  Cu86  1  -0.00408355  0.33616254  0.00035293  1
  Cu  Cu87  1  0.83853853  0.83328201  0.74515959  1
  Cu  Cu88  1  0.66703619  0.66453866  -0.00227016  1
  Cu  Cu89  1  -0.00096856  -0.00576916  0.50115893  1
  Cu  Cu90  1  0.83411349  0.83411799  0.25665502  1
  Cu  Cu91  1  0.50199541  0.50437308  0.75628323  1
  Cu  Cu92  1  0.66588644  0.32415511  0.49911895  1
  Cu  Cu93  1  0.50271638  0.83572294  0.24769617  1
  Cu  Cu94  1  0.83525742  0.49726620  0.75607962  1
  Cu  Cu95  1  0.49950325  0.50126683  0.24873011  1
  Cu  Cu96  1  0.17104572  0.83179194  0.74693639  1
  Cu  Cu97  1  0.33848728  -0.00172843  0.50024114  1
  Cu  Cu98  1  0.15669156  0.16355832  0.75097050  1
  Cu  Cu99  1  0.16918113  0.17184354  0.25009598  1
  Cu  Cu100  1  0.51053080  0.16722066  0.25083971  1
  Cu  Cu101  1  0.82744134  0.17086245  0.74881596  1
  Cu  Cu102  1  -0.01025577  0.00437324  0.00202056  1
  Cu  Cu103  1  0.49889351  0.16420633  0.74809075  1
  Cu  Cu104  1  0.15722779  0.83260170  0.25656168  1
  Cu  Cu105  1  0.33597260  -0.00938508  -0.00783631  1
  Cu  Cu106  1  0.34082311  0.33305019  0.49189127  1
  Cu  Cu107  1  0.82780843  0.50151628  0.24707285  1
  Cu  Cu108  1  0.50328315  0.82937868  0.74441588  1
  Cu  Cu109  1  0.33623327  0.33895056  0.00364239  1
  Cu  Cu110  1  0.66519301  0.67102969  0.49815874  1
  Cu  Cu111  1  0.16846148  0.50127379  0.75125618  1
  Cu  Cu112  1  0.83434894  0.16325158  0.25404548  1
  Cu  Cu113  1  -0.01060514  0.32993439  0.50765829  1
  Cu  Cu114  1  0.66884015  -0.00002181  0.49877089  1
  Se  Se115  1  0.07999471  0.07815711  0.05871020  1
  Se  Se116  1  0.07831472  0.07560460  0.56382441  1
  Se  Se117  1  0.08216344  0.41850177  0.05044406  1
  Se  Se118  1  0.07368417  0.41057003  0.56295431  1
  Se  Se119  1  0.07384553  0.74707803  0.06142079  1
  Se  Se120  1  0.09771363  0.75888172  0.55039724  1
  Se  Se121  1  0.41319210  0.07287967  0.05377467  1
  Se  Se122  1  0.41889956  0.08704640  0.55006607  1
  Se  Se123  1  0.42067122  0.42043342  0.05627711  1
  Se  Se124  1  0.41435374  0.41330106  0.55585593  1
  Se  Se125  1  0.40998488  0.74320622  0.04105535  1
  Se  Se126  1  0.42837771  0.75317820  0.55603213  1
  Se  Se127  1  0.74658667  0.07983740  0.05716692  1
  Se  Se128  1  0.75302947  0.08302391  0.55200279  1
  Se  Se129  1  0.74040136  0.40966971  0.06165102  1
  Se  Se130  1  0.73953907  0.41008717  0.56085126  1
  Se  Se131  1  0.74744935  0.74382980  0.05890022  1
  Se  Se132  1  0.75316136  0.74925930  0.55164259  1
  Se  Se133  1  0.25853278  0.25421834  0.06262051  1
  Se  Se134  1  0.25721725  0.25578363  0.55285169  1
  Se  Se135  1  0.26581358  0.60985247  0.05583792  1
  Se  Se136  1  0.26094545  0.58991762  0.56213409  1
  Se  Se137  1  0.25613615  0.91807845  0.05678646  1
  Se  Se138  1  0.25388576  0.91923183  0.55555432  1
  Se  Se139  1  0.58524487  0.25277359  0.06828963  1
  Se  Se140  1  0.57916303  0.24672524  0.55325217  1
  Se  Se141  1  0.58488799  0.58286594  0.05268686  1
  Se  Se142  1  0.59050199  0.58918663  0.56198396  1
  Se  Se143  1  0.57881930  0.90153685  0.05346445  1
  Se  Se144  1  0.58317022  0.91525129  0.54944166  1
  Se  Se145  1  0.91423442  0.24642299  0.04675940  1
  Se  Se146  1  0.90782049  0.24617532  0.55937766  1
  Se  Se147  1  0.92090122  0.59598097  0.05533117  1
  Se  Se148  1  0.92953290  0.59453795  0.55735854  1
  Se  Se149  1  0.91802959  0.92005432  0.06408930  1
  Se  Se150  1  0.91679228  0.90957710  0.55413290  1
  Se  Se151  1  0.07328056  0.25667881  0.44449864  1
  Se  Se152  1  0.07493026  0.25815378  0.93526993  1
  Se  Se153  1  0.07212524  0.58857284  0.44290723  1
  Se  Se154  1  0.08900003  0.58003512  0.94876981  1
  Se  Se155  1  0.08502462  0.91460806  0.44768964  1
  Se  Se156  1  0.07119518  0.92259533  0.94322049  1
  Se  Se157  1  0.42394980  0.24770798  0.44286504  1
  Se  Se158  1  0.40844377  0.25970860  0.93839105  1
  Se  Se159  1  0.40192173  0.60260167  0.44571135  1
  Se  Se160  1  0.44380623  0.56092157  0.94119822  1
  Se  Se161  1  0.41947484  0.91201606  0.44795956  1
  Se  Se162  1  0.42205587  0.91249094  0.93988741  1
  Se  Se163  1  0.75490984  0.24666671  0.44711611  1
  Se  Se164  1  0.74793381  0.25350539  0.95238292  1
  Se  Se165  1  0.74250803  0.58781625  0.43790370  1
  Se  Se166  1  0.75097243  0.58998017  0.93757059  1
  Se  Se167  1  0.75027153  0.91324141  0.44645833  1
  Se  Se168  1  0.73732246  0.92551995  0.94202572  1
  Se  Se169  1  0.25828830  0.07289939  0.43428126  1
  Se  Se170  1  0.25311675  0.07529239  0.93882387  1
  Se  Se171  1  0.25293562  0.41311511  0.43980577  1
  Se  Se172  1  0.24605468  0.42201892  0.95659379  1
  Se  Se173  1  0.23630339  0.75405798  0.45970943  1
  Se  Se174  1  0.25593979  0.74382317  0.93137655  1
  Se  Se175  1  0.58384300  0.08333461  0.44635747  1
  Se  Se176  1  0.58856003  0.07619874  0.93851298  1
  Se  Se177  1  0.59136003  0.41279066  0.44036444  1
  Se  Se178  1  0.58825253  0.41244275  0.95217136  1
  Se  Se179  1  0.58187883  0.75222748  0.44307781  1
  Se  Se180  1  0.58545434  0.74971557  0.94427612  1
  Se  Se181  1  0.91685834  0.08206000  0.45060915  1
  Se  Se182  1  0.90759192  0.08506696  0.94712954  1
  Se  Se183  1  0.91812510  0.41355448  0.44440732  1
  Se  Se184  1  0.92065382  0.41577191  0.93568195  1
  Se  Se185  1  0.90860257  0.74860084  0.45011861  1
  Se  Se186  1  0.92805675  0.74423344  0.94144421  1
  Se  Se187  1  0.25457283  0.25576735  0.29759332  1
  Se  Se188  1  0.23856314  0.24222680  0.81275914  1
  Se  Se189  1  0.23749601  0.57938645  0.31271848  1
  Se  Se190  1  0.25455047  0.58041545  0.80539553  1
  Se  Se191  1  0.24999044  0.90706015  0.31127475  1
  Se  Se192  1  0.25279460  0.91865551  0.79949535  1
  Se  Se193  1  0.59211500  0.25095671  0.30566009  1
  Se  Se194  1  0.57939994  0.24706776  0.80292439  1
  Se  Se195  1  0.57988663  0.58901855  0.30085551  1
  Se  Se196  1  0.59148413  0.58668132  0.80490319  1
  Se  Se197  1  0.58623930  0.91751373  0.30169390  1
  Se  Se198  1  0.58135633  0.91121803  0.80674126  1
  Se  Se199  1  0.91543448  0.24768093  0.31182315  1
  Se  Se200  1  0.91233021  0.25093765  0.80461765  1
  Se  Se201  1  0.91165965  0.58067545  0.30300974  1
  Se  Se202  1  0.92220433  0.58471545  0.80157231  1
  Se  Se203  1  0.91821919  0.91666907  0.31065176  1
  Se  Se204  1  0.91670860  0.91972983  0.79962436  1
  Se  Se205  1  0.08524959  0.08728997  0.30018073  1
  Se  Se206  1  0.07552189  0.07759077  0.80353973  1
  Se  Se207  1  0.09008858  0.42049820  0.30519552  1
  Se  Se208  1  0.08396557  0.41662411  0.80181744  1
  Se  Se209  1  0.07647292  0.74859319  0.30983345  1
  Se  Se210  1  0.08671287  0.74910087  0.80130022  1
  Se  Se211  1  0.42704259  0.08717857  0.31133770  1
  Se  Se212  1  0.41229511  0.07814983  0.79373684  1
  Se  Se213  1  0.41620688  0.41955471  0.30358026  1
  Se  Se214  1  0.41631916  0.42554720  0.81482042  1
  Se  Se215  1  0.41551523  0.76021778  0.30734553  1
  Se  Se216  1  0.42257160  0.74707567  0.80200124  1
  Se  Se217  1  0.75155185  0.08001266  0.30824245  1
  Se  Se218  1  0.75089819  0.08868702  0.81109124  1
  Se  Se219  1  0.74739070  0.41387372  0.29806550  1
  Se  Se220  1  0.74716586  0.41630276  0.80647087  1
  Se  Se221  1  0.74500205  0.74834137  0.30262279  1
  Se  Se222  1  0.75342237  0.75152728  0.79805083  1
  Se  Se223  1  0.24504812  0.08993941  0.18617689  1
  Se  Se224  1  0.24626957  0.08590591  0.69837908  1
  Se  Se225  1  0.25835364  0.42573992  0.19589196  1
  Se  Se226  1  0.24258453  0.41774011  0.68810885  1
  Se  Se227  1  0.23773290  0.75904177  0.19133584  1
  Se  Se228  1  0.25597734  0.74841439  0.69510025  1
  Se  Se229  1  0.58932917  0.07825679  0.19990613  1
  Se  Se230  1  0.57538318  0.08634201  0.68334194  1
  Se  Se231  1  0.58470304  0.41542827  0.19934048  1
  Se  Se232  1  0.58224589  0.41616307  0.70380436  1
  Se  Se233  1  0.57986031  0.74641333  0.19408750  1
  Se  Se234  1  0.59393930  0.74656874  0.69817706  1
  Se  Se235  1  0.91972150  0.08176798  0.20082801  1
  Se  Se236  1  0.90942620  0.08217488  0.69879033  1
  Se  Se237  1  0.90696502  0.42519319  0.18217671  1
  Se  Se238  1  0.91785334  0.41431139  0.70044567  1
  Se  Se239  1  0.91557393  0.74930702  0.20146270  1
  Se  Se240  1  0.92231427  0.74830438  0.69315994  1
  Se  Se241  1  0.09009432  0.24592073  0.18301053  1
  Se  Se242  1  0.07449443  0.25063595  0.70133386  1
  Se  Se243  1  0.07638065  0.58466562  0.20008147  1
  Se  Se244  1  0.08763203  0.58621643  0.69659264  1
  Se  Se245  1  0.07797882  0.92248358  0.20551997  1
  Se  Se246  1  0.08099713  0.91338967  0.69667191  1
  Se  Se247  1  0.41993886  0.24931858  0.20379172  1
  Se  Se248  1  0.41911715  0.24645386  0.68694914  1
  Se  Se249  1  0.42525890  0.58464606  0.18638560  1
  Se  Se250  1  0.41731167  0.58633494  0.70361626  1
  Se  Se251  1  0.42081990  0.91201875  0.18563477  1
  Se  Se252  1  0.41761151  0.91425302  0.69430306  1
  Se  Se253  1  0.75380112  0.24986654  0.20107827  1
  Se  Se254  1  0.74027953  0.25225954  0.69760542  1
  Se  Se255  1  0.74285207  0.58725551  0.19763666  1
  Se  Se256  1  0.75784339  0.58204800  0.69718797  1
  Se  Se257  1  0.75096588  0.91453323  0.19977287  1
  Se  Se258  1  0.75514825  0.90906564  0.68355135  1
