# generated using pymatgen
data_In86Cu29Se144
_symmetry_space_group_name_H-M   'P 1'
_cell_length_a   17.57553402
_cell_length_b   17.57176467
_cell_length_c   23.42335103
_cell_angle_alpha   89.98340819
_cell_angle_beta   90.00338752
_cell_angle_gamma   89.98917390
_symmetry_Int_Tables_number   1
_chemical_formula_structural   In86Cu29Se144
_chemical_formula_sum   'In86 Cu29 Se144'
_cell_volume   7233.90678857
_cell_formula_units_Z   1
loop_
 _symmetry_equiv_pos_site_id
 _symmetry_equiv_pos_as_xyz
  1  'x, y, z'
loop_
 _atom_site_type_symbol
 _atom_site_label
 _atom_site_symmetry_multiplicity
 _atom_site_fract_x
 _atom_site_fract_y
 _atom_site_fract_z
 _atom_site_occupancy
  In  In0  1  0.01978414  0.16303790  0.12248481  1
  In  In1  1  -0.00186243  0.16800660  0.62518001  1
  In  In2  1  -0.00554287  0.48978055  0.11657647  1
  In  In3  1  0.01396903  0.48908199  0.63135606  1
  In  In4  1  -0.00400076  0.83818483  0.12188866  1
  In  In5  1  0.01322905  0.82502695  0.63347221  1
  In  In6  1  0.32860803  0.17363093  0.13276818  1
  In  In7  1  0.32965680  0.16924272  0.63080008  1
  In  In8  1  0.31936537  0.49585973  0.12062010  1
  In  In9  1  0.33208888  0.49935933  0.63058619  1
  In  In10  1  0.34383862  0.83550190  0.12469813  1
  In  In11  1  0.33076870  0.83904337  0.62483905  1
  In  In12  1  0.65428966  0.16371560  0.12198953  1
  In  In13  1  0.66847412  0.15867073  0.63470108  1
  In  In14  1  0.66799113  0.48653932  0.11195763  1
  In  In15  1  0.65061548  0.50132107  0.64183181  1
  In  In16  1  0.67045755  0.83910470  0.12295455  1
  In  In17  1  0.65064619  0.84252376  0.63192797  1
  In  In18  1  0.18263890  -0.00379461  0.39713746  1
  In  In19  1  0.18250633  0.01809287  0.86630446  1
  In  In20  1  0.16722019  0.33278614  0.37865141  1
  In  In21  1  0.16981321  0.33668695  0.87077059  1
  In  In22  1  0.18151858  0.66026395  0.38738266  1
  In  In23  1  0.15688448  0.66106347  0.86516318  1
  In  In24  1  0.49115464  -0.00167423  0.37820967  1
  In  In25  1  0.49111723  0.00325702  0.86191774  1
  In  In26  1  0.50101509  0.34931159  0.38450275  1
  In  In27  1  0.49240112  0.32810260  0.84546049  1
  In  In28  1  0.49225859  0.67093266  0.39264614  1
  In  In29  1  0.50922200  0.66755650  0.85850493  1
  In  In30  1  0.83676579  0.01820058  0.37814794  1
  In  In31  1  0.82911432  -0.00872024  0.86830663  1
  In  In32  1  0.83306551  0.31963966  0.37787249  1
  In  In33  1  0.84451599  0.34018218  0.86816659  1
  In  In34  1  0.83241863  0.66582841  0.37946812  1
  In  In35  1  0.82081236  0.64982102  0.86579946  1
  In  In36  1  -0.00478630  0.17287619  0.38391439  1
  In  In37  1  0.01566965  0.17984902  0.86606099  1
  In  In38  1  0.01769609  0.49893588  0.37745487  1
  In  In39  1  0.00034741  0.49732882  0.87166778  1
  In  In40  1  0.00559520  0.85018826  0.38028412  1
  In  In41  1  0.00282894  0.83477223  0.86191434  1
  In  In42  1  0.32351051  0.16064704  0.37799632  1
  In  In43  1  0.32159254  0.16237737  0.86362953  1
  In  In44  1  0.34177221  0.49168920  0.38462428  1
  In  In45  1  0.32629126  0.48942552  0.85868803  1
  In  In46  1  0.32967544  0.84839136  0.39518221  1
  In  In47  1  0.33914848  0.83966193  0.86477266  1
  In  In48  1  0.68465279  0.17259148  0.38192207  1
  In  In49  1  0.65167574  0.15831538  0.85554117  1
  In  In50  1  0.65885566  0.48266908  0.38395883  1
  In  In51  1  0.67984753  0.50679922  0.86388705  1
  In  In52  1  0.64402055  0.84078257  0.38529759  1
  In  In53  1  0.66660409  0.83086171  0.86826863  1
  In  In54  1  0.16959369  0.01297476  0.12166056  1
  In  In55  1  0.17028375  -0.00060870  0.62352668  1
  In  In56  1  0.16724528  0.32841995  0.12476640  1
  In  In57  1  0.16427903  0.33322898  0.62437245  1
  In  In58  1  0.18191319  0.65878293  0.11958316  1
  In  In59  1  0.17164479  0.66646933  0.62934744  1
  In  In60  1  0.49751789  0.00488704  0.13346307  1
  In  In61  1  0.50131411  0.00222634  0.63054671  1
  In  In62  1  0.50135186  0.32212642  0.12601016  1
  In  In63  1  0.48569200  0.33152967  0.63975588  1
  In  In64  1  0.49752921  0.66663024  0.12032175  1
  In  In65  1  0.49270512  0.66157643  0.63665906  1
  In  In66  1  0.82368657  -0.00968767  0.12071034  1
  In  In67  1  0.82206309  0.01390996  0.63059705  1
  In  In68  1  0.83328693  0.34293649  0.11632695  1
  In  In69  1  0.83894845  0.32575377  0.62756834  1
  In  In70  1  0.84148509  0.66452172  0.11608639  1
  In  In71  1  0.83390100  0.66415390  0.63335804  1
  In  In72  1  0.50227479  0.83822661  -0.01766419  1
  In  In73  1  0.16386042  0.83281406  0.00395262  1
  In  In74  1  0.00264984  0.66853258  0.24505781  1
  In  In75  1  0.83685344  0.83761063  0.50730163  1
  In  In76  1  0.49742840  0.16727239  0.51324262  1
  In  In77  1  0.83016020  0.82282965  -0.01202467  1
  In  In78  1  0.00355133  0.01370701  0.25283778  1
  In  In79  1  0.50211698  0.49850105  -0.01527627  1
  In  In80  1  0.49196127  0.16592428  -0.01414992  1
  In  In81  1  0.66224702  0.66600625  0.24620832  1
  In  In82  1  0.33249026  0.66894916  0.25738590  1
  In  In83  1  0.66104568  0.32347892  0.25368023  1
  In  In84  1  0.82769375  0.49668468  0.51215876  1
  In  In85  1  0.83249437  0.16922989  -0.00507603  1
  Cu  Cu86  1  0.00437667  0.00612916  -0.01122705  1
  Cu  Cu87  1  0.83569552  0.83510445  0.74482108  1
  Cu  Cu88  1  0.66532993  0.00474321  0.50784255  1
  Cu  Cu89  1  0.00213775  0.33429135  0.50442747  1
  Cu  Cu90  1  0.83764148  0.16495761  0.75269830  1
  Cu  Cu91  1  -0.00104620  0.65207503  -0.00746253  1
  Cu  Cu92  1  0.65708383  0.66098951  0.51450753  1
  Cu  Cu93  1  0.49467235  0.84879801  0.25676015  1
  Cu  Cu94  1  0.49734629  0.83117134  0.74446795  1
  Cu  Cu95  1  0.32767806  0.66276633  -0.01233458  1
  Cu  Cu96  1  0.16230261  0.17064822  0.74429368  1
  Cu  Cu97  1  0.81491294  0.84314670  0.25203342  1
  Cu  Cu98  1  0.16413230  0.49855685  0.74656504  1
  Cu  Cu99  1  0.66948861  0.33502021  -0.01769703  1
  Cu  Cu100  1  0.83443913  0.16651592  0.24939728  1
  Cu  Cu101  1  0.83896944  0.49444505  0.24386707  1
  Cu  Cu102  1  0.16618588  0.83886879  0.26088927  1
  Cu  Cu103  1  0.01099065  0.33437582  -0.00698667  1
  Cu  Cu104  1  0.16921217  0.16972651  0.25478397  1
  Cu  Cu105  1  0.01220829  0.66690963  0.50551943  1
  Cu  Cu106  1  0.33635980  0.66441504  0.51322687  1
  Cu  Cu107  1  0.33124413  0.33537332  0.50803109  1
  Cu  Cu108  1  0.83775909  0.49562710  0.74562953  1
  Cu  Cu109  1  0.49644681  0.50085992  0.25652739  1
  Cu  Cu110  1  0.49355616  0.16271626  0.25588531  1
  Cu  Cu111  1  0.00452865  0.00386418  0.50731149  1
  Cu  Cu112  1  0.17352125  0.83713922  0.74651031  1
  Cu  Cu113  1  0.33014062  0.33532336  -0.00234293  1
  Cu  Cu114  1  0.16396407  0.48319167  0.24866151  1
  Se  Se115  1  0.08854105  0.08344080  0.04509556  1
  Se  Se116  1  0.08714138  0.08928959  0.55797102  1
  Se  Se117  1  0.08996520  0.41524229  0.05404105  1
  Se  Se118  1  0.08792558  0.41951589  0.55139724  1
  Se  Se119  1  0.07069035  0.73456761  0.05881099  1
  Se  Se120  1  0.09253498  0.75275905  0.55729820  1
  Se  Se121  1  0.41351381  0.08614788  0.06117303  1
  Se  Se122  1  0.40291643  0.07157731  0.56040032  1
  Se  Se123  1  0.41786859  0.41156977  0.05588952  1
  Se  Se124  1  0.41652105  0.41337694  0.56278399  1
  Se  Se125  1  0.40944316  0.74284827  0.04733931  1
  Se  Se126  1  0.42003290  0.74909263  0.56400230  1
  Se  Se127  1  0.73947092  0.07789749  0.05269759  1
  Se  Se128  1  0.74994529  0.09192264  0.55388341  1
  Se  Se129  1  0.75183759  0.41348629  0.03985977  1
  Se  Se130  1  0.73718514  0.41260265  0.57209423  1
  Se  Se131  1  0.73746182  0.74010739  0.05508367  1
  Se  Se132  1  0.74410513  0.74652422  0.56428303  1
  Se  Se133  1  0.25455435  0.25016596  0.05516204  1
  Se  Se134  1  0.24960471  0.24843713  0.55820570  1
  Se  Se135  1  0.25032710  0.57740475  0.04348531  1
  Se  Se136  1  0.24861498  0.57886273  0.55933351  1
  Se  Se137  1  0.25986166  0.92265447  0.05725616  1
  Se  Se138  1  0.24010564  0.90724020  0.55414125  1
  Se  Se139  1  0.58987836  0.25831592  0.04622983  1
  Se  Se140  1  0.58576871  0.25640435  0.57209363  1
  Se  Se141  1  0.58629628  0.58726798  0.05289680  1
  Se  Se142  1  0.57425378  0.57730792  0.56463708  1
  Se  Se143  1  0.57976914  0.92203958  0.05774712  1
  Se  Se144  1  0.57913044  0.92083865  0.55544651  1
  Se  Se145  1  0.92965455  0.25379823  0.05530552  1
  Se  Se146  1  0.91611851  0.24923464  0.55200988  1
  Se  Se147  1  0.91265244  0.57427281  0.04800852  1
  Se  Se148  1  0.92661998  0.58828147  0.56234919  1
  Se  Se149  1  0.92191196  0.92475449  0.04653406  1
  Se  Se150  1  0.92431935  0.92480888  0.56903933  1
  Se  Se151  1  0.08487427  0.25073349  0.44936104  1
  Se  Se152  1  0.09426520  0.24903896  0.94374651  1
  Se  Se153  1  0.09064266  0.57980427  0.45122864  1
  Se  Se154  1  0.08952707  0.57657581  0.94100315  1
  Se  Se155  1  0.08573619  0.91519857  0.45717170  1
  Se  Se156  1  0.08479072  0.92040689  0.93374179  1
  Se  Se157  1  0.41207880  0.25603751  0.44597935  1
  Se  Se158  1  0.40920285  0.26621684  0.93050609  1
  Se  Se159  1  0.41593917  0.57881879  0.45583677  1
  Se  Se160  1  0.41110979  0.58935524  0.92693588  1
  Se  Se161  1  0.43822365  0.90671219  0.45430939  1
  Se  Se162  1  0.40200448  0.93378426  0.94050702  1
  Se  Se163  1  0.73996382  0.26929460  0.45245711  1
  Se  Se164  1  0.74343225  0.24716720  0.92593891  1
  Se  Se165  1  0.73961115  0.59006544  0.44784289  1
  Se  Se166  1  0.74824871  0.57995484  0.94468476  1
  Se  Se167  1  0.74719731  0.92571658  0.44409369  1
  Se  Se168  1  0.73688095  0.92303194  0.94362316  1
  Se  Se169  1  0.25057183  0.09515773  0.45917486  1
  Se  Se170  1  0.25601647  0.08838524  0.94456567  1
  Se  Se171  1  0.24875538  0.41582375  0.44921999  1
  Se  Se172  1  0.25329420  0.42069051  0.94035614  1
  Se  Se173  1  0.25560405  0.74759171  0.45537883  1
  Se  Se174  1  0.25065440  0.75155462  0.93366197  1
  Se  Se175  1  0.58866173  0.08543159  0.44378607  1
  Se  Se176  1  0.58757212  0.07196251  0.93660115  1
  Se  Se177  1  0.57916341  0.41893597  0.46077644  1
  Se  Se178  1  0.58259587  0.40525416  0.92232281  1
  Se  Se179  1  0.58204435  0.74965178  0.45831170  1
  Se  Se180  1  0.59378706  0.73535575  0.93928593  1
  Se  Se181  1  0.91781300  0.08563734  0.45420074  1
  Se  Se182  1  0.92089731  0.08273827  0.93071576  1
  Se  Se183  1  0.92008360  0.41690546  0.44258927  1
  Se  Se184  1  0.92068175  0.41469847  0.94475411  1
  Se  Se185  1  0.92819448  0.74446113  0.44513497  1
  Se  Se186  1  0.92762242  0.73875663  0.93169382  1
  Se  Se187  1  0.25295587  0.25302055  0.30853674  1
  Se  Se188  1  0.24759743  0.25517515  0.79703416  1
  Se  Se189  1  0.24273058  0.56854063  0.30838045  1
  Se  Se190  1  0.24751253  0.58567169  0.79767721  1
  Se  Se191  1  0.24968708  0.91753829  0.31672771  1
  Se  Se192  1  0.25531495  0.92399864  0.79895782  1
  Se  Se193  1  0.57246358  0.24132133  0.31919330  1
  Se  Se194  1  0.59111324  0.25435228  0.78646115  1
  Se  Se195  1  0.57791791  0.58051310  0.31605374  1
  Se  Se196  1  0.59014171  0.58022325  0.79595159  1
  Se  Se197  1  0.58497626  0.92670244  0.30745280  1
  Se  Se198  1  0.57871022  0.91245984  0.80309865  1
  Se  Se199  1  0.91735380  0.24569692  0.30536020  1
  Se  Se200  1  0.92243491  0.25259485  0.80025109  1
  Se  Se201  1  0.91212100  0.57827448  0.30737203  1
  Se  Se202  1  0.91903480  0.58031309  0.80136681  1
  Se  Se203  1  0.90818276  0.91638552  0.30731841  1
  Se  Se204  1  0.91799377  0.91989642  0.79777550  1
  Se  Se205  1  0.09456176  0.08790352  0.32001484  1
  Se  Se206  1  0.08312594  0.08251907  0.79939841  1
  Se  Se207  1  0.07810950  0.40701069  0.30468464  1
  Se  Se208  1  0.08191349  0.41460283  0.80193556  1
  Se  Se209  1  0.08796869  0.75179182  0.31645875  1
  Se  Se210  1  0.08610397  0.75193775  0.79532004  1
  Se  Se211  1  0.40979093  0.08120965  0.30927956  1
  Se  Se212  1  0.42660248  0.10491144  0.79784373  1
  Se  Se213  1  0.41552030  0.41379188  0.30714369  1
  Se  Se214  1  0.42809215  0.43720361  0.78648394  1
  Se  Se215  1  0.42124778  0.75992370  0.31625996  1
  Se  Se216  1  0.41416564  0.74808153  0.79846170  1
  Se  Se217  1  0.75001091  0.08742759  0.30469725  1
  Se  Se218  1  0.75116770  0.07774188  0.79959135  1
  Se  Se219  1  0.75405838  0.42112645  0.30689787  1
  Se  Se220  1  0.75406314  0.41178400  0.79877703  1
  Se  Se221  1  0.74605354  0.75584977  0.31383349  1
  Se  Se222  1  0.75451822  0.75194644  0.80206110  1
  Se  Se223  1  0.24729623  0.08326437  0.19888271  1
  Se  Se224  1  0.24700099  0.08251438  0.69741076  1
  Se  Se225  1  0.25478543  0.40928702  0.19469087  1
  Se  Se226  1  0.24682571  0.41221404  0.69610902  1
  Se  Se227  1  0.24033633  0.75908979  0.19447542  1
  Se  Se228  1  0.25623803  0.75002537  0.69639890  1
  Se  Se229  1  0.58234140  0.08888446  0.19990713  1
  Se  Se230  1  0.59701008  0.06475009  0.69983367  1
  Se  Se231  1  0.57811300  0.42425078  0.19287241  1
  Se  Se232  1  0.56786657  0.41649815  0.70938120  1
  Se  Se233  1  0.56773308  0.76331583  0.19235977  1
  Se  Se234  1  0.58655448  0.74462601  0.69922431  1
  Se  Se235  1  0.90831582  0.08866445  0.18268172  1
  Se  Se236  1  0.91938997  0.08261320  0.69625374  1
  Se  Se237  1  0.91958625  0.40896904  0.19193515  1
  Se  Se238  1  0.92136591  0.41137830  0.69459740  1
  Se  Se239  1  0.89993110  0.76376956  0.19307586  1
  Se  Se240  1  0.92035972  0.74734927  0.69801513  1
  Se  Se241  1  0.08494954  0.24765961  0.19775832  1
  Se  Se242  1  0.07745976  0.25502081  0.69373436  1
  Se  Se243  1  0.09367230  0.57493285  0.18864978  1
  Se  Se244  1  0.08155410  0.58726004  0.69688498  1
  Se  Se245  1  0.08778510  0.91263783  0.19329121  1
  Se  Se246  1  0.08609357  0.92148861  0.69700805  1
  Se  Se247  1  0.41946090  0.25169942  0.19971712  1
  Se  Se248  1  0.42705237  0.22450420  0.70432354  1
  Se  Se249  1  0.41967597  0.57839291  0.19165583  1
  Se  Se250  1  0.41671611  0.57105762  0.70557656  1
  Se  Se251  1  0.40807802  0.92299821  0.19865857  1
  Se  Se252  1  0.41434095  0.91911008  0.69599973  1
  Se  Se253  1  0.75456789  0.24458987  0.18539211  1
  Se  Se254  1  0.75457703  0.24706761  0.69802412  1
  Se  Se255  1  0.75434940  0.57281647  0.18565360  1
  Se  Se256  1  0.74954397  0.58221886  0.69998821  1
  Se  Se257  1  0.73654203  0.92719185  0.19710719  1
  Se  Se258  1  0.74856466  0.91680279  0.69386352  1
