# generated using pymatgen
data_In86Cu29Se144
_symmetry_space_group_name_H-M   'P 1'
_cell_length_a   17.58026373
_cell_length_b   17.57826713
_cell_length_c   23.44377719
_cell_angle_alpha   89.98843412
_cell_angle_beta   89.98964470
_cell_angle_gamma   89.97400572
_symmetry_Int_Tables_number   1
_chemical_formula_structural   In86Cu29Se144
_chemical_formula_sum   'In86 Cu29 Se144'
_cell_volume   7244.84286565
_cell_formula_units_Z   1
loop_
 _symmetry_equiv_pos_site_id
 _symmetry_equiv_pos_as_xyz
  1  'x, y, z'
loop_
 _atom_site_type_symbol
 _atom_site_label
 _atom_site_symmetry_multiplicity
 _atom_site_fract_x
 _atom_site_fract_y
 _atom_site_fract_z
 _atom_site_occupancy
  In  In0  1  -0.00596811  0.15315160  0.12334859  1
  In  In1  1  -0.00671799  0.16436780  0.61781898  1
  In  In2  1  0.01521766  0.50862873  0.12528338  1
  In  In3  1  0.01673719  0.50183492  0.62651336  1
  In  In4  1  0.01551151  0.82574751  0.12926631  1
  In  In5  1  -0.00950967  0.84647854  0.63112294  1
  In  In6  1  0.33425492  0.16556951  0.12362698  1
  In  In7  1  0.32772515  0.16943991  0.62974794  1
  In  In8  1  0.33973295  0.48634540  0.13223588  1
  In  In9  1  0.32804057  0.49065992  0.61610383  1
  In  In10  1  0.32046256  0.84926061  0.13294277  1
  In  In11  1  0.34253144  0.84210932  0.62477968  1
  In  In12  1  0.66294899  0.17136670  0.13093950  1
  In  In13  1  0.68153262  0.15059894  0.64184886  1
  In  In14  1  0.65227525  0.49583182  0.12234044  1
  In  In15  1  0.66143187  0.50807132  0.62744079  1
  In  In16  1  0.67824352  0.84206274  0.12445339  1
  In  In17  1  0.66906151  0.83094730  0.62899540  1
  In  In18  1  0.17321175  0.00663116  0.37104020  1
  In  In19  1  0.16366233  0.00268533  0.87336413  1
  In  In20  1  0.17618685  0.32223751  0.37754534  1
  In  In21  1  0.15669563  0.31765734  0.87840398  1
  In  In22  1  0.16137774  0.66194510  0.37203463  1
  In  In23  1  0.16796938  0.67383509  0.87571339  1
  In  In24  1  0.50268688  0.00462643  0.36690370  1
  In  In25  1  0.50678119  0.01826667  0.86596068  1
  In  In26  1  0.50609081  0.33656167  0.37188639  1
  In  In27  1  0.50773016  0.32052525  0.88321156  1
  In  In28  1  0.48451667  0.66729952  0.37201874  1
  In  In29  1  0.49755889  0.65297752  0.87806458  1
  In  In30  1  0.83469647  -0.00222866  0.38038766  1
  In  In31  1  0.82868580  -0.00140080  0.86929704  1
  In  In32  1  0.81693130  0.33072386  0.37296460  1
  In  In33  1  0.82645321  0.34233555  0.87116384  1
  In  In34  1  0.84762454  0.67055387  0.37578871  1
  In  In35  1  0.83809961  0.67392500  0.86381952  1
  In  In36  1  0.01227071  0.15545579  0.38168847  1
  In  In37  1  0.01739901  0.15758762  0.87737064  1
  In  In38  1  0.00292350  0.51669758  0.37393030  1
  In  In39  1  -0.00629355  0.49776886  0.87010608  1
  In  In40  1  -0.00899983  0.82789402  0.37526215  1
  In  In41  1  0.00376438  0.83691087  0.87166651  1
  In  In42  1  0.32495897  0.15696099  0.36803345  1
  In  In43  1  0.33419560  0.15773988  0.87770343  1
  In  In44  1  0.33243693  0.49656266  0.37385771  1
  In  In45  1  0.33714791  0.51068884  0.87837273  1
  In  In46  1  0.33866610  0.83578421  0.36360319  1
  In  In47  1  0.31621208  0.83639324  0.88259137  1
  In  In48  1  0.66757116  0.16478983  0.37557396  1
  In  In49  1  0.64675806  0.15543861  0.85601318  1
  In  In50  1  0.66588827  0.48463154  0.37459802  1
  In  In51  1  0.65354125  0.48741386  0.86417696  1
  In  In52  1  0.66986904  0.84846361  0.37819668  1
  In  In53  1  0.67163220  0.84037168  0.86828712  1
  In  In54  1  0.16700555  0.00052700  0.12340814  1
  In  In55  1  0.15262863  0.01893202  0.64185860  1
  In  In56  1  0.18197081  0.33893201  0.12361475  1
  In  In57  1  0.16613163  0.33113865  0.61778795  1
  In  In58  1  0.15768372  0.68116695  0.13118332  1
  In  In59  1  0.16409289  0.65163607  0.62866883  1
  In  In60  1  0.49578869  0.01086979  0.12814457  1
  In  In61  1  0.50385646  0.00160098  0.63870021  1
  In  In62  1  0.49976571  0.32886216  0.12464443  1
  In  In63  1  0.49479718  0.34089086  0.62341523  1
  In  In64  1  0.49871074  0.64748631  0.12129365  1
  In  In65  1  0.51078069  0.66418799  0.62508257  1
  In  In66  1  0.83435343  0.00456098  0.13591027  1
  In  In67  1  0.82964801  0.00383857  0.61972864  1
  In  In68  1  0.82972723  0.32003705  0.13008589  1
  In  In69  1  0.83630204  0.31719156  0.62176044  1
  In  In70  1  0.84418868  0.67824502  0.12505422  1
  In  In71  1  0.82747475  0.67885494  0.62839924  1
  In  In72  1  -0.00273513  0.33257156  0.74850338  1
  In  In73  1  0.16625749  0.83541176  0.50058647  1
  In  In74  1  0.83588732  0.49937251  0.49509564  1
  In  In75  1  0.50483102  0.16858449  0.50040544  1
  In  In76  1  0.83670563  0.83839198  -0.00793656  1
  In  In77  1  0.33333943  0.32906483  0.75142615  1
  In  In78  1  0.83392459  0.50119660  -0.00602923  1
  In  In79  1  0.17150075  0.49643571  -0.00122654  1
  In  In80  1  0.49386330  0.83684205  0.00686393  1
  In  In81  1  0.33025417  0.67167284  0.75507596  1
  In  In82  1  0.50507394  0.83430441  0.50585550  1
  In  In83  1  0.82989158  0.17023824  0.00234269  1
  In  In84  1  0.66653616  0.66713142  0.24345604  1
  In  In85  1  0.00201021  0.33324223  0.24847258  1
  Cu  Cu86  1  0.83033141  0.50714301  0.74673933  1
  Cu  Cu87  1  0.32905568  0.66374852  0.00409277  1
  Cu  Cu88  1  0.66418609  0.33056969  0.49889094  1
  Cu  Cu89  1  0.00350848  0.33202720  0.49800182  1
  Cu  Cu90  1  0.00509696  -0.00524195  0.00096409  1
  Cu  Cu91  1  0.83727519  0.16393782  0.74710808  1
  Cu  Cu92  1  0.66010150  0.33094814  -0.00170024  1
  Cu  Cu93  1  0.32921076  0.65633883  0.49597480  1
  Cu  Cu94  1  0.00250260  0.66821122  0.49994322  1
  Cu  Cu95  1  0.66491709  0.66584137  0.50420758  1
  Cu  Cu96  1  -0.00172478  0.00330963  0.50556130  1
  Cu  Cu97  1  0.83428953  0.83521436  0.74752220  1
  Cu  Cu98  1  0.17151485  0.50581240  0.25000586  1
  Cu  Cu99  1  0.83388880  0.50249380  0.25478418  1
  Cu  Cu100  1  0.83792725  0.83945126  0.25111368  1
  Cu  Cu101  1  0.32768131  0.00157692  0.00180441  1
  Cu  Cu102  1  0.34078169  0.32749092  0.00303327  1
  Cu  Cu103  1  0.33305152  0.33407043  0.49822395  1
  Cu  Cu104  1  0.50058931  0.83641379  0.75203738  1
  Cu  Cu105  1  0.49946350  0.50249839  0.74859855  1
  Cu  Cu106  1  0.49946819  0.83503121  0.24689794  1
  Cu  Cu107  1  0.16482829  0.83896996  0.25253872  1
  Cu  Cu108  1  0.49802426  0.49352317  0.24889650  1
  Cu  Cu109  1  0.16428106  0.83541302  0.75398037  1
  Cu  Cu110  1  0.33132084  0.00411615  0.49763576  1
  Cu  Cu111  1  0.83191711  0.16253209  0.25545986  1
  Cu  Cu112  1  0.66490515  0.66316287  -0.00735960  1
  Cu  Cu113  1  0.16987003  0.16474103  0.24812134  1
  Cu  Cu114  1  0.49796786  0.16990809  0.24958070  1
  Se  Se115  1  0.08368163  0.08341557  0.05318143  1
  Se  Se116  1  0.08835513  0.08392725  0.55504361  1
  Se  Se117  1  0.07763279  0.40746998  0.05751145  1
  Se  Se118  1  0.08405662  0.41740097  0.55099208  1
  Se  Se119  1  0.08133656  0.74670657  0.05147568  1
  Se  Se120  1  0.07873479  0.74762641  0.56418797  1
  Se  Se121  1  0.41574982  0.08317716  0.05230340  1
  Se  Se122  1  0.41526338  0.07698711  0.56050165  1
  Se  Se123  1  0.41954525  0.41634056  0.05511193  1
  Se  Se124  1  0.41912187  0.41809227  0.54774420  1
  Se  Se125  1  0.40584810  0.74493185  0.06670265  1
  Se  Se126  1  0.40765519  0.73799209  0.55716252  1
  Se  Se127  1  0.74542221  0.07726595  0.06259707  1
  Se  Se128  1  0.74980692  0.09484948  0.55538713  1
  Se  Se129  1  0.74640724  0.40768416  0.05714802  1
  Se  Se130  1  0.74711863  0.41249242  0.55840339  1
  Se  Se131  1  0.74407803  0.74200383  0.05249809  1
  Se  Se132  1  0.74687855  0.75238320  0.55333188  1
  Se  Se133  1  0.25068493  0.24869223  0.05337225  1
  Se  Se134  1  0.25458118  0.24828633  0.55379939  1
  Se  Se135  1  0.25225511  0.58336775  0.06774378  1
  Se  Se136  1  0.24467899  0.58017043  0.55285860  1
  Se  Se137  1  0.24495092  0.91418823  0.05159767  1
  Se  Se138  1  0.25189640  0.92737389  0.56147619  1
  Se  Se139  1  0.58320973  0.24561987  0.05542896  1
  Se  Se140  1  0.59189797  0.25255752  0.56549686  1
  Se  Se141  1  0.58395192  0.57922630  0.04660088  1
  Se  Se142  1  0.57998721  0.57937760  0.55055107  1
  Se  Se143  1  0.58997635  0.92649445  0.05934985  1
  Se  Se144  1  0.59075505  0.92907869  0.56194123  1
  Se  Se145  1  0.92627608  0.25916537  0.05830056  1
  Se  Se146  1  0.91609296  0.24799608  0.54545508  1
  Se  Se147  1  0.92462712  0.58976999  0.05522797  1
  Se  Se148  1  0.92037478  0.58712894  0.56042318  1
  Se  Se149  1  0.92018742  0.92117716  0.06276116  1
  Se  Se150  1  0.91412793  0.91625037  0.55302492  1
  Se  Se151  1  0.08898971  0.24710778  0.44731517  1
  Se  Se152  1  0.08092206  0.24324789  0.95249433  1
  Se  Se153  1  0.08675446  0.58422316  0.44953872  1
  Se  Se154  1  0.07812130  0.58351253  0.93995571  1
  Se  Se155  1  0.07712577  0.92526429  0.44056770  1
  Se  Se156  1  0.08557084  0.91400297  0.94382775  1
  Se  Se157  1  0.41068592  0.25078098  0.43742368  1
  Se  Se158  1  0.41758441  0.24106675  0.94675172  1
  Se  Se159  1  0.41812759  0.57834582  0.44412865  1
  Se  Se160  1  0.41672738  0.58205787  0.95458061  1
  Se  Se161  1  0.41319250  0.92151416  0.44170435  1
  Se  Se162  1  0.41139191  0.92481339  0.94063998  1
  Se  Se163  1  0.74834180  0.24703893  0.44757032  1
  Se  Se164  1  0.74167176  0.25413675  0.93700763  1
  Se  Se165  1  0.74269021  0.59052260  0.43662856  1
  Se  Se166  1  0.74431514  0.58702181  0.93023086  1
  Se  Se167  1  0.75775581  0.91078300  0.45028778  1
  Se  Se168  1  0.73721454  0.93044897  0.94539955  1
  Se  Se169  1  0.24662630  0.08734849  0.44680567  1
  Se  Se170  1  0.24405685  0.08339081  0.94634832  1
  Se  Se171  1  0.24799164  0.41650917  0.44458695  1
  Se  Se172  1  0.26071194  0.40410691  0.93788895  1
  Se  Se173  1  0.25922036  0.74935088  0.43875859  1
  Se  Se174  1  0.24529027  0.74701249  0.95275493  1
  Se  Se175  1  0.58958942  0.06986481  0.44460637  1
  Se  Se176  1  0.58575737  0.08891987  0.94193968  1
  Se  Se177  1  0.58093290  0.41588051  0.44862277  1
  Se  Se178  1  0.58047158  0.42049502  0.94653816  1
  Se  Se179  1  0.58647547  0.74302055  0.43805068  1
  Se  Se180  1  0.58480326  0.75140693  0.93935357  1
  Se  Se181  1  0.91699757  0.08551757  0.44794817  1
  Se  Se182  1  0.91828247  0.07390725  0.94395373  1
  Se  Se183  1  0.92494543  0.40932389  0.43339749  1
  Se  Se184  1  0.92653741  0.40324634  0.94320429  1
  Se  Se185  1  0.91510962  0.75204199  0.45259538  1
  Se  Se186  1  0.92502469  0.74008295  0.94143103  1
  Se  Se187  1  0.25257646  0.25036794  0.29960069  1
  Se  Se188  1  0.23986379  0.23836124  0.80648376  1
  Se  Se189  1  0.25413785  0.58718602  0.30610554  1
  Se  Se190  1  0.24048438  0.57357449  0.80683381  1
  Se  Se191  1  0.25266205  0.92207290  0.30168535  1
  Se  Se192  1  0.24992538  0.91701153  0.80567227  1
  Se  Se193  1  0.58488221  0.24698408  0.30636617  1
  Se  Se194  1  0.59317397  0.27161740  0.80241576  1
  Se  Se195  1  0.57983367  0.57760646  0.30744363  1
  Se  Se196  1  0.58174795  0.58833592  0.80115455  1
  Se  Se197  1  0.58351477  0.91373066  0.30291242  1
  Se  Se198  1  0.58425294  0.92146259  0.80328730  1
  Se  Se199  1  0.91519332  0.24513179  0.31286597  1
  Se  Se200  1  0.91245694  0.24144410  0.81306603  1
  Se  Se201  1  0.91911609  0.58895990  0.30025513  1
  Se  Se202  1  0.91899358  0.58343207  0.79982578  1
  Se  Se203  1  0.91985062  0.92076975  0.30738563  1
  Se  Se204  1  0.91567006  0.91647508  0.80474419  1
  Se  Se205  1  0.08464585  0.08358668  0.30158025  1
  Se  Se206  1  0.07763525  0.07553019  0.80037418  1
  Se  Se207  1  0.08992333  0.42315124  0.31040777  1
  Se  Se208  1  0.09255190  0.41804754  0.80816467  1
  Se  Se209  1  0.08355875  0.75415822  0.30786528  1
  Se  Se210  1  0.08297752  0.74747971  0.80383275  1
  Se  Se211  1  0.41493863  0.08180540  0.30001193  1
  Se  Se212  1  0.40944596  0.08460909  0.80029164  1
  Se  Se213  1  0.41523314  0.41239159  0.30491774  1
  Se  Se214  1  0.42138676  0.42327322  0.81126093  1
  Se  Se215  1  0.41587053  0.74756338  0.29527850  1
  Se  Se216  1  0.42179444  0.75908608  0.81640525  1
  Se  Se217  1  0.75001725  0.07844941  0.30939238  1
  Se  Se218  1  0.75024988  0.08132360  0.79882264  1
  Se  Se219  1  0.74732613  0.41545935  0.29822656  1
  Se  Se220  1  0.74927494  0.41849374  0.79665304  1
  Se  Se221  1  0.75494878  0.75373063  0.30754513  1
  Se  Se222  1  0.74726034  0.75226150  0.79957802  1
  Se  Se223  1  0.25200956  0.08125682  0.19268348  1
  Se  Se224  1  0.26641405  0.07249966  0.69761679  1
  Se  Se225  1  0.25103258  0.41343977  0.20309440  1
  Se  Se226  1  0.24192354  0.42019497  0.69220975  1
  Se  Se227  1  0.24882580  0.75395785  0.19944073  1
  Se  Se228  1  0.24378602  0.75962967  0.68865372  1
  Se  Se229  1  0.58385230  0.08431860  0.19919963  1
  Se  Se230  1  0.58016479  0.08856872  0.70538108  1
  Se  Se231  1  0.58358411  0.41158774  0.19609525  1
  Se  Se232  1  0.58027808  0.41975837  0.69291909  1
  Se  Se233  1  0.57585451  0.75637597  0.18237382  1
  Se  Se234  1  0.57996585  0.75145641  0.69668693  1
  Se  Se235  1  0.92103028  0.08358702  0.20374994  1
  Se  Se236  1  0.91764671  0.08202174  0.69043647  1
  Se  Se237  1  0.91204598  0.42573045  0.18805260  1
  Se  Se238  1  0.90877624  0.42403479  0.68532986  1
  Se  Se239  1  0.92112428  0.75393437  0.19891376  1
  Se  Se240  1  0.91958444  0.74989569  0.69712307  1
  Se  Se241  1  0.08969810  0.24417484  0.18626274  1
  Se  Se242  1  0.08697153  0.24335110  0.68902460  1
  Se  Se243  1  0.08384946  0.58893798  0.20119240  1
  Se  Se244  1  0.08000921  0.58511417  0.70275831  1
  Se  Se245  1  0.08325816  0.92149183  0.19605577  1
  Se  Se246  1  0.07951428  0.91868398  0.70129667  1
  Se  Se247  1  0.41410527  0.25049573  0.19426938  1
  Se  Se248  1  0.42922033  0.24310868  0.69429621  1
  Se  Se249  1  0.41660644  0.58083706  0.19792841  1
  Se  Se250  1  0.41371474  0.57903731  0.68935519  1
  Se  Se251  1  0.41720087  0.92222164  0.19594076  1
  Se  Se252  1  0.41378965  0.91801745  0.70158896  1
  Se  Se253  1  0.74875581  0.24800412  0.20348844  1
  Se  Se254  1  0.75447632  0.25477651  0.70029824  1
  Se  Se255  1  0.75810778  0.57621119  0.18404068  1
  Se  Se256  1  0.74597039  0.59049769  0.69396432  1
  Se  Se257  1  0.74850325  0.91975217  0.20151826  1
  Se  Se258  1  0.75220302  0.91893942  0.69281527  1
