# generated using pymatgen
data_In86Cu29Se144
_symmetry_space_group_name_H-M   'P 1'
_cell_length_a   17.58489919
_cell_length_b   17.58437845
_cell_length_c   23.44845282
_cell_angle_alpha   89.98940987
_cell_angle_beta   89.99885123
_cell_angle_gamma   89.98959562
_symmetry_Int_Tables_number   1
_chemical_formula_structural   In86Cu29Se144
_chemical_formula_sum   'In86 Cu29 Se144'
_cell_volume   7250.71913589
_cell_formula_units_Z   1
loop_
 _symmetry_equiv_pos_site_id
 _symmetry_equiv_pos_as_xyz
  1  'x, y, z'
loop_
 _atom_site_type_symbol
 _atom_site_label
 _atom_site_symmetry_multiplicity
 _atom_site_fract_x
 _atom_site_fract_y
 _atom_site_fract_z
 _atom_site_occupancy
  In  In0  1  -0.00588990  0.17415364  0.13417471  1
  In  In1  1  -0.00581494  0.15478916  0.61842814  1
  In  In2  1  -0.01511737  0.50038238  0.12416498  1
  In  In3  1  0.01215174  0.50590756  0.62196012  1
  In  In4  1  0.01484979  0.83557979  0.12498200  1
  In  In5  1  0.00631004  0.82182937  0.63436019  1
  In  In6  1  0.33528055  0.15466983  0.12439922  1
  In  In7  1  0.33765760  0.17220107  0.61108797  1
  In  In8  1  0.34760690  0.50212467  0.13093701  1
  In  In9  1  0.34237555  0.51079044  0.61600891  1
  In  In10  1  0.32692096  0.83885541  0.12858514  1
  In  In11  1  0.32668916  0.82374742  0.61780516  1
  In  In12  1  0.66544824  0.16643136  0.12807667  1
  In  In13  1  0.66892094  0.16795165  0.60528547  1
  In  In14  1  0.67007300  0.49190234  0.13590076  1
  In  In15  1  0.66602549  0.51011645  0.61483263  1
  In  In16  1  0.65620366  0.83933812  0.13797332  1
  In  In17  1  0.65541776  0.83125422  0.61703886  1
  In  In18  1  0.16953140  -0.00118662  0.37506704  1
  In  In19  1  0.14996326  -0.00007156  0.87441100  1
  In  In20  1  0.15687992  0.33830762  0.37491048  1
  In  In21  1  0.17180480  0.33794592  0.87703863  1
  In  In22  1  0.17643520  0.65767983  0.38463474  1
  In  In23  1  0.17561866  0.68038528  0.86802501  1
  In  In24  1  0.49740184  -0.00111171  0.36654857  1
  In  In25  1  0.50730720  0.00296099  0.88028482  1
  In  In26  1  0.52584980  0.31860797  0.39333938  1
  In  In27  1  0.49584322  0.32502950  0.87902470  1
  In  In28  1  0.50035148  0.67029213  0.38296634  1
  In  In29  1  0.50084804  0.66802186  0.86751114  1
  In  In30  1  0.84310013  0.01140299  0.36603364  1
  In  In31  1  0.84454553  0.00021385  0.88064861  1
  In  In32  1  0.80952386  0.31300107  0.36555969  1
  In  In33  1  0.83692767  0.33411197  0.88645766  1
  In  In34  1  0.82436154  0.67085409  0.37661411  1
  In  In35  1  0.82307740  0.66467714  0.86830691  1
  In  In36  1  -0.00291864  0.16660674  0.37429262  1
  In  In37  1  0.00304578  0.15312111  0.87578625  1
  In  In38  1  0.01216317  0.49831346  0.37920366  1
  In  In39  1  -0.01435890  0.49727122  0.87619971  1
  In  In40  1  0.00189146  0.84716197  0.37650639  1
  In  In41  1  0.00327894  0.84576256  0.86662789  1
  In  In42  1  0.34654642  0.15145880  0.37298047  1
  In  In43  1  0.34006873  0.17194762  0.88219660  1
  In  In44  1  0.32803821  0.50578133  0.37716462  1
  In  In45  1  0.32664352  0.50844013  0.87737754  1
  In  In46  1  0.33239741  0.83400013  0.37521387  1
  In  In47  1  0.33082656  0.81614637  0.88120140  1
  In  In48  1  0.66666415  0.16921554  0.37214367  1
  In  In49  1  0.66521642  0.17160315  0.88482413  1
  In  In50  1  0.65707728  0.49265128  0.37735934  1
  In  In51  1  0.66488031  0.51624414  0.87455260  1
  In  In52  1  0.65420774  0.82097286  0.36957818  1
  In  In53  1  0.67309177  0.82670872  0.87281527  1
  In  In54  1  0.17867515  -0.01482727  0.13633854  1
  In  In55  1  0.16101402  -0.01041860  0.61533764  1
  In  In56  1  0.16917580  0.31666259  0.13357222  1
  In  In57  1  0.17405206  0.33983060  0.61156172  1
  In  In58  1  0.17109005  0.68149271  0.11951491  1
  In  In59  1  0.16887151  0.67142130  0.62596802  1
  In  In60  1  0.48261826  0.02085386  0.14965054  1
  In  In61  1  0.50747972  0.00237558  0.60956528  1
  In  In62  1  0.51340196  0.33491478  0.12974704  1
  In  In63  1  0.50485332  0.33387059  0.60511356  1
  In  In64  1  0.49690063  0.66956684  0.13641163  1
  In  In65  1  0.50052267  0.66506724  0.61892010  1
  In  In66  1  0.82062582  0.01160268  0.13585653  1
  In  In67  1  0.83422361  0.00684200  0.62316784  1
  In  In68  1  0.83256940  0.33377148  0.12763939  1
  In  In69  1  0.84033828  0.32684427  0.61842958  1
  In  In70  1  0.83003176  0.65512486  0.12351228  1
  In  In71  1  0.82740086  0.67459775  0.63680191  1
  In  In72  1  0.49270999  0.84064139  0.00880219  1
  In  In73  1  0.16824571  0.15821878  0.00670049  1
  In  In74  1  0.34029765  0.33210169  0.25588296  1
  In  In75  1  0.83320723  0.49234444  0.49779335  1
  In  In76  1  0.66884719  0.33803928  0.73792257  1
  In  In77  1  0.33405647  0.33866798  0.75408402  1
  In  In78  1  0.16732095  0.49885760  -0.00108929  1
  In  In79  1  0.83030361  0.83693958  0.50332356  1
  In  In80  1  0.67224979  -0.00828026  0.74478939  1
  In  In81  1  0.50553575  0.49616385  0.00005605  1
  In  In82  1  0.00020520  0.66738983  0.24643251  1
  In  In83  1  0.00048674  0.33460686  0.74353746  1
  In  In84  1  0.83431701  0.83496431  -0.00265740  1
  In  In85  1  0.33122167  -0.00316604  0.74517000  1
  Cu  Cu86  1  0.33787627  0.00061070  0.49329332  1
  Cu  Cu87  1  0.16815011  0.51185253  0.74749280  1
  Cu  Cu88  1  0.16849110  0.83212669  0.25299991  1
  Cu  Cu89  1  0.67649980  0.33317764  0.00955288  1
  Cu  Cu90  1  0.00688337  0.00316250  0.49565286  1
  Cu  Cu91  1  0.32336100  0.33312879  0.48839073  1
  Cu  Cu92  1  0.66841894  -0.00030744  0.48734991  1
  Cu  Cu93  1  0.00449526  0.67031669  0.50606647  1
  Cu  Cu94  1  0.49961550  0.82675603  0.25577245  1
  Cu  Cu95  1  0.49867419  0.50429666  0.25963172  1
  Cu  Cu96  1  0.16139991  0.16092739  0.25408972  1
  Cu  Cu97  1  0.00031167  0.66695936  -0.00001340  1
  Cu  Cu98  1  0.49733473  0.51334480  0.74469747  1
  Cu  Cu99  1  0.66369130  0.01351545  0.00749845  1
  Cu  Cu100  1  -0.00131525  0.32991074  0.00588948  1
  Cu  Cu101  1  0.50016822  0.16686234  0.74336683  1
  Cu  Cu102  1  0.49604748  0.82679218  0.74260720  1
  Cu  Cu103  1  -0.00071644  0.32625768  0.49691518  1
  Cu  Cu104  1  0.83870204  0.15843160  0.75035157  1
  Cu  Cu105  1  0.33245766  0.67287499  0.50026541  1
  Cu  Cu106  1  0.16158754  0.16042731  0.74526351  1
  Cu  Cu107  1  0.83281050  0.83443586  0.25505581  1
  Cu  Cu108  1  0.83131388  0.17215855  0.25014362  1
  Cu  Cu109  1  -0.00107938  0.00107171  0.00255681  1
  Cu  Cu110  1  0.16576287  0.83452169  0.74504174  1
  Cu  Cu111  1  0.82787678  0.50543451  0.75169253  1
  Cu  Cu112  1  0.16605394  0.50505625  0.25494512  1
  Cu  Cu113  1  0.66904164  0.66538212  -0.00002844  1
  Cu  Cu114  1  0.83226638  0.49860909  0.25077235  1
  Se  Se115  1  0.07707244  0.07518453  0.06897443  1
  Se  Se116  1  0.08949056  0.08677225  0.55049966  1
  Se  Se117  1  0.08309103  0.40738601  0.06456233  1
  Se  Se118  1  0.07759094  0.41599524  0.54960198  1
  Se  Se119  1  0.08317181  0.75340324  0.04854387  1
  Se  Se120  1  0.08752263  0.75669165  0.55591820  1
  Se  Se121  1  0.41504974  0.06858527  0.05889701  1
  Se  Se122  1  0.42090398  0.08646076  0.54618859  1
  Se  Se123  1  0.41447781  0.40769460  0.06003362  1
  Se  Se124  1  0.40449474  0.41109282  0.54894386  1
  Se  Se125  1  0.40890845  0.74006292  0.06191805  1
  Se  Se126  1  0.42142167  0.75426388  0.55103587  1
  Se  Se127  1  0.75558210  0.09080677  0.05636614  1
  Se  Se128  1  0.75325555  0.07538736  0.54650049  1
  Se  Se129  1  0.75345551  0.42437327  0.05937817  1
  Se  Se130  1  0.74030963  0.40200139  0.55657788  1
  Se  Se131  1  0.74142592  0.75157959  0.06145782  1
  Se  Se132  1  0.74301878  0.73687474  0.55458987  1
  Se  Se133  1  0.26008062  0.25564181  0.05779646  1
  Se  Se134  1  0.24547775  0.24690800  0.54495015  1
  Se  Se135  1  0.25871611  0.58396463  0.06040035  1
  Se  Se136  1  0.24756959  0.58852972  0.55397967  1
  Se  Se137  1  0.24390493  0.91264545  0.05582553  1
  Se  Se138  1  0.25680502  0.91860717  0.55062447  1
  Se  Se139  1  0.58651659  0.25183481  0.05657796  1
  Se  Se140  1  0.57553139  0.23934509  0.54150416  1
  Se  Se141  1  0.58833437  0.58937036  0.06350325  1
  Se  Se142  1  0.56534671  0.56784090  0.54921334  1
  Se  Se143  1  0.58658890  0.92848929  0.06447689  1
  Se  Se144  1  0.58714875  0.91576887  0.54241881  1
  Se  Se145  1  0.91481809  0.24789439  0.05863079  1
  Se  Se146  1  0.91620052  0.24231570  0.54940875  1
  Se  Se147  1  0.91465791  0.58412088  0.04967150  1
  Se  Se148  1  0.91600105  0.59068619  0.56016767  1
  Se  Se149  1  0.91710315  0.92256801  0.06430999  1
  Se  Se150  1  0.92890734  0.92140483  0.55900430  1
  Se  Se151  1  0.08478200  0.24589919  0.44328985  1
  Se  Se152  1  0.08012374  0.25483022  0.94285152  1
  Se  Se153  1  0.08349260  0.58331529  0.45186273  1
  Se  Se154  1  0.07861768  0.58687651  0.93695750  1
  Se  Se155  1  0.09013779  0.91497044  0.44833597  1
  Se  Se156  1  0.07780118  0.91579876  0.94762716  1
  Se  Se157  1  0.41180800  0.24944081  0.44138228  1
  Se  Se158  1  0.42409873  0.24516397  0.95207129  1
  Se  Se159  1  0.41138355  0.58562222  0.44707564  1
  Se  Se160  1  0.41607379  0.59198831  0.94423678  1
  Se  Se161  1  0.42091636  0.91618982  0.44077225  1
  Se  Se162  1  0.40722579  0.92326727  0.93915841  1
  Se  Se163  1  0.74759850  0.24377547  0.44844477  1
  Se  Se164  1  0.75470092  0.24831400  0.95127718  1
  Se  Se165  1  0.74207255  0.58764884  0.44535026  1
  Se  Se166  1  0.75325186  0.58379964  0.94704128  1
  Se  Se167  1  0.75126103  0.91822103  0.43017620  1
  Se  Se168  1  0.73590666  0.92821063  0.94421277  1
  Se  Se169  1  0.25208323  0.08431478  0.44269739  1
  Se  Se170  1  0.25257434  0.07400137  0.93834601  1
  Se  Se171  1  0.24002056  0.42249950  0.44229345  1
  Se  Se172  1  0.26687332  0.40495268  0.94717629  1
  Se  Se173  1  0.24745990  0.75584920  0.44773244  1
  Se  Se174  1  0.24564696  0.74370246  0.95121282  1
  Se  Se175  1  0.58139609  0.08087901  0.43656165  1
  Se  Se176  1  0.57780962  0.09059685  0.95081088  1
  Se  Se177  1  0.57341266  0.43062048  0.45576263  1
  Se  Se178  1  0.59937052  0.40687609  0.93947645  1
  Se  Se179  1  0.58479481  0.75338455  0.45062650  1
  Se  Se180  1  0.58453763  0.74771330  0.94503631  1
  Se  Se181  1  0.91661161  0.08265598  0.44594121  1
  Se  Se182  1  0.91721478  0.08812386  0.95150802  1
  Se  Se183  1  0.91903821  0.40443637  0.43455337  1
  Se  Se184  1  0.91816284  0.41830948  0.95438036  1
  Se  Se185  1  0.92456350  0.74543345  0.44271396  1
  Se  Se186  1  0.92133722  0.74508534  0.93637461  1
  Se  Se187  1  0.24494175  0.24291666  0.31221172  1
  Se  Se188  1  0.24149780  0.23842993  0.80681930  1
  Se  Se189  1  0.25067740  0.58882087  0.30373771  1
  Se  Se190  1  0.25523183  0.58815591  0.80276923  1
  Se  Se191  1  0.25219324  0.91786954  0.30410278  1
  Se  Se192  1  0.24428114  0.91155408  0.81032751  1
  Se  Se193  1  0.58969163  0.26147621  0.30568469  1
  Se  Se194  1  0.58199642  0.24679621  0.80330119  1
  Se  Se195  1  0.58332552  0.58732509  0.31189402  1
  Se  Se196  1  0.58691055  0.58896791  0.79886294  1
  Se  Se197  1  0.58592589  0.91480180  0.30108789  1
  Se  Se198  1  0.57289958  0.90860331  0.80548681  1
  Se  Se199  1  0.91737340  0.25296912  0.30433994  1
  Se  Se200  1  0.91266810  0.24689837  0.80870007  1
  Se  Se201  1  0.91284556  0.57927822  0.31166158  1
  Se  Se202  1  0.91603837  0.58334921  0.80432731  1
  Se  Se203  1  0.92139125  0.91768160  0.30125121  1
  Se  Se204  1  0.90076686  0.91308638  0.80544081  1
  Se  Se205  1  0.07894921  0.07796957  0.30787225  1
  Se  Se206  1  0.07745853  0.07954947  0.79810142  1
  Se  Se207  1  0.07986979  0.41925716  0.30048068  1
  Se  Se208  1  0.09161004  0.42482548  0.80606488  1
  Se  Se209  1  0.08749401  0.75063056  0.31293581  1
  Se  Se210  1  0.08257536  0.75351340  0.80230281  1
  Se  Se211  1  0.41784798  0.07992148  0.29430640  1
  Se  Se212  1  0.42300003  0.08885504  0.80560320  1
  Se  Se213  1  0.42631873  0.41753679  0.32041872  1
  Se  Se214  1  0.42938210  0.42982185  0.81119891  1
  Se  Se215  1  0.41506657  0.74543140  0.30947752  1
  Se  Se216  1  0.41372611  0.75187720  0.80312816  1
  Se  Se217  1  0.74905996  0.08563467  0.30162319  1
  Se  Se218  1  0.74968051  0.08873282  0.81060116  1
  Se  Se219  1  0.74615578  0.42038916  0.30624029  1
  Se  Se220  1  0.75478276  0.41746693  0.81037595  1
  Se  Se221  1  0.74891844  0.74693807  0.30184038  1
  Se  Se222  1  0.74408537  0.74838170  0.79935764  1
  Se  Se223  1  0.24907922  0.08574920  0.19837305  1
  Se  Se224  1  0.24838374  0.09091496  0.68355307  1
  Se  Se225  1  0.24630511  0.42229051  0.19410675  1
  Se  Se226  1  0.24602180  0.42520948  0.69005801  1
  Se  Se227  1  0.24962839  0.74837547  0.19783020  1
  Se  Se228  1  0.25373845  0.75124982  0.69694728  1
  Se  Se229  1  0.60248582  0.07065152  0.19833677  1
  Se  Se230  1  0.58479811  0.08953840  0.68598954  1
  Se  Se231  1  0.58013826  0.41928135  0.20507705  1
  Se  Se232  1  0.56900411  0.42425563  0.68565970  1
  Se  Se233  1  0.58683780  0.74328345  0.20416464  1
  Se  Se234  1  0.58321685  0.74751130  0.69036744  1
  Se  Se235  1  0.91641409  0.08444119  0.20098656  1
  Se  Se236  1  0.92138702  0.07750787  0.69624807  1
  Se  Se237  1  0.91706493  0.41622903  0.19835373  1
  Se  Se238  1  0.90637920  0.42735022  0.68819857  1
  Se  Se239  1  0.90868902  0.75797524  0.18713837  1
  Se  Se240  1  0.92044126  0.74477140  0.70131123  1
  Se  Se241  1  0.08045481  0.25087821  0.20540347  1
  Se  Se242  1  0.09192264  0.24778673  0.68344400  1
  Se  Se243  1  0.09058224  0.57847992  0.18489408  1
  Se  Se244  1  0.08081226  0.59090522  0.69556903  1
  Se  Se245  1  0.08118144  0.91553195  0.20319251  1
  Se  Se246  1  0.08391438  0.92144044  0.69478163  1
  Se  Se247  1  0.42356708  0.24355019  0.19138170  1
  Se  Se248  1  0.42220593  0.25252239  0.68769868  1
  Se  Se249  1  0.41478836  0.58576749  0.20556479  1
  Se  Se250  1  0.41095063  0.59243093  0.69254997  1
  Se  Se251  1  0.41632337  0.90803883  0.20037468  1
  Se  Se252  1  0.42625177  0.91542025  0.68315735  1
  Se  Se253  1  0.74688439  0.25439367  0.19601758  1
  Se  Se254  1  0.75843784  0.23529465  0.68843712  1
  Se  Se255  1  0.74978456  0.58553143  0.19964761  1
  Se  Se256  1  0.74199386  0.57961325  0.69385998  1
  Se  Se257  1  0.74847103  0.91717536  0.20158199  1
  Se  Se258  1  0.75843871  0.90255567  0.68344916  1
