# generated using pymatgen
data_In86Cu29Se144
_symmetry_space_group_name_H-M   'P 1'
_cell_length_a   17.70857114
_cell_length_b   17.71503352
_cell_length_c   23.56460922
_cell_angle_alpha   89.92339789
_cell_angle_beta   90.01095761
_cell_angle_gamma   89.95668651
_symmetry_Int_Tables_number   1
_chemical_formula_structural   In86Cu29Se144
_chemical_formula_sum   'In86 Cu29 Se144'
_cell_volume   7392.39595648
_cell_formula_units_Z   1
loop_
 _symmetry_equiv_pos_site_id
 _symmetry_equiv_pos_as_xyz
  1  'x, y, z'
loop_
 _atom_site_type_symbol
 _atom_site_label
 _atom_site_symmetry_multiplicity
 _atom_site_fract_x
 _atom_site_fract_y
 _atom_site_fract_z
 _atom_site_occupancy
  In  In0  1  0.00964531  0.17168671  0.12924559  1
  In  In1  1  -0.00134138  0.16967305  0.61741409  1
  In  In2  1  -0.00918336  0.49184642  0.11630707  1
  In  In3  1  -0.00424299  0.48255788  0.63508725  1
  In  In4  1  -0.01876353  0.80913632  0.09934286  1
  In  In5  1  -0.00177422  0.83959740  0.62580815  1
  In  In6  1  0.34609725  0.17170135  0.13395137  1
  In  In7  1  0.32377262  0.16253483  0.61575778  1
  In  In8  1  0.33053100  0.49692864  0.12108201  1
  In  In9  1  0.33376039  0.50776449  0.61768155  1
  In  In10  1  0.32691612  0.82934262  0.11881190  1
  In  In11  1  0.34617656  0.81963832  0.62173576  1
  In  In12  1  0.67135239  0.16871295  0.13105252  1
  In  In13  1  0.66637406  0.16414920  0.61681993  1
  In  In14  1  0.65799782  0.48902668  0.11610114  1
  In  In15  1  0.66005757  0.50881948  0.64540854  1
  In  In16  1  0.66222408  0.83295282  0.11227523  1
  In  In17  1  0.66049479  0.82618824  0.63074220  1
  In  In18  1  0.17324895  0.00504223  0.37778969  1
  In  In19  1  0.17042807  -0.01226964  0.86877562  1
  In  In20  1  0.16789968  0.33396235  0.37476594  1
  In  In21  1  0.17871212  0.35756313  0.86700832  1
  In  In22  1  0.16151607  0.65752383  0.37580783  1
  In  In23  1  0.18644618  0.65052320  0.88087668  1
  In  In24  1  0.47148167  0.03448292  0.45688327  1
  In  In25  1  0.49641890  -0.00451951  0.86232966  1
  In  In26  1  0.50164381  0.33963642  0.37710802  1
  In  In27  1  0.51962835  0.33675755  0.87476448  1
  In  In28  1  0.49079100  0.67663806  0.39059776  1
  In  In29  1  0.50087813  0.66411710  0.87112088  1
  In  In30  1  0.81646783  0.01076069  0.39162077  1
  In  In31  1  0.81806171  -0.00595743  0.86656853  1
  In  In32  1  0.82463890  0.32801313  0.36909044  1
  In  In33  1  0.86332344  0.36481783  0.84177484  1
  In  In34  1  0.84146349  0.68439427  0.37763401  1
  In  In35  1  0.82771277  0.67768905  0.88014945  1
  In  In36  1  -0.01344945  0.17795401  0.38120624  1
  In  In37  1  -0.00404757  0.17719940  0.87126755  1
  In  In38  1  0.01251465  0.49886761  0.37599436  1
  In  In39  1  0.01136565  0.50397718  0.88468672  1
  In  In40  1  -0.01772839  0.82323706  0.37472893  1
  In  In41  1  0.00987016  0.81754256  0.88553849  1
  In  In42  1  0.32841046  0.17393749  0.38013978  1
  In  In43  1  0.34791034  0.16764207  0.86603347  1
  In  In44  1  0.35054918  0.49330726  0.39292907  1
  In  In45  1  0.32979319  0.50971599  0.88369332  1
  In  In46  1  0.33931010  0.85711378  0.37958844  1
  In  In47  1  0.34058018  0.83179409  0.86935197  1
  In  In48  1  0.64327207  0.18115026  0.40151337  1
  In  In49  1  0.67989199  0.17687164  0.86183490  1
  In  In50  1  0.66832408  0.49507507  0.37848649  1
  In  In51  1  0.67213089  0.49489244  0.87592086  1
  In  In52  1  0.65361130  0.84958117  0.39185500  1
  In  In53  1  0.66263338  0.83048231  0.86940216  1
  In  In54  1  0.16471164  -0.00681104  0.12248241  1
  In  In55  1  0.16412802  0.00534758  0.62084057  1
  In  In56  1  0.16295012  0.34440900  0.13136109  1
  In  In57  1  0.16042971  0.32797226  0.61641802  1
  In  In58  1  0.14412598  0.64805023  0.09747334  1
  In  In59  1  0.18014193  0.65892631  0.62901555  1
  In  In60  1  0.50603390  -0.00066214  0.12353601  1
  In  In61  1  0.50836001  -0.00981429  0.62138306  1
  In  In62  1  0.49317231  0.33819403  0.13811649  1
  In  In63  1  0.50882844  0.34180159  0.61509036  1
  In  In64  1  0.50091457  0.66624423  0.11765233  1
  In  In65  1  0.49934873  0.66181554  0.62728383  1
  In  In66  1  0.83686274  -0.00578373  0.12200597  1
  In  In67  1  0.80959509  -0.01620760  0.60970005  1
  In  In68  1  0.82911981  0.34030691  0.12905848  1
  In  In69  1  0.83731888  0.33261523  0.63138603  1
  In  In70  1  0.82499453  0.65580620  0.11468297  1
  In  In71  1  0.81616410  0.64936243  0.63742451  1
  In  In72  1  0.66297196  0.66304883  0.25098177  1
  In  In73  1  0.32639144  0.66866493  0.24869696  1
  In  In74  1  0.66434883  0.00172506  0.26687416  1
  In  In75  1  0.00395612  0.00183315  0.24885272  1
  In  In76  1  0.16523404  0.83528554  0.50100726  1
  In  In77  1  0.16920549  0.16496071  0.00353299  1
  In  In78  1  0.33966136  0.33124479  0.74088765  1
  In  In79  1  0.83389094  0.50468190  0.50804809  1
  In  In80  1  0.34100759  0.01587785  0.26253527  1
  In  In81  1  -0.00190286  0.66347671  0.24251358  1
  In  In82  1  -0.00484015  0.00454777  0.75198891  1
  In  In83  1  0.82975500  0.16648856  0.00116015  1
  In  In84  1  0.00445629  0.66536999  0.75301442  1
  In  In85  1  0.50666725  0.16842917  -0.00373510  1
  Cu  Cu86  1  -0.00955848  -0.00868907  -0.00732635  1
  Cu  Cu87  1  0.16559168  0.17140736  0.73777586  1
  Cu  Cu88  1  0.18014043  0.83099004  0.74881125  1
  Cu  Cu89  1  0.82751197  0.83902964  0.25007036  1
  Cu  Cu90  1  0.83609845  0.49485229  0.25032336  1
  Cu  Cu91  1  0.50115327  0.49902746  0.25417329  1
  Cu  Cu92  1  0.17292479  0.49161750  0.25005416  1
  Cu  Cu93  1  0.66438513  0.34213110  0.50131314  1
  Cu  Cu94  1  0.50109161  0.15375906  0.74009404  1
  Cu  Cu95  1  0.17070597  0.17436237  0.25302761  1
  Cu  Cu96  1  0.82824579  0.16200371  0.73873252  1
  Cu  Cu97  1  0.33758549  -0.00321298  -0.00826550  1
  Cu  Cu98  1  0.66416835  0.66545245  -0.00832497  1
  Cu  Cu99  1  0.82846339  0.83329259  0.75066887  1
  Cu  Cu100  1  0.00223917  0.33504532  -0.00577570  1
  Cu  Cu101  1  0.65922671  -0.00667401  -0.00924888  1
  Cu  Cu102  1  -0.00260665  0.33539467  0.49924593  1
  Cu  Cu103  1  0.33673218  0.34096914  0.00435082  1
  Cu  Cu104  1  0.49762340  0.49578391  0.75190983  1
  Cu  Cu105  1  0.34401600  0.67422605  -0.00391764  1
  Cu  Cu106  1  0.16194810  0.83245613  0.23922100  1
  Cu  Cu107  1  0.83345383  0.17949616  0.25239745  1
  Cu  Cu108  1  0.00254176  0.00562259  0.49980140  1
  Cu  Cu109  1  0.67269887  0.33660943  0.00074854  1
  Cu  Cu110  1  0.66805847  0.66244086  0.51149692  1
  Cu  Cu111  1  0.49989500  0.82880519  0.74701101  1
  Cu  Cu112  1  0.50014482  0.16714092  0.26795412  1
  Cu  Cu113  1  0.49719089  0.83896755  0.24947486  1
  Cu  Cu114  1  0.32986859  0.33850418  0.49919283  1
  Se  Se115  1  0.06795244  0.07246743  0.05458616  1
  Se  Se116  1  0.08631966  0.08797504  0.55105102  1
  Se  Se117  1  0.08394920  0.41273424  0.05358055  1
  Se  Se118  1  0.07559278  0.41854981  0.55515718  1
  Se  Se119  1  0.10739704  0.77528900  0.05400387  1
  Se  Se120  1  0.08371445  0.74727712  0.56640960  1
  Se  Se121  1  0.40992740  0.08015216  0.05582711  1
  Se  Se122  1  0.43265617  0.09083038  0.55674226  1
  Se  Se123  1  0.42437402  0.41575193  0.05972952  1
  Se  Se124  1  0.41492467  0.41841468  0.55261403  1
  Se  Se125  1  0.42095526  0.75659698  0.05456247  1
  Se  Se126  1  0.40999034  0.72553122  0.55205127  1
  Se  Se127  1  0.73483412  0.07201840  0.05668842  1
  Se  Se128  1  0.75334111  0.08880205  0.54782645  1
  Se  Se129  1  0.75808785  0.41974462  0.05305214  1
  Se  Se130  1  0.74167242  0.41748810  0.56587769  1
  Se  Se131  1  0.74540871  0.74556110  0.05069698  1
  Se  Se132  1  0.75112540  0.74090709  0.56707352  1
  Se  Se133  1  0.26064072  0.25452453  0.06303401  1
  Se  Se134  1  0.24746501  0.25042319  0.54837391  1
  Se  Se135  1  0.26311868  0.58907864  0.05152741  1
  Se  Se136  1  0.23858347  0.57662769  0.55069768  1
  Se  Se137  1  0.25433877  0.92402655  0.05315887  1
  Se  Se138  1  0.25817361  0.91880043  0.56078275  1
  Se  Se139  1  0.59066512  0.25690155  0.06173059  1
  Se  Se140  1  0.58289858  0.25010022  0.54844423  1
  Se  Se141  1  0.58591156  0.58496337  0.05246125  1
  Se  Se142  1  0.58867850  0.57610413  0.56325633  1
  Se  Se143  1  0.57532742  0.91776824  0.04930497  1
  Se  Se144  1  0.59147488  0.90827261  0.55478452  1
  Se  Se145  1  0.92616517  0.25451739  0.05799456  1
  Se  Se146  1  0.91261620  0.25688139  0.55462327  1
  Se  Se147  1  0.94337520  0.60918516  0.06208424  1
  Se  Se148  1  0.92286065  0.58749730  0.57183419  1
  Se  Se149  1  0.90392933  0.91342143  0.04644677  1
  Se  Se150  1  0.92312717  0.92213316  0.55525023  1
  Se  Se151  1  0.08078266  0.25433912  0.44357097  1
  Se  Se152  1  0.08707125  0.25533335  0.93876624  1
  Se  Se153  1  0.05824041  0.60539395  0.44107674  1
  Se  Se154  1  0.08819954  0.59249154  0.94984311  1
  Se  Se155  1  0.07280446  0.92178636  0.43548599  1
  Se  Se156  1  0.08504951  0.92041619  0.94196859  1
  Se  Se157  1  0.41461406  0.25839540  0.44429334  1
  Se  Se158  1  0.41192418  0.26084262  0.94157111  1
  Se  Se159  1  0.40046846  0.60246090  0.45524051  1
  Se  Se160  1  0.42341220  0.58429251  0.94648008  1
  Se  Se161  1  0.43585158  0.89341185  0.45541423  1
  Se  Se162  1  0.42182158  0.91840528  0.93807687  1
  Se  Se163  1  0.74996149  0.25962058  0.44898644  1
  Se  Se164  1  0.74991195  0.25799960  0.93963305  1
  Se  Se165  1  0.74777690  0.59469476  0.44151332  1
  Se  Se166  1  0.75120123  0.58217692  0.94382602  1
  Se  Se167  1  0.78363522  0.88173109  0.43485006  1
  Se  Se168  1  0.74648221  0.91293760  0.94026969  1
  Se  Se169  1  0.26396254  0.07272124  0.44450375  1
  Se  Se170  1  0.25913050  0.08307848  0.93610786  1
  Se  Se171  1  0.24407342  0.41999539  0.44552389  1
  Se  Se172  1  0.25077096  0.41910593  0.95043259  1
  Se  Se173  1  0.25015107  0.75540341  0.43065956  1
  Se  Se174  1  0.25872681  0.75169811  0.94039181  1
  Se  Se175  1  0.61313750  0.04477188  0.42875150  1
  Se  Se176  1  0.59161127  0.08275507  0.93135538  1
  Se  Se177  1  0.58056092  0.42459912  0.44818958  1
  Se  Se178  1  0.58620391  0.41881185  0.95035948  1
  Se  Se179  1  0.59053479  0.74455986  0.45221843  1
  Se  Se180  1  0.58162665  0.74950019  0.93999059  1
  Se  Se181  1  0.91515170  0.08717205  0.44904259  1
  Se  Se182  1  0.91671441  0.07818802  0.93490475  1
  Se  Se183  1  0.91573905  0.41591360  0.43972977  1
  Se  Se184  1  0.91648271  0.41236256  0.93865192  1
  Se  Se185  1  0.92667248  0.74183397  0.45486271  1
  Se  Se186  1  0.91344163  0.75276215  0.94956156  1
  Se  Se187  1  0.25488488  0.25431913  0.30581259  1
  Se  Se188  1  0.24495986  0.24545523  0.80459313  1
  Se  Se189  1  0.24884027  0.57253277  0.31093556  1
  Se  Se190  1  0.24958697  0.56888823  0.80424192  1
  Se  Se191  1  0.24072378  0.91241613  0.30107555  1
  Se  Se192  1  0.25963785  0.91869250  0.79995100  1
  Se  Se193  1  0.58856768  0.25127138  0.31397317  1
  Se  Se194  1  0.57039000  0.23748119  0.80345021  1
  Se  Se195  1  0.57029801  0.58450933  0.31626593  1
  Se  Se196  1  0.58249494  0.57347183  0.80796889  1
  Se  Se197  1  0.56596134  0.91524850  0.31632579  1
  Se  Se198  1  0.58381635  0.91405429  0.79833497  1
  Se  Se199  1  0.92141042  0.25870641  0.30274846  1
  Se  Se200  1  0.91326826  0.24029240  0.79512394  1
  Se  Se201  1  0.90874115  0.58088310  0.30905138  1
  Se  Se202  1  0.91612155  0.58518104  0.81810840  1
  Se  Se203  1  0.90760288  0.91955560  0.30777594  1
  Se  Se204  1  0.91672230  0.90402295  0.81126798  1
  Se  Se205  1  0.08877218  0.09357605  0.31087094  1
  Se  Se206  1  0.09290765  0.09366821  0.80720891  1
  Se  Se207  1  0.08451636  0.41549595  0.30388100  1
  Se  Se208  1  0.06841973  0.41016887  0.81038710  1
  Se  Se209  1  0.08465823  0.75677096  0.30402959  1
  Se  Se210  1  0.10004568  0.75269010  0.81009009  1
  Se  Se211  1  0.43422441  0.08265360  0.33097333  1
  Se  Se212  1  0.41292045  0.07896408  0.79468396  1
  Se  Se213  1  0.41550310  0.42217602  0.30964092  1
  Se  Se214  1  0.41934838  0.41463462  0.81242187  1
  Se  Se215  1  0.41684747  0.75855834  0.30832565  1
  Se  Se216  1  0.41821656  0.74522033  0.80116186  1
  Se  Se217  1  0.75567509  0.10011089  0.31370526  1
  Se  Se218  1  0.74812719  0.08043272  0.79554919  1
  Se  Se219  1  0.74693393  0.42044668  0.30474828  1
  Se  Se220  1  0.72559485  0.38534494  0.81327353  1
  Se  Se221  1  0.74779875  0.75766482  0.30838362  1
  Se  Se222  1  0.74800095  0.74716455  0.80276413  1
  Se  Se223  1  0.24299222  0.08811893  0.19209322  1
  Se  Se224  1  0.24764059  0.08376535  0.69079300  1
  Se  Se225  1  0.26020397  0.41412508  0.19595766  1
  Se  Se226  1  0.24631678  0.41554151  0.68398818  1
  Se  Se227  1  0.23445337  0.74503194  0.18214038  1
  Se  Se228  1  0.25823289  0.74714014  0.69410136  1
  Se  Se229  1  0.57385853  0.09117068  0.19851669  1
  Se  Se230  1  0.58918234  0.07791504  0.68768969  1
  Se  Se231  1  0.58559668  0.42095431  0.19827631  1
  Se  Se232  1  0.57684233  0.40863341  0.69877707  1
  Se  Se233  1  0.57662357  0.76005155  0.19106177  1
  Se  Se234  1  0.58212310  0.73990338  0.69880388  1
  Se  Se235  1  0.90610075  0.09326995  0.19143269  1
  Se  Se236  1  0.90908434  0.07933698  0.68177363  1
  Se  Se237  1  0.92020187  0.41663425  0.19484008  1
  Se  Se238  1  0.90211439  0.42088465  0.70515892  1
  Se  Se239  1  0.90086698  0.75548987  0.18855957  1
  Se  Se240  1  0.91230414  0.75513189  0.69326195  1
  Se  Se241  1  0.08610480  0.25405039  0.19794953  1
  Se  Se242  1  0.07787937  0.25084874  0.68918247  1
  Se  Se243  1  0.09286742  0.57221178  0.18886692  1
  Se  Se244  1  0.08964245  0.57297545  0.69462539  1
  Se  Se245  1  0.07274576  0.90440358  0.18188943  1
  Se  Se246  1  0.09199494  0.91252051  0.69647684  1
  Se  Se247  1  0.42075867  0.24805244  0.20808931  1
  Se  Se248  1  0.42451548  0.23901962  0.68020193  1
  Se  Se249  1  0.42441115  0.58116526  0.19302556  1
  Se  Se250  1  0.41644722  0.57486257  0.69452453  1
  Se  Se251  1  0.41406241  0.91898892  0.19213078  1
  Se  Se252  1  0.42051533  0.91046409  0.68903589  1
  Se  Se253  1  0.74747281  0.25625661  0.19678781  1
  Se  Se254  1  0.74421693  0.24710838  0.68904542  1
  Se  Se255  1  0.75232911  0.57294161  0.19131747  1
  Se  Se256  1  0.75411013  0.57107252  0.71521124  1
  Se  Se257  1  0.74434372  0.91670503  0.19126311  1
  Se  Se258  1  0.74748921  0.91478907  0.69489991  1
