# generated using pymatgen
data_In86Cu29Se144
_symmetry_space_group_name_H-M   'P 1'
_cell_length_a   17.58730089
_cell_length_b   17.58963448
_cell_length_c   23.44686662
_cell_angle_alpha   89.99546450
_cell_angle_beta   90.02581924
_cell_angle_gamma   89.99346812
_symmetry_Int_Tables_number   1
_chemical_formula_structural   In86Cu29Se144
_chemical_formula_sum   'In86 Cu29 Se144'
_cell_volume   7253.38572415
_cell_formula_units_Z   1
loop_
 _symmetry_equiv_pos_site_id
 _symmetry_equiv_pos_as_xyz
  1  'x, y, z'
loop_
 _atom_site_type_symbol
 _atom_site_label
 _atom_site_symmetry_multiplicity
 _atom_site_fract_x
 _atom_site_fract_y
 _atom_site_fract_z
 _atom_site_occupancy
  In  In0  1  0.00310141  0.15374034  0.13053988  1
  In  In1  1  -0.00506372  0.15992829  0.61835556  1
  In  In2  1  -0.00477333  0.49855477  0.13328418  1
  In  In3  1  0.00663054  0.48945073  0.61945561  1
  In  In4  1  0.01443296  0.83977564  0.11584513  1
  In  In5  1  0.01568299  0.83517457  0.62603542  1
  In  In6  1  0.33782271  0.17670460  0.11551455  1
  In  In7  1  0.32798719  0.17222857  0.63067399  1
  In  In8  1  0.34828744  0.47975691  0.15312384  1
  In  In9  1  0.33174090  0.50083852  0.62075607  1
  In  In10  1  0.31941743  0.83335219  0.12190301  1
  In  In11  1  0.33332454  0.83739713  0.63559501  1
  In  In12  1  0.66250804  0.17824298  0.12621707  1
  In  In13  1  0.66612924  0.15516621  0.61737658  1
  In  In14  1  0.65448179  0.50719598  0.13762422  1
  In  In15  1  0.66424130  0.51675982  0.62350009  1
  In  In16  1  0.66635561  0.81813652  0.11945385  1
  In  In17  1  0.65673750  0.83584772  0.63574648  1
  In  In18  1  0.16255115  0.00972130  0.38550178  1
  In  In19  1  0.16710428  0.00152801  0.87056442  1
  In  In20  1  0.16698207  0.32879206  0.36725471  1
  In  In21  1  0.16802650  0.32049172  0.87829430  1
  In  In22  1  0.20553619  0.64032166  0.41145187  1
  In  In23  1  0.18204078  0.66523904  0.87746163  1
  In  In24  1  0.49760552  0.01298743  0.37769042  1
  In  In25  1  0.50543143  0.00470768  0.86693630  1
  In  In26  1  0.50766034  0.35622932  0.35402423  1
  In  In27  1  0.48788480  0.34711893  0.88298109  1
  In  In28  1  0.47131740  0.62613004  0.34057312  1
  In  In29  1  0.48799358  0.66530129  0.86503149  1
  In  In30  1  0.84417522  -0.00449080  0.37715550  1
  In  In31  1  0.82340286  -0.01299622  0.86616839  1
  In  In32  1  0.82720989  0.32197122  0.37159522  1
  In  In33  1  0.83265584  0.33187995  0.87964250  1
  In  In34  1  0.81786739  0.66882882  0.36963669  1
  In  In35  1  0.83578876  0.68629280  0.87928103  1
  In  In36  1  0.00236837  0.16335463  0.37210782  1
  In  In37  1  0.01735745  0.16353400  0.87766237  1
  In  In38  1  0.02616406  0.49746207  0.36782222  1
  In  In39  1  0.01583663  0.50385823  0.87591803  1
  In  In40  1  0.00518698  0.84688121  0.37194664  1
  In  In41  1  -0.01008437  0.83982522  0.88289389  1
  In  In42  1  0.31939532  0.16938512  0.37991646  1
  In  In43  1  0.33240645  0.17033933  0.87332675  1
  In  In44  1  0.32648979  0.49578767  0.36596770  1
  In  In45  1  0.34063831  0.51155364  0.86707914  1
  In  In46  1  0.33414352  0.81379103  0.38184234  1
  In  In47  1  0.32669641  0.82481564  0.86798691  1
  In  In48  1  0.65942787  0.18949585  0.38790069  1
  In  In49  1  0.66635069  0.15098324  0.87296406  1
  In  In50  1  0.65213362  0.48605473  0.36423137  1
  In  In51  1  0.64514338  0.49630564  0.87866840  1
  In  In52  1  0.67195945  0.82668235  0.37576928  1
  In  In53  1  0.66805924  0.84170292  0.86653728  1
  In  In54  1  0.15635772  -0.00773720  0.11801034  1
  In  In55  1  0.16707072  0.00178562  0.63000872  1
  In  In56  1  0.17515491  0.32539081  0.13793054  1
  In  In57  1  0.18060350  0.34026739  0.61209835  1
  In  In58  1  0.17589905  0.67365758  0.12616280  1
  In  In59  1  0.18322017  0.67928039  0.60776410  1
  In  In60  1  0.48501088  0.00711790  0.11629274  1
  In  In61  1  0.50437242  -0.00939663  0.64214387  1
  In  In62  1  0.49876972  0.33632355  0.12819740  1
  In  In63  1  0.48325965  0.32981308  0.62355394  1
  In  In64  1  0.50273596  0.65418035  0.13252911  1
  In  In65  1  0.49880229  0.66499250  0.62855598  1
  In  In66  1  0.84840146  0.00151816  0.12258026  1
  In  In67  1  0.82597049  0.01117841  0.63112603  1
  In  In68  1  0.82832826  0.33618871  0.13953604  1
  In  In69  1  0.84217589  0.33097956  0.61710214  1
  In  In70  1  0.82837828  0.66685925  0.12066584  1
  In  In71  1  0.81569060  0.66601880  0.62697809  1
  In  In72  1  0.49958140  0.83073260  0.50772980  1
  In  In73  1  0.00434899  0.66567243  0.74950576  1
  In  In74  1  0.00196331  0.32616116  0.74228029  1
  In  In75  1  0.49909479  0.83356017  -0.01223227  1
  In  In76  1  0.00666128  0.67203031  0.25293281  1
  In  In77  1  0.83742747  0.49318383  0.49802018  1
  In  In78  1  0.83446455  0.83705712  0.49806429  1
  In  In79  1  0.32430954  -0.00625749  0.24423884  1
  In  In80  1  0.83180409  0.50333960  0.01314732  1
  In  In81  1  0.83067771  0.16535797  0.00092471  1
  In  In82  1  0.17404547  0.50642776  0.00878654  1
  In  In83  1  0.67125734  0.00231104  0.25376904  1
  In  In84  1  0.49330864  0.17100440  0.50469128  1
  In  In85  1  0.66208799  0.32792916  0.74572478  1
  Cu  Cu86  1  0.33080165  0.33931437  0.00586165  1
  Cu  Cu87  1  0.49370625  0.17321325  0.24785724  1
  Cu  Cu88  1  0.17546425  0.49873056  0.74279824  1
  Cu  Cu89  1  0.17203673  0.16469424  0.74992575  1
  Cu  Cu90  1  0.34022767  0.66587620  -0.00080380  1
  Cu  Cu91  1  0.49281789  0.50202586  0.74970304  1
  Cu  Cu92  1  0.00194225  0.00011689  -0.00259127  1
  Cu  Cu93  1  0.83484415  0.49800217  0.25129468  1
  Cu  Cu94  1  0.00732597  0.32441111  0.49146019  1
  Cu  Cu95  1  0.64979518  0.33331378  0.00599597  1
  Cu  Cu96  1  0.33155231  -0.00512323  0.50956699  1
  Cu  Cu97  1  0.83533325  0.83564532  0.75152466  1
  Cu  Cu98  1  0.49709031  0.16809446  0.75044709  1
  Cu  Cu99  1  0.00416122  0.00445750  0.50094149  1
  Cu  Cu100  1  0.83646027  0.83457796  0.24881175  1
  Cu  Cu101  1  0.83805000  0.15805380  0.74826046  1
  Cu  Cu102  1  0.65118170  0.66491779  0.49648857  1
  Cu  Cu103  1  -0.00197927  0.33282924  0.00510864  1
  Cu  Cu104  1  0.66450994  -0.00260556  -0.00809840  1
  Cu  Cu105  1  0.16403395  0.16159946  0.25216267  1
  Cu  Cu106  1  0.16833030  0.83423714  0.74988032  1
  Cu  Cu107  1  0.32318151  0.00894847  -0.00507387  1
  Cu  Cu108  1  0.83490927  0.16573601  0.25435356  1
  Cu  Cu109  1  0.33711343  0.33713938  0.49342420  1
  Cu  Cu110  1  0.82548699  0.50688563  0.75285672  1
  Cu  Cu111  1  0.50500008  0.82589950  0.24949455  1
  Cu  Cu112  1  0.66941574  0.66287810  0.00128639  1
  Cu  Cu113  1  0.16549948  0.83436796  0.25076244  1
  Cu  Cu114  1  -0.00112899  0.66710384  0.49851644  1
  Se  Se115  1  0.08140327  0.08646174  0.05133651  1
  Se  Se116  1  0.09051074  0.08402365  0.55555877  1
  Se  Se117  1  0.07979514  0.41305500  0.06325840  1
  Se  Se118  1  0.08423272  0.41230901  0.54667631  1
  Se  Se119  1  0.10128311  0.75472375  0.05474460  1
  Se  Se120  1  0.08116556  0.75327884  0.54913774  1
  Se  Se121  1  0.41259184  0.08973056  0.04422320  1
  Se  Se122  1  0.41594258  0.07244466  0.56837851  1
  Se  Se123  1  0.41093886  0.42140743  0.06278014  1
  Se  Se124  1  0.41694929  0.41815828  0.55099471  1
  Se  Se125  1  0.41910563  0.74910732  0.06010784  1
  Se  Se126  1  0.40359209  0.74276726  0.56100698  1
  Se  Se127  1  0.73940414  0.07448927  0.06060450  1
  Se  Se128  1  0.76296909  0.09015781  0.55177080  1
  Se  Se129  1  0.73896142  0.40794725  0.06384175  1
  Se  Se130  1  0.74137867  0.41402793  0.56083399  1
  Se  Se131  1  0.75482294  0.75071851  0.04678214  1
  Se  Se132  1  0.73548902  0.74791689  0.55356278  1
  Se  Se133  1  0.24232091  0.25595011  0.05382460  1
  Se  Se134  1  0.26083785  0.24769339  0.54902111  1
  Se  Se135  1  0.27321586  0.58466710  0.06760935  1
  Se  Se136  1  0.23819932  0.56825601  0.55028819  1
  Se  Se137  1  0.24920898  0.91965551  0.04988834  1
  Se  Se138  1  0.24939745  0.91358371  0.56367450  1
  Se  Se139  1  0.57054738  0.24414214  0.05601492  1
  Se  Se140  1  0.58893807  0.26071046  0.56030336  1
  Se  Se141  1  0.58585653  0.58320874  0.05707040  1
  Se  Se142  1  0.57247173  0.58176598  0.55236329  1
  Se  Se143  1  0.58538482  0.92104049  0.05725543  1
  Se  Se144  1  0.59048027  0.92750278  0.56018998  1
  Se  Se145  1  0.91507295  0.25584017  0.06452759  1
  Se  Se146  1  0.92092026  0.24894763  0.54818379  1
  Se  Se147  1  0.93383843  0.59397870  0.05865298  1
  Se  Se148  1  0.91895079  0.59177571  0.56212228  1
  Se  Se149  1  0.91888743  0.91607747  0.05061177  1
  Se  Se150  1  0.92352200  0.92268288  0.56162302  1
  Se  Se151  1  0.09213120  0.24212885  0.43932276  1
  Se  Se152  1  0.08223148  0.25129295  0.95199584  1
  Se  Se153  1  0.08107640  0.57812580  0.45045530  1
  Se  Se154  1  0.08206212  0.59567430  0.94727770  1
  Se  Se155  1  0.08395371  0.91624118  0.44977158  1
  Se  Se156  1  0.08643312  0.91944929  0.94248711  1
  Se  Se157  1  0.41876431  0.25782110  0.43274380  1
  Se  Se158  1  0.40870954  0.25565425  0.94647751  1
  Se  Se159  1  0.41101421  0.58181706  0.43349762  1
  Se  Se160  1  0.42094680  0.58347888  0.94346948  1
  Se  Se161  1  0.41146094  0.92492757  0.44278092  1
  Se  Se162  1  0.40548455  0.92701525  0.93572130  1
  Se  Se163  1  0.75534781  0.25615874  0.45340568  1
  Se  Se164  1  0.73391402  0.25800659  0.94475269  1
  Se  Se165  1  0.74384274  0.58668016  0.44466881  1
  Se  Se166  1  0.74739671  0.58094674  0.93878098  1
  Se  Se167  1  0.73935315  0.92692462  0.44280887  1
  Se  Se168  1  0.74968324  0.91205645  0.94417632  1
  Se  Se169  1  0.25418028  0.08230847  0.45417579  1
  Se  Se170  1  0.24161719  0.09220967  0.94052206  1
  Se  Se171  1  0.24818421  0.41148164  0.43799705  1
  Se  Se172  1  0.25443057  0.41792470  0.93927019  1
  Se  Se173  1  0.24387375  0.76554440  0.45973926  1
  Se  Se174  1  0.25635420  0.75083570  0.94885274  1
  Se  Se175  1  0.58994882  0.07930366  0.44873288  1
  Se  Se176  1  0.57847602  0.08332553  0.94553202  1
  Se  Se177  1  0.57679774  0.41423513  0.44057708  1
  Se  Se178  1  0.57130371  0.42304148  0.95584426  1
  Se  Se179  1  0.57577992  0.74574002  0.43543894  1
  Se  Se180  1  0.59202654  0.73980619  0.93525868  1
  Se  Se181  1  0.91985168  0.08337661  0.44520683  1
  Se  Se182  1  0.91675829  0.07777763  0.93663844  1
  Se  Se183  1  0.92930480  0.41150403  0.43302261  1
  Se  Se184  1  0.92450712  0.41610584  0.94390733  1
  Se  Se185  1  0.91943154  0.74330172  0.43603965  1
  Se  Se186  1  0.92403996  0.74597979  0.95209968  1
  Se  Se187  1  0.25306315  0.24427181  0.29931510  1
  Se  Se188  1  0.25011906  0.25413470  0.80209427  1
  Se  Se189  1  0.24305171  0.59773179  0.31208852  1
  Se  Se190  1  0.24997413  0.58682693  0.79914246  1
  Se  Se191  1  0.24579667  0.91096087  0.31606885  1
  Se  Se192  1  0.25117923  0.91846808  0.80271750  1
  Se  Se193  1  0.58306635  0.24661555  0.30342669  1
  Se  Se194  1  0.57577798  0.24731543  0.81443473  1
  Se  Se195  1  0.60891852  0.60390799  0.30809963  1
  Se  Se196  1  0.58018552  0.58046946  0.80336203  1
  Se  Se197  1  0.57358614  0.91378490  0.31086968  1
  Se  Se198  1  0.58314841  0.91902316  0.79936330  1
  Se  Se199  1  0.92081991  0.24987194  0.30439854  1
  Se  Se200  1  0.91183923  0.24245256  0.81025682  1
  Se  Se201  1  0.91380840  0.57857509  0.31238964  1
  Se  Se202  1  0.91282222  0.57746852  0.81279453  1
  Se  Se203  1  0.91820233  0.91938211  0.30017263  1
  Se  Se204  1  0.92279136  0.91674189  0.80254233  1
  Se  Se205  1  0.08463414  0.07463625  0.30481153  1
  Se  Se206  1  0.08275301  0.08424602  0.79978213  1
  Se  Se207  1  0.09548870  0.41604609  0.29348812  1
  Se  Se208  1  0.09228077  0.41946736  0.80251772  1
  Se  Se209  1  0.09563853  0.75309094  0.31736574  1
  Se  Se210  1  0.08936222  0.75433233  0.81301124  1
  Se  Se211  1  0.41364396  0.08855093  0.30376959  1
  Se  Se212  1  0.41332182  0.08559168  0.80395512  1
  Se  Se213  1  0.40521397  0.41711825  0.29150596  1
  Se  Se214  1  0.41276003  0.41428057  0.80204837  1
  Se  Se215  1  0.41270540  0.75212033  0.30105475  1
  Se  Se216  1  0.42275012  0.76157669  0.79861164  1
  Se  Se217  1  0.75214335  0.09286381  0.31844172  1
  Se  Se218  1  0.74833867  0.07953260  0.79935060  1
  Se  Se219  1  0.75235956  0.41307049  0.30386684  1
  Se  Se220  1  0.75103788  0.41921327  0.81076444  1
  Se  Se221  1  0.74705055  0.75455758  0.29685453  1
  Se  Se222  1  0.75259731  0.75081437  0.80320578  1
  Se  Se223  1  0.24236448  0.08853593  0.18364800  1
  Se  Se224  1  0.25641238  0.07940998  0.69873210  1
  Se  Se225  1  0.22944760  0.42809144  0.20501079  1
  Se  Se226  1  0.25521106  0.41077041  0.69156740  1
  Se  Se227  1  0.25366126  0.75354368  0.20041090  1
  Se  Se228  1  0.24454921  0.74565357  0.69520475  1
  Se  Se229  1  0.57198597  0.08436736  0.19168836  1
  Se  Se230  1  0.58584752  0.09121173  0.69681280  1
  Se  Se231  1  0.58992000  0.40539742  0.19871417  1
  Se  Se232  1  0.57488713  0.42320473  0.68883923  1
  Se  Se233  1  0.58763334  0.74614804  0.19429175  1
  Se  Se234  1  0.59401411  0.73299370  0.69563509  1
  Se  Se235  1  0.91490695  0.07947241  0.20115178  1
  Se  Se236  1  0.92625115  0.07953704  0.69629709  1
  Se  Se237  1  0.92131831  0.41284645  0.20379912  1
  Se  Se238  1  0.90637202  0.42723215  0.69349045  1
  Se  Se239  1  0.91712147  0.75623376  0.18723479  1
  Se  Se240  1  0.91083720  0.75400852  0.68801404  1
  Se  Se241  1  0.07939741  0.24384399  0.19739761  1
  Se  Se242  1  0.09624658  0.24332171  0.68333061  1
  Se  Se243  1  0.09301370  0.58083305  0.19250813  1
  Se  Se244  1  0.09086579  0.57814505  0.68520363  1
  Se  Se245  1  0.08270739  0.91690020  0.19625872  1
  Se  Se246  1  0.08305904  0.91910204  0.70061132  1
  Se  Se247  1  0.40866443  0.25279941  0.19374912  1
  Se  Se248  1  0.41273475  0.25293799  0.70045401  1
  Se  Se249  1  0.41683009  0.58863726  0.20704630  1
  Se  Se250  1  0.40971444  0.58301184  0.69379100  1
  Se  Se251  1  0.42556818  0.90673102  0.18887873  1
  Se  Se252  1  0.42945841  0.89894391  0.70608670  1
  Se  Se253  1  0.74661858  0.24468963  0.20166425  1
  Se  Se254  1  0.76194548  0.24378046  0.68963170  1
  Se  Se255  1  0.75801814  0.58319697  0.19415596  1
  Se  Se256  1  0.74046672  0.58866669  0.70221911  1
  Se  Se257  1  0.75352374  0.91243712  0.18675221  1
  Se  Se258  1  0.75191974  0.91679046  0.69567834  1
