# generated using pymatgen
data_In86Cu29Se144
_symmetry_space_group_name_H-M   'P 1'
_cell_length_a   17.57923029
_cell_length_b   17.57741196
_cell_length_c   23.43424386
_cell_angle_alpha   89.99743863
_cell_angle_beta   90.01182343
_cell_angle_gamma   89.98107105
_symmetry_Int_Tables_number   1
_chemical_formula_structural   In86Cu29Se144
_chemical_formula_sum   'In86 Cu29 Se144'
_cell_volume   7241.11922919
_cell_formula_units_Z   1
loop_
 _symmetry_equiv_pos_site_id
 _symmetry_equiv_pos_as_xyz
  1  'x, y, z'
loop_
 _atom_site_type_symbol
 _atom_site_label
 _atom_site_symmetry_multiplicity
 _atom_site_fract_x
 _atom_site_fract_y
 _atom_site_fract_z
 _atom_site_occupancy
  In  In0  1  -0.00572507  0.17405869  0.13073239  1
  In  In1  1  0.00524768  0.15966567  0.63378210  1
  In  In2  1  -0.01231588  0.49037992  0.12435210  1
  In  In3  1  -0.01685553  0.49938659  0.62317067  1
  In  In4  1  0.00373949  0.84734166  0.12255248  1
  In  In5  1  -0.00384599  0.85138991  0.62739692  1
  In  In6  1  0.32995968  0.15811078  0.11620286  1
  In  In7  1  0.33153179  0.16503551  0.62504033  1
  In  In8  1  0.34739418  0.50611341  0.12045261  1
  In  In9  1  0.36518260  0.47989796  0.65531818  1
  In  In10  1  0.33813988  0.83293135  0.12714782  1
  In  In11  1  0.33024374  0.83381400  0.64985084  1
  In  In12  1  0.66771525  0.16994406  0.11324413  1
  In  In13  1  0.66477765  0.18820009  0.64727136  1
  In  In14  1  0.66849161  0.49725744  0.11737506  1
  In  In15  1  0.65396241  0.48997742  0.62362320  1
  In  In16  1  0.66763932  0.83788012  0.11152314  1
  In  In17  1  0.67862701  0.82963095  0.62806577  1
  In  In18  1  0.17318182  0.00920993  0.37295660  1
  In  In19  1  0.17831002  -0.00499157  0.86200759  1
  In  In20  1  0.15549810  0.33237066  0.37759364  1
  In  In21  1  0.16220343  0.32857639  0.86591486  1
  In  In22  1  0.17964367  0.65649141  0.37209182  1
  In  In23  1  0.17797563  0.67006194  0.87286013  1
  In  In24  1  0.49853922  0.01468182  0.37936770  1
  In  In25  1  0.50501901  0.00427153  0.86831530  1
  In  In26  1  0.50203920  0.33283528  0.38576630  1
  In  In27  1  0.49444842  0.33236925  0.87447406  1
  In  In28  1  0.48732371  0.66467526  0.37528828  1
  In  In29  1  0.49587131  0.66878113  0.87647630  1
  In  In30  1  0.83400213  -0.00864947  0.37666307  1
  In  In31  1  0.82903480  0.00651659  0.86945234  1
  In  In32  1  0.84436173  0.33317988  0.37543729  1
  In  In33  1  0.83167130  0.33123327  0.87310210  1
  In  In34  1  0.83372230  0.66526032  0.38012587  1
  In  In35  1  0.82559637  0.66550270  0.88304998  1
  In  In36  1  0.00923291  0.17521503  0.37252483  1
  In  In37  1  -0.00823714  0.16554976  0.86617848  1
  In  In38  1  -0.00151864  0.48919878  0.37477462  1
  In  In39  1  -0.00924975  0.48262787  0.87517352  1
  In  In40  1  -0.01156143  0.83655838  0.37611689  1
  In  In41  1  -0.01731267  0.83774290  0.87887904  1
  In  In42  1  0.33964022  0.16198560  0.38468985  1
  In  In43  1  0.34943757  0.18282779  0.86611629  1
  In  In44  1  0.33555309  0.50921812  0.37515843  1
  In  In45  1  0.34429615  0.50122440  0.86876298  1
  In  In46  1  0.32922439  0.83241449  0.37222345  1
  In  In47  1  0.36947472  0.85832027  0.83845095  1
  In  In48  1  0.66049573  0.15928784  0.38178590  1
  In  In49  1  0.66724596  0.16275004  0.86864895  1
  In  In50  1  0.66617738  0.49329355  0.38345010  1
  In  In51  1  0.66913328  0.49236394  0.87807549  1
  In  In52  1  0.67745719  0.84302470  0.37972265  1
  In  In53  1  0.65309708  0.84858445  0.87885561  1
  In  In54  1  0.16930177  0.00409747  0.13229024  1
  In  In55  1  0.15404982  0.00418767  0.63404813  1
  In  In56  1  0.15936256  0.32104038  0.12087935  1
  In  In57  1  0.17938961  0.32361379  0.63058867  1
  In  In58  1  0.17050637  0.68026250  0.12949161  1
  In  In59  1  0.18222167  0.66458279  0.62551300  1
  In  In60  1  0.49693609  -0.00655486  0.11586638  1
  In  In61  1  0.48688331  0.01018448  0.63831942  1
  In  In62  1  0.49840098  0.33748590  0.10377656  1
  In  In63  1  0.50292525  0.32953227  0.63179756  1
  In  In64  1  0.49694883  0.66410924  0.11746506  1
  In  In65  1  0.50069887  0.65899395  0.63199492  1
  In  In66  1  0.84052478  0.01056127  0.11543769  1
  In  In67  1  0.83891361  0.00320083  0.63553762  1
  In  In68  1  0.85525949  0.34267702  0.10562895  1
  In  In69  1  0.82154116  0.33722122  0.63920242  1
  In  In70  1  0.82761010  0.66128131  0.11839789  1
  In  In71  1  0.82341239  0.66215951  0.61532540  1
  In  In72  1  0.67340092  0.33181292  0.24570595  1
  In  In73  1  0.33091376  0.33125139  0.24237378  1
  In  In74  1  0.82849966  0.17071705  0.50819519  1
  In  In75  1  0.00666249  0.67063866  0.74617446  1
  In  In76  1  0.66499545  0.66317920  0.23858694  1
  In  In77  1  0.66591696  0.00010968  0.25303470  1
  In  In78  1  0.17174860  0.83243348  -0.00362744  1
  In  In79  1  0.16340907  0.83733716  0.50750630  1
  In  In80  1  0.16729854  0.50077614  -0.00657183  1
  In  In81  1  0.16429020  0.16788076  -0.01053839  1
  In  In82  1  0.00607233  0.66957286  0.25580980  1
  In  In83  1  0.16830880  0.49761890  0.49726298  1
  In  In84  1  0.66197663  0.66633596  0.75844751  1
  In  In85  1  0.50494845  0.82904636  0.50676217  1
  Cu  Cu86  1  0.83698133  0.83593385  0.24791130  1
  Cu  Cu87  1  -0.00539606  0.00387671  -0.00277163  1
  Cu  Cu88  1  0.66291035  0.32453895  -0.00947136  1
  Cu  Cu89  1  0.34102567  0.33151851  0.51040920  1
  Cu  Cu90  1  0.16854810  0.16531815  0.74860289  1
  Cu  Cu91  1  0.34064515  0.67425147  -0.00390577  1
  Cu  Cu92  1  0.16298642  0.49375437  0.75634048  1
  Cu  Cu93  1  0.49610373  0.17010401  0.75296268  1
  Cu  Cu94  1  -0.00369839  0.00679048  0.50793383  1
  Cu  Cu95  1  0.49591451  0.16413912  0.24972739  1
  Cu  Cu96  1  0.34290938  -0.00279381  -0.01013140  1
  Cu  Cu97  1  0.48976698  0.83756263  0.24744258  1
  Cu  Cu98  1  0.83117589  0.49927127  0.75346900  1
  Cu  Cu99  1  -0.00844934  0.66045664  -0.00272290  1
  Cu  Cu100  1  0.17454561  0.84325597  0.25022201  1
  Cu  Cu101  1  0.16979383  0.49884058  0.25171225  1
  Cu  Cu102  1  0.33899541  0.65725530  0.50619801  1
  Cu  Cu103  1  0.66801611  0.66188131  0.50477294  1
  Cu  Cu104  1  -0.00060229  0.33131786  0.50065582  1
  Cu  Cu105  1  0.66715882  0.00192065  -0.00999248  1
  Cu  Cu106  1  0.16494943  0.16433390  0.24985893  1
  Cu  Cu107  1  0.66436152  0.00441310  0.50608224  1
  Cu  Cu108  1  0.33294068  0.00035280  0.50593439  1
  Cu  Cu109  1  -0.00716390  0.67269405  0.50055635  1
  Cu  Cu110  1  0.84387862  0.16734017  0.24562276  1
  Cu  Cu111  1  0.49761294  0.50210323  0.24549093  1
  Cu  Cu112  1  0.66416601  0.66249749  -0.00271343  1
  Cu  Cu113  1  0.66383872  0.33807006  0.51127898  1
  Cu  Cu114  1  0.83514967  0.84028828  0.75006103  1
  Se  Se115  1  0.08203272  0.07840081  0.05732060  1
  Se  Se116  1  0.08535436  0.08644019  0.55688721  1
  Se  Se117  1  0.07711318  0.41021884  0.05304775  1
  Se  Se118  1  0.08055745  0.41172548  0.56187444  1
  Se  Se119  1  0.07433012  0.74205412  0.05466610  1
  Se  Se120  1  0.07480003  0.74169865  0.56495904  1
  Se  Se121  1  0.41851837  0.08262169  0.04835136  1
  Se  Se122  1  0.41931108  0.08349490  0.55641462  1
  Se  Se123  1  0.40881566  0.42191605  0.04536963  1
  Se  Se124  1  0.42034564  0.41795062  0.56361644  1
  Se  Se125  1  0.41953159  0.75825311  0.05346389  1
  Se  Se126  1  0.40649532  0.74888478  0.56628046  1
  Se  Se127  1  0.74899154  0.08246535  0.04802074  1
  Se  Se128  1  0.74008832  0.08462926  0.57008123  1
  Se  Se129  1  0.74275985  0.40532218  0.05115675  1
  Se  Se130  1  0.75423264  0.41790296  0.56047582  1
  Se  Se131  1  0.74941241  0.74673351  0.05011882  1
  Se  Se132  1  0.74938683  0.75527385  0.54854071  1
  Se  Se133  1  0.25668708  0.25808668  0.05025399  1
  Se  Se134  1  0.24984231  0.24705337  0.55244913  1
  Se  Se135  1  0.25218355  0.59889596  0.05477737  1
  Se  Se136  1  0.26376775  0.57045618  0.56365480  1
  Se  Se137  1  0.25714738  0.92860365  0.05561695  1
  Se  Se138  1  0.25867846  0.91893651  0.56810232  1
  Se  Se139  1  0.57791198  0.24261717  0.04429130  1
  Se  Se140  1  0.58784779  0.24653954  0.56252720  1
  Se  Se141  1  0.58159846  0.57977179  0.05253762  1
  Se  Se142  1  0.57986700  0.58451756  0.55738446  1
  Se  Se143  1  0.58287958  0.91860268  0.04489202  1
  Se  Se144  1  0.58586568  0.92428007  0.56759736  1
  Se  Se145  1  0.91216781  0.22992955  0.05048087  1
  Se  Se146  1  0.92087640  0.25759421  0.56698453  1
  Se  Se147  1  0.91380660  0.57701587  0.05384614  1
  Se  Se148  1  0.91186821  0.58205863  0.54886336  1
  Se  Se149  1  0.91592874  0.91500982  0.05028412  1
  Se  Se150  1  0.90951041  0.92293428  0.55588757  1
  Se  Se151  1  0.08533255  0.24736584  0.45131908  1
  Se  Se152  1  0.06823981  0.25931029  0.93890549  1
  Se  Se153  1  0.07557690  0.59411606  0.44040746  1
  Se  Se154  1  0.07390665  0.59049147  0.93371447  1
  Se  Se155  1  0.07501229  0.92548293  0.44436574  1
  Se  Se156  1  0.08138423  0.92671787  0.93959917  1
  Se  Se157  1  0.42086599  0.24765918  0.45184464  1
  Se  Se158  1  0.41877785  0.24797770  0.94774696  1
  Se  Se159  1  0.42161129  0.57726753  0.44992927  1
  Se  Se160  1  0.41655698  0.58150209  0.94586246  1
  Se  Se161  1  0.41242032  0.91820682  0.44533927  1
  Se  Se162  1  0.42093302  0.91252311  0.93378570  1
  Se  Se163  1  0.73963786  0.26108388  0.44306217  1
  Se  Se164  1  0.74980832  0.24324966  0.94029082  1
  Se  Se165  1  0.75008135  0.58147813  0.44657110  1
  Se  Se166  1  0.74922205  0.57565932  0.94908825  1
  Se  Se167  1  0.75055601  0.92409878  0.45341607  1
  Se  Se168  1  0.75422042  0.91703215  0.94148546  1
  Se  Se169  1  0.24978760  0.08195002  0.45048431  1
  Se  Se170  1  0.25981664  0.07826206  0.93371236  1
  Se  Se171  1  0.26339357  0.40497915  0.44051456  1
  Se  Se172  1  0.25291947  0.40998222  0.93401777  1
  Se  Se173  1  0.25644826  0.74072314  0.44917802  1
  Se  Se174  1  0.26800031  0.75677074  0.93381053  1
  Se  Se175  1  0.57864716  0.08684979  0.45526934  1
  Se  Se176  1  0.58046282  0.08639628  0.94145425  1
  Se  Se177  1  0.58009839  0.41909372  0.45380831  1
  Se  Se178  1  0.57928859  0.41472417  0.94496200  1
  Se  Se179  1  0.59196218  0.74188273  0.43862056  1
  Se  Se180  1  0.58427514  0.74808972  0.94299201  1
  Se  Se181  1  0.91819688  0.08476485  0.44273672  1
  Se  Se182  1  0.91457054  0.08546364  0.94066509  1
  Se  Se183  1  0.91620915  0.41700477  0.44982244  1
  Se  Se184  1  0.90305499  0.41867383  0.94689541  1
  Se  Se185  1  0.91018677  0.75598366  0.44712148  1
  Se  Se186  1  0.91010962  0.75046715  0.94918192  1
  Se  Se187  1  0.24667681  0.24573298  0.31050118  1
  Se  Se188  1  0.25155414  0.25107816  0.79986866  1
  Se  Se189  1  0.25871655  0.58264355  0.29750135  1
  Se  Se190  1  0.24746291  0.57821881  0.80536560  1
  Se  Se191  1  0.25678802  0.92506304  0.30589106  1
  Se  Se192  1  0.24629044  0.90653539  0.79109137  1
  Se  Se193  1  0.57795295  0.24436877  0.30801541  1
  Se  Se194  1  0.58180039  0.25230165  0.80508898  1
  Se  Se195  1  0.57967576  0.57742796  0.30814505  1
  Se  Se196  1  0.57346462  0.56986661  0.81008967  1
  Se  Se197  1  0.57237352  0.90924580  0.31246229  1
  Se  Se198  1  0.57744060  0.91207643  0.79891597  1
  Se  Se199  1  0.92059571  0.25175332  0.30371420  1
  Se  Se200  1  0.90310682  0.24437549  0.79836686  1
  Se  Se201  1  0.91060325  0.57723582  0.30704654  1
  Se  Se202  1  0.91198817  0.58516447  0.80824261  1
  Se  Se203  1  0.91763998  0.92074715  0.30161069  1
  Se  Se204  1  0.91893734  0.92245531  0.80282642  1
  Se  Se205  1  0.08133092  0.08213786  0.30475435  1
  Se  Se206  1  0.08685000  0.08369217  0.80499463  1
  Se  Se207  1  0.08535604  0.41661374  0.30319916  1
  Se  Se208  1  0.07291346  0.41082111  0.80110179  1
  Se  Se209  1  0.09798195  0.76271942  0.31494212  1
  Se  Se210  1  0.08278376  0.75944290  0.81500891  1
  Se  Se211  1  0.41353568  0.08489789  0.30602702  1
  Se  Se212  1  0.41190892  0.08118219  0.80062983  1
  Se  Se213  1  0.42331372  0.41714381  0.30735880  1
  Se  Se214  1  0.41234871  0.40836151  0.80018196  1
  Se  Se215  1  0.41438441  0.75054053  0.30445517  1
  Se  Se216  1  0.40859324  0.72690837  0.79735920  1
  Se  Se217  1  0.75970821  0.09477617  0.30946131  1
  Se  Se218  1  0.73487501  0.06955939  0.79858745  1
  Se  Se219  1  0.75645525  0.42262041  0.30906007  1
  Se  Se220  1  0.74677965  0.41471105  0.80357960  1
  Se  Se221  1  0.75327849  0.75497717  0.30459602  1
  Se  Se222  1  0.75630736  0.75995353  0.81135407  1
  Se  Se223  1  0.25531220  0.08903680  0.19669924  1
  Se  Se224  1  0.25130113  0.08092137  0.69510485  1
  Se  Se225  1  0.24295981  0.42441275  0.18255779  1
  Se  Se226  1  0.24925707  0.41350552  0.70181460  1
  Se  Se227  1  0.25483907  0.75464309  0.19959874  1
  Se  Se228  1  0.22890908  0.75467888  0.70284868  1
  Se  Se229  1  0.58070920  0.08903713  0.18910630  1
  Se  Se230  1  0.58239745  0.08762928  0.70128403  1
  Se  Se231  1  0.57391039  0.41750231  0.18748923  1
  Se  Se232  1  0.59137920  0.40737294  0.69980974  1
  Se  Se233  1  0.57676385  0.76416829  0.18787297  1
  Se  Se234  1  0.57928463  0.75779644  0.69387088  1
  Se  Se235  1  0.92098033  0.07593286  0.19487969  1
  Se  Se236  1  0.92619510  0.07820633  0.70298922  1
  Se  Se237  1  0.91573389  0.40490366  0.19427318  1
  Se  Se238  1  0.91731190  0.41838808  0.70033137  1
  Se  Se239  1  0.91469722  0.75208793  0.18851525  1
  Se  Se240  1  0.90458907  0.75148282  0.68799743  1
  Se  Se241  1  0.08312691  0.25184312  0.19912673  1
  Se  Se242  1  0.08531959  0.25221888  0.69743951  1
  Se  Se243  1  0.08905777  0.57844877  0.18904242  1
  Se  Se244  1  0.09036432  0.57111425  0.68743863  1
  Se  Se245  1  0.08439826  0.91863515  0.19757494  1
  Se  Se246  1  0.08488509  0.90958665  0.70100192  1
  Se  Se247  1  0.42641407  0.24635261  0.18355486  1
  Se  Se248  1  0.41114906  0.24880471  0.69579784  1
  Se  Se249  1  0.41764113  0.59039322  0.19482006  1
  Se  Se250  1  0.40376957  0.60556464  0.70499344  1
  Se  Se251  1  0.41416051  0.92642314  0.19350539  1
  Se  Se252  1  0.42870629  0.90968964  0.70681150  1
  Se  Se253  1  0.75972647  0.24148784  0.18540329  1
  Se  Se254  1  0.78055031  0.23013204  0.70985686  1
  Se  Se255  1  0.76069933  0.56678842  0.19276156  1
  Se  Se256  1  0.75130816  0.57971634  0.69291462  1
  Se  Se257  1  0.75372547  0.91398806  0.18824515  1
  Se  Se258  1  0.74727864  0.92003428  0.69836218  1
