# generated using pymatgen
data_In86Cu29Se144
_symmetry_space_group_name_H-M   'P 1'
_cell_length_a   17.59315565
_cell_length_b   17.58994693
_cell_length_c   23.46573088
_cell_angle_alpha   89.99685220
_cell_angle_beta   89.99150214
_cell_angle_gamma   90.02438334
_symmetry_Int_Tables_number   1
_chemical_formula_structural   In86Cu29Se144
_chemical_formula_sum   'In86 Cu29 Se144'
_cell_volume   7261.76708025
_cell_formula_units_Z   1
loop_
 _symmetry_equiv_pos_site_id
 _symmetry_equiv_pos_as_xyz
  1  'x, y, z'
loop_
 _atom_site_type_symbol
 _atom_site_label
 _atom_site_symmetry_multiplicity
 _atom_site_fract_x
 _atom_site_fract_y
 _atom_site_fract_z
 _atom_site_occupancy
  In  In0  1  0.00409443  0.15966308  0.11587710  1
  In  In1  1  0.01147875  0.17582906  0.62777154  1
  In  In2  1  0.00269135  0.50554541  0.11699547  1
  In  In3  1  0.01463106  0.50966670  0.62135660  1
  In  In4  1  0.00073485  0.83056472  0.11690351  1
  In  In5  1  -0.01071907  0.82142054  0.61906262  1
  In  In6  1  0.33583032  0.16538306  0.11523630  1
  In  In7  1  0.33829875  0.15866105  0.63493812  1
  In  In8  1  0.33867511  0.50714062  0.12083099  1
  In  In9  1  0.32487093  0.49430500  0.62197679  1
  In  In10  1  0.33512029  0.82832119  0.12248903  1
  In  In11  1  0.33503200  0.83750464  0.62258057  1
  In  In12  1  0.65386193  0.17403034  0.13018824  1
  In  In13  1  0.65991296  0.17807797  0.62344847  1
  In  In14  1  0.66371306  0.50288200  0.12824403  1
  In  In15  1  0.66838687  0.50300749  0.61243424  1
  In  In16  1  0.66274699  0.82797437  0.13008311  1
  In  In17  1  0.66582281  0.82865447  0.61488366  1
  In  In18  1  0.15644336  -0.00748573  0.37324428  1
  In  In19  1  0.18335978  -0.00830185  0.87249965  1
  In  In20  1  0.17610810  0.34428381  0.37613028  1
  In  In21  1  0.17717679  0.32592674  0.88124807  1
  In  In22  1  0.18153324  0.65705467  0.37970835  1
  In  In23  1  0.16174206  0.67262243  0.87528049  1
  In  In24  1  0.51116475  -0.01280440  0.38185191  1
  In  In25  1  0.48484073  0.00925735  0.88512588  1
  In  In26  1  0.50404915  0.32720946  0.37912140  1
  In  In27  1  0.48879559  0.34172846  0.88272893  1
  In  In28  1  0.49647585  0.66791511  0.37214737  1
  In  In29  1  0.50038726  0.66497059  0.88576853  1
  In  In30  1  0.81393228  -0.00196958  0.37430318  1
  In  In31  1  0.81940754  -0.00612985  0.87504259  1
  In  In32  1  0.82593231  0.35140025  0.38099638  1
  In  In33  1  0.84348601  0.34861714  0.87475814  1
  In  In34  1  0.82655991  0.67175036  0.37924711  1
  In  In35  1  0.84719860  0.65856870  0.88435183  1
  In  In36  1  0.00454172  0.16538660  0.37607480  1
  In  In37  1  0.01031666  0.17634200  0.87463638  1
  In  In38  1  0.00271387  0.49663572  0.38547219  1
  In  In39  1  -0.00745996  0.51639206  0.87827298  1
  In  In40  1  0.00304540  0.82586557  0.38519532  1
  In  In41  1  0.02128408  0.81394971  0.88174463  1
  In  In42  1  0.33564173  0.18194512  0.37506859  1
  In  In43  1  0.33204756  0.16884850  0.87266011  1
  In  In44  1  0.32376410  0.51746885  0.37942052  1
  In  In45  1  0.33637411  0.49335105  0.87863931  1
  In  In46  1  0.35117036  0.81313901  0.38700710  1
  In  In47  1  0.32163289  0.84140420  0.87869859  1
  In  In48  1  0.65295440  0.15276991  0.36709511  1
  In  In49  1  0.66021111  0.15588325  0.88020656  1
  In  In50  1  0.66396178  0.50113035  0.37269064  1
  In  In51  1  0.66775800  0.50146913  0.88292803  1
  In  In52  1  0.66070142  0.83236049  0.37160180  1
  In  In53  1  0.66569148  0.83099419  0.88740586  1
  In  In54  1  0.16896096  -0.00309775  0.11245686  1
  In  In55  1  0.18466067  -0.00242869  0.63244364  1
  In  In56  1  0.17495348  0.34011639  0.11285889  1
  In  In57  1  0.17268207  0.35308564  0.63207490  1
  In  In58  1  0.17232692  0.66894634  0.11894899  1
  In  In59  1  0.15606515  0.65524111  0.62355629  1
  In  In60  1  0.50030021  -0.00285354  0.12508190  1
  In  In61  1  0.48863813  -0.01044761  0.61879266  1
  In  In62  1  0.50752367  0.34226695  0.12173398  1
  In  In63  1  0.49235492  0.32998493  0.61764203  1
  In  In64  1  0.50307943  0.66738623  0.12830358  1
  In  In65  1  0.50389717  0.66959992  0.61486527  1
  In  In66  1  0.82778155  -0.01252857  0.12215413  1
  In  In67  1  0.84414981  -0.01030749  0.62511037  1
  In  In68  1  0.81769740  0.33851123  0.12699826  1
  In  In69  1  0.84631118  0.34588184  0.61445736  1
  In  In70  1  0.82193679  0.65965967  0.12273880  1
  In  In71  1  0.83759411  0.66506817  0.62092444  1
  In  In72  1  0.66355598  0.33830953  0.75632264  1
  In  In73  1  -0.00242585  0.66775523  0.24482093  1
  In  In74  1  0.66058475  -0.00311348  0.75121675  1
  In  In75  1  0.17236008  0.16967385  0.50554036  1
  In  In76  1  0.83414317  0.17318514  -0.00604998  1
  In  In77  1  -0.00415664  0.33546426  0.25941329  1
  In  In78  1  0.66694164  0.66825493  0.74305206  1
  In  In79  1  0.01341531  0.34535284  0.74335342  1
  In  In80  1  0.00897708  -0.00752341  0.76018787  1
  In  In81  1  0.33864420  0.34231677  0.24274290  1
  In  In82  1  0.33999811  -0.00845319  0.24822800  1
  In  In83  1  -0.01077612  -0.00565828  0.23844949  1
  In  In84  1  0.32712126  0.66584652  0.74893074  1
  In  In85  1  0.82653326  0.15891718  0.50487029  1
  Cu  Cu86  1  0.48792845  0.84187169  0.75235836  1
  Cu  Cu87  1  -0.00038704  0.66341703  0.50099496  1
  Cu  Cu88  1  0.50418294  0.16145700  0.25216324  1
  Cu  Cu89  1  0.66341556  0.33271074  0.49636984  1
  Cu  Cu90  1  0.82265526  0.83731993  0.25294686  1
  Cu  Cu91  1  0.33341153  0.67060206  0.50223168  1
  Cu  Cu92  1  0.33785533  0.34249540  0.49993211  1
  Cu  Cu93  1  0.83805048  0.17424873  0.74279577  1
  Cu  Cu94  1  0.49754368  0.49877001  0.75025653  1
  Cu  Cu95  1  0.00132653  0.67346569  0.00022073  1
  Cu  Cu96  1  0.50092953  0.50186572  0.24983646  1
  Cu  Cu97  1  0.00228829  0.34304508  -0.00460548  1
  Cu  Cu98  1  0.66322124  0.33963161  0.00505797  1
  Cu  Cu99  1  0.33606817  0.32536342  -0.00103132  1
  Cu  Cu100  1  0.66630722  0.66402157  0.49159129  1
  Cu  Cu101  1  0.17513877  0.82504150  0.24830506  1
  Cu  Cu102  1  0.33778721  -0.00576329  -0.00126797  1
  Cu  Cu103  1  0.65944413  -0.00475012  0.49500427  1
  Cu  Cu104  1  0.49139163  0.16589489  0.75119682  1
  Cu  Cu105  1  0.00638468  -0.00153290  -0.00472276  1
  Cu  Cu106  1  0.82911515  0.50277464  0.25181090  1
  Cu  Cu107  1  0.33471670  0.66223277  -0.00039414  1
  Cu  Cu108  1  0.83694475  0.82092249  0.75070029  1
  Cu  Cu109  1  0.00056569  -0.00888985  0.50230462  1
  Cu  Cu110  1  0.66415894  -0.00395409  0.00544999  1
  Cu  Cu111  1  0.81999181  0.17221384  0.24969095  1
  Cu  Cu112  1  0.33382565  0.00550668  0.50201346  1
  Cu  Cu113  1  0.16250758  0.16921125  0.23916198  1
  Cu  Cu114  1  0.66560862  0.66815383  0.00822221  1
  Se  Se115  1  0.08864298  0.08501418  0.04611716  1
  Se  Se116  1  0.07919715  0.07402500  0.56076231  1
  Se  Se117  1  0.08689968  0.42378446  0.04964142  1
  Se  Se118  1  0.07870567  0.40558008  0.55913375  1
  Se  Se119  1  0.09002315  0.75431880  0.05117662  1
  Se  Se120  1  0.08334812  0.74661606  0.55403763  1
  Se  Se121  1  0.42007272  0.07785471  0.05339559  1
  Se  Se122  1  0.41601256  0.08863142  0.55592919  1
  Se  Se123  1  0.41346881  0.41229417  0.05528609  1
  Se  Se124  1  0.42077979  0.42667227  0.55319450  1
  Se  Se125  1  0.41801528  0.74391612  0.05538445  1
  Se  Se126  1  0.41766241  0.75601851  0.55288695  1
  Se  Se127  1  0.74630956  0.08611487  0.05807201  1
  Se  Se128  1  0.73598299  0.06758575  0.56563729  1
  Se  Se129  1  0.74869299  0.42395944  0.05460349  1
  Se  Se130  1  0.75004716  0.41353845  0.54829092  1
  Se  Se131  1  0.75132765  0.75493471  0.05675039  1
  Se  Se132  1  0.74909858  0.74245456  0.55183467  1
  Se  Se133  1  0.24697847  0.24335784  0.04940582  1
  Se  Se134  1  0.26145897  0.26003825  0.56371751  1
  Se  Se135  1  0.24847636  0.57937350  0.05070978  1
  Se  Se136  1  0.25036386  0.58528479  0.55460094  1
  Se  Se137  1  0.25374004  0.91001526  0.05126609  1
  Se  Se138  1  0.25053572  0.92024041  0.55274367  1
  Se  Se139  1  0.58101676  0.25016740  0.05265395  1
  Se  Se140  1  0.57978335  0.24950243  0.54932496  1
  Se  Se141  1  0.58071169  0.58094781  0.05676028  1
  Se  Se142  1  0.58150330  0.58295063  0.54677101  1
  Se  Se143  1  0.58269400  0.91147052  0.05836615  1
  Se  Se144  1  0.57829283  0.91248109  0.55205845  1
  Se  Se145  1  0.92117760  0.26334141  0.05836303  1
  Se  Se146  1  0.92843445  0.24920071  0.55182790  1
  Se  Se147  1  0.91703567  0.59089516  0.05444448  1
  Se  Se148  1  0.91776715  0.57807989  0.55381103  1
  Se  Se149  1  0.92153659  0.92222390  0.05276586  1
  Se  Se150  1  0.90994963  0.90862959  0.54883734  1
  Se  Se151  1  0.08337437  0.25721422  0.44084753  1
  Se  Se152  1  0.08443982  0.25134875  0.95036520  1
  Se  Se153  1  0.08719935  0.58480543  0.44709616  1
  Se  Se154  1  0.08357598  0.58860432  0.94733532  1
  Se  Se155  1  0.08803020  0.91232581  0.44955913  1
  Se  Se156  1  0.09036027  0.91774914  0.94111708  1
  Se  Se157  1  0.41632363  0.25120644  0.45017560  1
  Se  Se158  1  0.42025761  0.24201798  0.94621713  1
  Se  Se159  1  0.41675494  0.58793772  0.44701444  1
  Se  Se160  1  0.41840908  0.57621658  0.94849976  1
  Se  Se161  1  0.41472754  0.91915050  0.44823858  1
  Se  Se162  1  0.41935608  0.90627039  0.94741722  1
  Se  Se163  1  0.74250880  0.24556610  0.43798776  1
  Se  Se164  1  0.74006077  0.26440719  0.93646056  1
  Se  Se165  1  0.75172560  0.57716937  0.44374606  1
  Se  Se166  1  0.74778062  0.58899940  0.94872721  1
  Se  Se167  1  0.74557870  0.91138105  0.44578812  1
  Se  Se168  1  0.75121436  0.91623204  0.95280704  1
  Se  Se169  1  0.25338817  0.07930317  0.43637868  1
  Se  Se170  1  0.25672958  0.07898437  0.94333271  1
  Se  Se171  1  0.25083142  0.42393279  0.44891484  1
  Se  Se172  1  0.25343686  0.41427444  0.95026326  1
  Se  Se173  1  0.24550890  0.75286845  0.45001769  1
  Se  Se174  1  0.25172094  0.74561700  0.94536399  1
  Se  Se175  1  0.57827702  0.08679627  0.44868075  1
  Se  Se176  1  0.58086620  0.08039303  0.95233702  1
  Se  Se177  1  0.58196247  0.41863573  0.44388317  1
  Se  Se178  1  0.58024924  0.42016644  0.94768162  1
  Se  Se179  1  0.58095512  0.74950133  0.44242707  1
  Se  Se180  1  0.58071772  0.74977272  0.95366013  1
  Se  Se181  1  0.92175123  0.07306186  0.44117671  1
  Se  Se182  1  0.92304445  0.07728686  0.93533846  1
  Se  Se183  1  0.92178903  0.40940385  0.44945017  1
  Se  Se184  1  0.91414928  0.42785381  0.94963760  1
  Se  Se185  1  0.91381079  0.74712585  0.44934795  1
  Se  Se186  1  0.91603006  0.75829738  0.94819839  1
  Se  Se187  1  0.24114414  0.24768193  0.30040385  1
  Se  Se188  1  0.26304045  0.26350398  0.80542337  1
  Se  Se189  1  0.25170032  0.58654669  0.29966310  1
  Se  Se190  1  0.24487825  0.57532246  0.81193642  1
  Se  Se191  1  0.24762041  0.90797272  0.31105763  1
  Se  Se192  1  0.24653739  0.90466363  0.79761508  1
  Se  Se193  1  0.58244267  0.25231593  0.30339164  1
  Se  Se194  1  0.57539009  0.24177560  0.81168384  1
  Se  Se195  1  0.58297397  0.58543286  0.30433300  1
  Se  Se196  1  0.57826269  0.57982958  0.80793970  1
  Se  Se197  1  0.58685761  0.92323974  0.30325691  1
  Se  Se198  1  0.57441703  0.91101537  0.81544249  1
  Se  Se199  1  0.90283378  0.24083057  0.31409969  1
  Se  Se200  1  0.91502357  0.25120249  0.80518537  1
  Se  Se201  1  0.91466774  0.57740426  0.31115767  1
  Se  Se202  1  0.91253223  0.58799742  0.80275526  1
  Se  Se203  1  0.91243528  0.90958616  0.31173890  1
  Se  Se204  1  0.90794986  0.90677275  0.81243515  1
  Se  Se205  1  0.08437459  0.08671208  0.29825819  1
  Se  Se206  1  0.09721896  0.09248929  0.80914349  1
  Se  Se207  1  0.09263734  0.42954622  0.30656378  1
  Se  Se208  1  0.08626778  0.42114062  0.82126013  1
  Se  Se209  1  0.08789072  0.75327899  0.30877169  1
  Se  Se210  1  0.08191788  0.74404037  0.79867830  1
  Se  Se211  1  0.41881142  0.08804151  0.31257667  1
  Se  Se212  1  0.41324348  0.07882465  0.80472173  1
  Se  Se213  1  0.42052579  0.42378939  0.31316299  1
  Se  Se214  1  0.41680143  0.41561231  0.80381184  1
  Se  Se215  1  0.41092558  0.74639467  0.30254103  1
  Se  Se216  1  0.42100427  0.75026969  0.81191819  1
  Se  Se217  1  0.74426880  0.07895019  0.29901005  1
  Se  Se218  1  0.75678984  0.09540556  0.80276065  1
  Se  Se219  1  0.74652720  0.41585765  0.30247213  1
  Se  Se220  1  0.75830540  0.43271817  0.80582017  1
  Se  Se221  1  0.74725089  0.74681896  0.30533461  1
  Se  Se222  1  0.75014382  0.75153624  0.81294912  1
  Se  Se223  1  0.24651301  0.08434667  0.18827561  1
  Se  Se224  1  0.24659508  0.08854256  0.70287038  1
  Se  Se225  1  0.24047860  0.42729104  0.18980721  1
  Se  Se226  1  0.25697231  0.42462150  0.70352419  1
  Se  Se227  1  0.25470083  0.74439111  0.19248256  1
  Se  Se228  1  0.24192625  0.75373671  0.68618848  1
  Se  Se229  1  0.58291236  0.07813024  0.19568102  1
  Se  Se230  1  0.57484959  0.08940124  0.69051545  1
  Se  Se231  1  0.58372055  0.41602542  0.19818892  1
  Se  Se232  1  0.57999582  0.42335336  0.68787410  1
  Se  Se233  1  0.59731445  0.73269364  0.19857975  1
  Se  Se234  1  0.57105374  0.76425039  0.69235506  1
  Se  Se235  1  0.90231072  0.09761432  0.18704045  1
  Se  Se236  1  0.91882686  0.08736649  0.69171093  1
  Se  Se237  1  0.91238743  0.42471784  0.19197537  1
  Se  Se238  1  0.91193693  0.42863572  0.69176665  1
  Se  Se239  1  0.90600973  0.76236925  0.19064434  1
  Se  Se240  1  0.91825929  0.74049238  0.69570917  1
  Se  Se241  1  0.08133549  0.25319727  0.18572349  1
  Se  Se242  1  0.10483940  0.24340762  0.69714673  1
  Se  Se243  1  0.09066446  0.57796067  0.19046973  1
  Se  Se244  1  0.08809521  0.57675809  0.70139913  1
  Se  Se245  1  0.09438629  0.90793103  0.19004719  1
  Se  Se246  1  0.08074312  0.91060277  0.68485249  1
  Se  Se247  1  0.42385406  0.24052132  0.19027738  1
  Se  Se248  1  0.41868902  0.25530538  0.69545240  1
  Se  Se249  1  0.41664787  0.58229283  0.19567375  1
  Se  Se250  1  0.42560433  0.58344778  0.68823684  1
  Se  Se251  1  0.43072015  0.89872987  0.19513753  1
  Se  Se252  1  0.40778793  0.92331800  0.69718301  1
  Se  Se253  1  0.73964365  0.25714037  0.19705135  1
  Se  Se254  1  0.75749011  0.25624105  0.68761748  1
  Se  Se255  1  0.74600160  0.58580004  0.19914978  1
  Se  Se256  1  0.75433661  0.57261733  0.68931687  1
  Se  Se257  1  0.74403710  0.92070787  0.19664006  1
  Se  Se258  1  0.75510515  0.90445379  0.69361946  1
