# generated using pymatgen
data_In86Cu29Se144
_symmetry_space_group_name_H-M   'P 1'
_cell_length_a   17.57989080
_cell_length_b   17.57724196
_cell_length_c   23.43868490
_cell_angle_alpha   90.02066608
_cell_angle_beta   89.98864717
_cell_angle_gamma   89.97182060
_symmetry_Int_Tables_number   1
_chemical_formula_structural   In86Cu29Se144
_chemical_formula_sum   'In86 Cu29 Se144'
_cell_volume   7242.69263878
_cell_formula_units_Z   1
loop_
 _symmetry_equiv_pos_site_id
 _symmetry_equiv_pos_as_xyz
  1  'x, y, z'
loop_
 _atom_site_type_symbol
 _atom_site_label
 _atom_site_symmetry_multiplicity
 _atom_site_fract_x
 _atom_site_fract_y
 _atom_site_fract_z
 _atom_site_occupancy
  In  In0  1  -0.00540536  0.18105871  0.12370596  1
  In  In1  1  0.00186027  0.16814090  0.62534267  1
  In  In2  1  0.01673618  0.50617819  0.12358137  1
  In  In3  1  -0.00376892  0.50065479  0.62473804  1
  In  In4  1  -0.01346820  0.82224210  0.11831197  1
  In  In5  1  0.00669072  0.82882881  0.63588361  1
  In  In6  1  0.33907920  0.14566138  0.12516806  1
  In  In7  1  0.33950525  0.17681520  0.62212173  1
  In  In8  1  0.32364410  0.50936605  0.12163116  1
  In  In9  1  0.32244178  0.51552762  0.63652446  1
  In  In10  1  0.34977394  0.85617780  0.10077021  1
  In  In11  1  0.33425814  0.82369200  0.63152844  1
  In  In12  1  0.66137165  0.16385455  0.12288667  1
  In  In13  1  0.66415533  0.17072780  0.61572254  1
  In  In14  1  0.66186154  0.49491500  0.12966961  1
  In  In15  1  0.67950094  0.50082583  0.62390393  1
  In  In16  1  0.67748211  0.84417342  0.11873301  1
  In  In17  1  0.65433501  0.83170885  0.62595604  1
  In  In18  1  0.18132648  -0.00880780  0.37346653  1
  In  In19  1  0.15275524  0.00414062  0.87695008  1
  In  In20  1  0.15650235  0.33843155  0.38705122  1
  In  In21  1  0.17695613  0.34506698  0.86731788  1
  In  In22  1  0.15867762  0.66203514  0.37548173  1
  In  In23  1  0.16671715  0.66655717  0.87458453  1
  In  In24  1  0.50200541  0.00004435  0.37282008  1
  In  In25  1  0.50220475  -0.00648175  0.88562656  1
  In  In26  1  0.49977689  0.31146691  0.37566504  1
  In  In27  1  0.48929253  0.33448993  0.87677915  1
  In  In28  1  0.51360763  0.67304530  0.38048115  1
  In  In29  1  0.50624524  0.68125856  0.85464661  1
  In  In30  1  0.83913541  0.01056037  0.37297613  1
  In  In31  1  0.83662777  -0.00404445  0.88189984  1
  In  In32  1  0.83103227  0.33761431  0.37742029  1
  In  In33  1  0.83276555  0.31757125  0.87469227  1
  In  In34  1  0.83822144  0.65053572  0.37987869  1
  In  In35  1  0.84133204  0.67304535  0.86806858  1
  In  In36  1  -0.00711920  0.17165933  0.38697358  1
  In  In37  1  -0.00505656  0.15964060  0.86795118  1
  In  In38  1  0.00214972  0.50566796  0.38296718  1
  In  In39  1  0.01245795  0.51132710  0.86483226  1
  In  In40  1  0.00670311  0.82669751  0.36949620  1
  In  In41  1  -0.00246150  0.83384891  0.87671285  1
  In  In42  1  0.34311288  0.15639712  0.38303424  1
  In  In43  1  0.32901264  0.17639224  0.87666328  1
  In  In44  1  0.32465962  0.49868661  0.38224936  1
  In  In45  1  0.33069636  0.49262023  0.86520877  1
  In  In46  1  0.33392070  0.84893913  0.37375011  1
  In  In47  1  0.34600256  0.82029765  0.88609970  1
  In  In48  1  0.66892185  0.16277310  0.37140360  1
  In  In49  1  0.67323996  0.16850087  0.88895275  1
  In  In50  1  0.68446833  0.49887275  0.37466306  1
  In  In51  1  0.64624200  0.50443998  0.86963095  1
  In  In52  1  0.65388797  0.82997475  0.37434034  1
  In  In53  1  0.66635433  0.83099731  0.87944110  1
  In  In54  1  0.18234699  -0.00179155  0.12407397  1
  In  In55  1  0.15459071  -0.00384213  0.62917792  1
  In  In56  1  0.15754723  0.33982727  0.12183664  1
  In  In57  1  0.16488821  0.33503110  0.62574390  1
  In  In58  1  0.15884823  0.66965231  0.11808800  1
  In  In59  1  0.16512642  0.66109906  0.62810685  1
  In  In60  1  0.50215772  0.00386508  0.12114618  1
  In  In61  1  0.49632436  0.00120182  0.61979930  1
  In  In62  1  0.51743169  0.32768633  0.12475180  1
  In  In63  1  0.49940000  0.32320307  0.62589078  1
  In  In64  1  0.48751676  0.66934567  0.12078975  1
  In  In65  1  0.48639093  0.68076511  0.64390565  1
  In  In66  1  0.81699009  -0.01469886  0.12298011  1
  In  In67  1  0.83246285  0.01405725  0.62209558  1
  In  In68  1  0.82680808  0.31905500  0.11639795  1
  In  In69  1  0.83929752  0.34448377  0.61770264  1
  In  In70  1  0.83818958  0.68967092  0.12466464  1
  In  In71  1  0.84601478  0.65444384  0.63468973  1
  In  In72  1  0.32917813  0.67354654  0.24878860  1
  In  In73  1  0.16729935  0.16662420  0.00091313  1
  In  In74  1  0.83448923  0.83227650  0.49453802  1
  In  In75  1  0.17252423  0.83140847  0.50642779  1
  In  In76  1  0.32832623  -0.00409394  0.75374751  1
  In  In77  1  0.00004228  -0.00363592  0.25013681  1
  In  In78  1  0.67140268  -0.00603258  0.75856376  1
  In  In79  1  0.83281964  0.50189886  -0.00319917  1
  In  In80  1  0.66580382  0.33678184  0.75063892  1
  In  In81  1  -0.00429280  0.33897354  0.25464976  1
  In  In82  1  0.50391881  0.49795677  0.50965514  1
  In  In83  1  0.49153072  0.50056704  -0.00876048  1
  In  In84  1  0.67354644  0.66813966  0.24919124  1
  In  In85  1  0.33015491  0.32891233  0.24907851  1
  Cu  Cu86  1  0.32564045  0.66656452  -0.00444652  1
  Cu  Cu87  1  0.16682404  0.17445001  0.75064236  1
  Cu  Cu88  1  0.33703385  0.66962988  0.51015998  1
  Cu  Cu89  1  0.66060146  0.00624486  0.49831427  1
  Cu  Cu90  1  0.32494402  0.33315909  0.50313532  1
  Cu  Cu91  1  0.16084582  0.49801117  0.74722916  1
  Cu  Cu92  1  0.84034223  0.49431346  0.25162024  1
  Cu  Cu93  1  0.83596086  0.49899474  0.74773864  1
  Cu  Cu94  1  0.16235370  0.82998188  0.75543626  1
  Cu  Cu95  1  0.66516259  0.32887890  0.49596806  1
  Cu  Cu96  1  0.50506980  0.15554528  0.25104467  1
  Cu  Cu97  1  0.50251223  0.48798903  0.25132218  1
  Cu  Cu98  1  0.66548334  0.00082011  0.00209064  1
  Cu  Cu99  1  0.83424163  0.83493020  0.75652600  1
  Cu  Cu100  1  0.50155180  0.84092013  0.24339919  1
  Cu  Cu101  1  0.84254976  0.16877591  0.74623385  1
  Cu  Cu102  1  0.17395643  0.83117840  0.24478124  1
  Cu  Cu103  1  0.17166885  0.16221786  0.25709857  1
  Cu  Cu104  1  0.00069990  0.00334655  0.50330331  1
  Cu  Cu105  1  0.82258655  0.16028228  0.24451542  1
  Cu  Cu106  1  0.50110665  0.16353255  0.74872331  1
  Cu  Cu107  1  -0.00552825  0.00123863  -0.00037433  1
  Cu  Cu108  1  -0.00028468  0.67115833  -0.00731523  1
  Cu  Cu109  1  0.66167356  0.67063111  -0.00439640  1
  Cu  Cu110  1  0.66848136  0.67076396  0.50217834  1
  Cu  Cu111  1  0.00257380  0.33663775  -0.00533081  1
  Cu  Cu112  1  0.33903797  0.00728360  0.49787410  1
  Cu  Cu113  1  0.00023837  0.33199558  0.50599493  1
  Cu  Cu114  1  0.33261846  0.33471086  -0.00346208  1
  Se  Se115  1  0.07472065  0.07924037  0.06314720  1
  Se  Se116  1  0.08673188  0.08341904  0.55626351  1
  Se  Se117  1  0.08462590  0.42047905  0.04764110  1
  Se  Se118  1  0.08259092  0.41840078  0.55685342  1
  Se  Se119  1  0.08071392  0.75534439  0.04849497  1
  Se  Se120  1  0.07425189  0.74322438  0.55764285  1
  Se  Se121  1  0.41587272  0.07798061  0.04896114  1
  Se  Se122  1  0.42018055  0.09086248  0.55353792  1
  Se  Se123  1  0.41108810  0.41203627  0.06298181  1
  Se  Se124  1  0.40510777  0.41329386  0.56455602  1
  Se  Se125  1  0.41747366  0.74688105  0.04453178  1
  Se  Se126  1  0.42223295  0.75336250  0.55919763  1
  Se  Se127  1  0.75087229  0.08247402  0.05589985  1
  Se  Se128  1  0.74863909  0.08674571  0.54959960  1
  Se  Se129  1  0.73929721  0.41320573  0.05451010  1
  Se  Se130  1  0.74632635  0.41507582  0.54874233  1
  Se  Se131  1  0.74808132  0.74997413  0.04964909  1
  Se  Se132  1  0.75153593  0.74768852  0.56334026  1
  Se  Se133  1  0.25818056  0.25584459  0.06385110  1
  Se  Se134  1  0.24390955  0.24699438  0.55594276  1
  Se  Se135  1  0.24315112  0.58410187  0.04967345  1
  Se  Se136  1  0.24939478  0.58498729  0.55538217  1
  Se  Se137  1  0.23908809  0.91634359  0.04461578  1
  Se  Se138  1  0.26225301  0.92716389  0.56316976  1
  Se  Se139  1  0.57885161  0.24213324  0.05079620  1
  Se  Se140  1  0.57718826  0.25075560  0.54871618  1
  Se  Se141  1  0.58664685  0.58711321  0.05696930  1
  Se  Se142  1  0.58712861  0.59568358  0.56618165  1
  Se  Se143  1  0.58216193  0.91397579  0.05290678  1
  Se  Se144  1  0.58429365  0.91994456  0.55418175  1
  Se  Se145  1  0.91904880  0.25170139  0.04532631  1
  Se  Se146  1  0.91445381  0.24699366  0.55558122  1
  Se  Se147  1  0.92179830  0.59188626  0.05772036  1
  Se  Se148  1  0.90719781  0.57565339  0.55514195  1
  Se  Se149  1  0.91189864  0.91733194  0.05390592  1
  Se  Se150  1  0.92390094  0.91733413  0.56145713  1
  Se  Se151  1  0.08349859  0.24585677  0.45348553  1
  Se  Se152  1  0.08400965  0.25525557  0.93510545  1
  Se  Se153  1  0.09254968  0.58035925  0.45042176  1
  Se  Se154  1  0.08349739  0.58287153  0.94527059  1
  Se  Se155  1  0.07937675  0.92037924  0.44296349  1
  Se  Se156  1  0.07833181  0.91842088  0.94748025  1
  Se  Se157  1  0.41215530  0.25118068  0.45164267  1
  Se  Se158  1  0.41652448  0.24810892  0.94873806  1
  Se  Se159  1  0.41552562  0.59071485  0.44467214  1
  Se  Se160  1  0.40853363  0.59347481  0.93138855  1
  Se  Se161  1  0.41952100  0.91888841  0.44604620  1
  Se  Se162  1  0.41268590  0.91806945  0.95090374  1
  Se  Se163  1  0.74989963  0.24775872  0.44140410  1
  Se  Se164  1  0.75608664  0.25295645  0.95344565  1
  Se  Se165  1  0.74889540  0.58208691  0.45205752  1
  Se  Se166  1  0.73992155  0.58876443  0.93559152  1
  Se  Se167  1  0.74196253  0.92488677  0.43846012  1
  Se  Se168  1  0.74745750  0.91647117  0.94685416  1
  Se  Se169  1  0.24566124  0.08122057  0.44638212  1
  Se  Se170  1  0.25587699  0.07633101  0.94154549  1
  Se  Se171  1  0.24402559  0.42069765  0.45271978  1
  Se  Se172  1  0.25229804  0.42061677  0.94440271  1
  Se  Se173  1  0.26206983  0.74601281  0.44063783  1
  Se  Se174  1  0.24113727  0.75330507  0.94641745  1
  Se  Se175  1  0.57966447  0.08825777  0.44176114  1
  Se  Se176  1  0.58260280  0.08437207  0.94905129  1
  Se  Se177  1  0.58539958  0.41353627  0.43708223  1
  Se  Se178  1  0.59048440  0.40647533  0.94409939  1
  Se  Se179  1  0.58270424  0.75633597  0.45479463  1
  Se  Se180  1  0.57369506  0.74670238  0.94092787  1
  Se  Se181  1  0.91174462  0.08279060  0.45208539  1
  Se  Se182  1  0.91650808  0.08898120  0.94585446  1
  Se  Se183  1  0.92103986  0.41233981  0.44458869  1
  Se  Se184  1  0.92350838  0.41715189  0.93346093  1
  Se  Se185  1  0.93045839  0.74025816  0.44290395  1
  Se  Se186  1  0.90967668  0.75329702  0.94561926  1
  Se  Se187  1  0.24427981  0.24683026  0.31824235  1
  Se  Se188  1  0.25589836  0.25408253  0.80090769  1
  Se  Se189  1  0.24592132  0.57584711  0.30557545  1
  Se  Se190  1  0.24358433  0.58042267  0.80328026  1
  Se  Se191  1  0.25618007  0.91803943  0.29539582  1
  Se  Se192  1  0.24166624  0.90898713  0.81667548  1
  Se  Se193  1  0.58511010  0.24587386  0.30098247  1
  Se  Se194  1  0.58298526  0.24007737  0.81126303  1
  Se  Se195  1  0.58013696  0.57517851  0.30880744  1
  Se  Se196  1  0.57598441  0.58019803  0.79376244  1
  Se  Se197  1  0.58503530  0.91724763  0.30206107  1
  Se  Se198  1  0.57103352  0.90715636  0.80802443  1
  Se  Se199  1  0.90759497  0.23727800  0.30527645  1
  Se  Se200  1  0.92176475  0.25424732  0.80048744  1
  Se  Se201  1  0.92091500  0.57780677  0.30570228  1
  Se  Se202  1  0.91832024  0.58584427  0.79985325  1
  Se  Se203  1  0.90873791  0.90615498  0.30822513  1
  Se  Se204  1  0.91673523  0.92131851  0.80723234  1
  Se  Se205  1  0.08434099  0.08769975  0.31559279  1
  Se  Se206  1  0.08533323  0.08485454  0.79944890  1
  Se  Se207  1  0.09209435  0.42509229  0.30829613  1
  Se  Se208  1  0.07954582  0.41135413  0.79993708  1
  Se  Se209  1  0.09302516  0.75010093  0.30069185  1
  Se  Se210  1  0.07703228  0.74712940  0.80770989  1
  Se  Se211  1  0.41378388  0.08029385  0.30420025  1
  Se  Se212  1  0.42278495  0.08613360  0.81191614  1
  Se  Se213  1  0.41949665  0.41767830  0.31439553  1
  Se  Se214  1  0.42720372  0.41883553  0.80198177  1
  Se  Se215  1  0.42888911  0.75690755  0.30790692  1
  Se  Se216  1  0.40145373  0.75251600  0.79865709  1
  Se  Se217  1  0.74725744  0.07507014  0.30134510  1
  Se  Se218  1  0.75903335  0.09470867  0.80944515  1
  Se  Se219  1  0.75243540  0.41237768  0.30057683  1
  Se  Se220  1  0.75661973  0.42464088  0.81321935  1
  Se  Se221  1  0.75885390  0.75082330  0.31631509  1
  Se  Se222  1  0.74680628  0.75267585  0.80608118  1
  Se  Se223  1  0.25143350  0.08140375  0.20036516  1
  Se  Se224  1  0.24589158  0.08993687  0.69058506  1
  Se  Se225  1  0.24083326  0.42406511  0.19341870  1
  Se  Se226  1  0.24841690  0.41534443  0.69669365  1
  Se  Se227  1  0.25537914  0.76115799  0.17798874  1
  Se  Se228  1  0.24304417  0.74932037  0.69706753  1
  Se  Se229  1  0.58813747  0.07575205  0.19475461  1
  Se  Se230  1  0.58486638  0.08537015  0.69198558  1
  Se  Se231  1  0.58939735  0.40833081  0.20095110  1
  Se  Se232  1  0.57856349  0.42295826  0.68722281  1
  Se  Se233  1  0.57778915  0.75166081  0.18736707  1
  Se  Se234  1  0.59009625  0.75069755  0.70241218  1
  Se  Se235  1  0.91264141  0.08708225  0.18710084  1
  Se  Se236  1  0.92119220  0.07990946  0.69476642  1
  Se  Se237  1  0.91235461  0.41859994  0.18133211  1
  Se  Se238  1  0.91737729  0.41316645  0.69583137  1
  Se  Se239  1  0.92290333  0.74950818  0.20109251  1
  Se  Se240  1  0.91629607  0.75079330  0.70079688  1
  Se  Se241  1  0.09229040  0.24415593  0.19785653  1
  Se  Se242  1  0.08095627  0.25281997  0.69542381  1
  Se  Se243  1  0.08868810  0.58942234  0.19465169  1
  Se  Se244  1  0.07724009  0.58377854  0.69601143  1
  Se  Se245  1  0.08863356  0.91055369  0.18659391  1
  Se  Se246  1  0.08121055  0.91827017  0.70466011  1
  Se  Se247  1  0.42441346  0.24000332  0.19201569  1
  Se  Se248  1  0.41698131  0.24948449  0.70004315  1
  Se  Se249  1  0.42352440  0.57290529  0.19520267  1
  Se  Se250  1  0.41719825  0.58101164  0.70391698  1
  Se  Se251  1  0.41522594  0.91798962  0.18852135  1
  Se  Se252  1  0.42548153  0.91263899  0.69491244  1
  Se  Se253  1  0.74559073  0.24980185  0.19215270  1
  Se  Se254  1  0.75444393  0.24602085  0.68908234  1
  Se  Se255  1  0.76358513  0.57692160  0.18764657  1
  Se  Se256  1  0.74831703  0.58318867  0.70013722  1
  Se  Se257  1  0.75140212  0.90596424  0.20071783  1
  Se  Se258  1  0.75900122  0.91233293  0.68934104  1
