# generated using pymatgen
data_In86Cu29Se144
_symmetry_space_group_name_H-M   'P 1'
_cell_length_a   17.57770643
_cell_length_b   17.57548565
_cell_length_c   23.43533539
_cell_angle_alpha   90.01129614
_cell_angle_beta   90.01726955
_cell_angle_gamma   90.01082921
_symmetry_Int_Tables_number   1
_chemical_formula_structural   In86Cu29Se144
_chemical_formula_sum   'In86 Cu29 Se144'
_cell_volume   7240.03521767
_cell_formula_units_Z   1
loop_
 _symmetry_equiv_pos_site_id
 _symmetry_equiv_pos_as_xyz
  1  'x, y, z'
loop_
 _atom_site_type_symbol
 _atom_site_label
 _atom_site_symmetry_multiplicity
 _atom_site_fract_x
 _atom_site_fract_y
 _atom_site_fract_z
 _atom_site_occupancy
  In  In0  1  -0.01174402  0.17737692  0.13342639  1
  In  In1  1  -0.00462330  0.14774527  0.62136711  1
  In  In2  1  -0.01369135  0.51227060  0.13566929  1
  In  In3  1  -0.00815529  0.51448531  0.61863402  1
  In  In4  1  -0.00158634  0.83314041  0.12621837  1
  In  In5  1  0.00319239  0.82945131  0.62212234  1
  In  In6  1  0.33467321  0.16703752  0.12928660  1
  In  In7  1  0.33849497  0.17467246  0.61388403  1
  In  In8  1  0.34680961  0.48324223  0.13635397  1
  In  In9  1  0.33928947  0.48537769  0.62016208  1
  In  In10  1  0.34327190  0.84138293  0.12149618  1
  In  In11  1  0.33350429  0.83409795  0.61576842  1
  In  In12  1  0.67744271  0.16353679  0.11349141  1
  In  In13  1  0.66115274  0.15930142  0.62456265  1
  In  In14  1  0.66180714  0.49753890  0.12997008  1
  In  In15  1  0.66665752  0.49499955  0.61104988  1
  In  In16  1  0.65605863  0.83468380  0.11773161  1
  In  In17  1  0.66918426  0.84661376  0.62428947  1
  In  In18  1  0.16740312  0.00076627  0.37194964  1
  In  In19  1  0.15191184  -0.00040587  0.87379687  1
  In  In20  1  0.16005773  0.32315535  0.36756928  1
  In  In21  1  0.16570085  0.33178931  0.87578927  1
  In  In22  1  0.17035664  0.68326967  0.37495184  1
  In  In23  1  0.17589066  0.67080741  0.87779447  1
  In  In24  1  0.49034469  0.01334315  0.37981381  1
  In  In25  1  0.52408586  -0.01719366  0.89992218  1
  In  In26  1  0.49899049  0.33654601  0.36413415  1
  In  In27  1  0.50979197  0.31538528  0.89056927  1
  In  In28  1  0.50940918  0.65819369  0.37685723  1
  In  In29  1  0.50487431  0.66547720  0.88738024  1
  In  In30  1  0.83957112  -0.01640245  0.36531353  1
  In  In31  1  0.83797784  -0.00173397  0.88044525  1
  In  In32  1  0.83457230  0.34160500  0.36826747  1
  In  In33  1  0.82230332  0.33836161  0.88967218  1
  In  In34  1  0.81481883  0.66131501  0.35508842  1
  In  In35  1  0.82953971  0.67107594  0.88807855  1
  In  In36  1  0.00516322  0.17318906  0.36828387  1
  In  In37  1  0.00720783  0.15105717  0.87666456  1
  In  In38  1  -0.01187757  0.49498190  0.36649055  1
  In  In39  1  -0.00447444  0.48899999  0.87956988  1
  In  In40  1  0.00152711  0.84173105  0.36196907  1
  In  In41  1  -0.01615665  0.85107575  0.89334532  1
  In  In42  1  0.33314654  0.16558193  0.36970452  1
  In  In43  1  0.35629687  0.16844027  0.87841212  1
  In  In44  1  0.35483515  0.49490356  0.36899604  1
  In  In45  1  0.33756626  0.50600865  0.88031567  1
  In  In46  1  0.32487558  0.84605473  0.37904824  1
  In  In47  1  0.33286209  0.83203644  0.88794866  1
  In  In48  1  0.65124700  0.17242017  0.37709180  1
  In  In49  1  0.67884669  0.14770346  0.89823012  1
  In  In50  1  0.65954993  0.50175527  0.36370813  1
  In  In51  1  0.66584646  0.49899193  0.88461461  1
  In  In52  1  0.66391143  0.81276134  0.36824106  1
  In  In53  1  0.67559959  0.84266776  0.88622510  1
  In  In54  1  0.17455048  -0.00588300  0.12972074  1
  In  In55  1  0.15680125  -0.01021322  0.61723412  1
  In  In56  1  0.16518593  0.32996463  0.13619079  1
  In  In57  1  0.18093156  0.33126202  0.61816363  1
  In  In58  1  0.15206595  0.66744793  0.12767359  1
  In  In59  1  0.15283438  0.67270572  0.61894143  1
  In  In60  1  0.49553382  -0.00560416  0.11974574  1
  In  In61  1  0.50417132  0.00623000  0.61882091  1
  In  In62  1  0.50268576  0.33746382  0.12878499  1
  In  In63  1  0.50399186  0.32509062  0.60884620  1
  In  In64  1  0.51047458  0.67137111  0.12662823  1
  In  In65  1  0.50344665  0.66652493  0.61718787  1
  In  In66  1  0.83281235  0.00984113  0.11659175  1
  In  In67  1  0.83449996  -0.00898419  0.64038056  1
  In  In68  1  0.82761681  0.33406881  0.12810595  1
  In  In69  1  0.82100981  0.33760410  0.61795891  1
  In  In70  1  0.83294196  0.66983026  0.12687185  1
  In  In71  1  0.84077733  0.66199703  0.61992048  1
  In  In72  1  0.83143330  0.16821289  0.49487998  1
  In  In73  1  0.00034572  0.67236562  0.74699577  1
  In  In74  1  0.17075350  0.16343483  0.00087257  1
  In  In75  1  0.33040397  0.66820024  0.75772812  1
  In  In76  1  0.16584921  0.50565341  0.00801486  1
  In  In77  1  0.83062352  0.82718144  0.49538890  1
  In  In78  1  0.66827401  -0.00029121  0.24701203  1
  In  In79  1  0.66991304  0.67303422  0.76169746  1
  In  In80  1  0.33510691  0.32977936  0.74564751  1
  In  In81  1  0.33267647  0.00218318  0.74803159  1
  In  In82  1  0.17021988  0.50343245  0.50077815  1
  In  In83  1  0.33653650  0.66644892  0.25119138  1
  In  In84  1  0.66522107  0.32980968  0.74524321  1
  In  In85  1  -0.00151707  0.32584494  0.75355858  1
  Cu  Cu86  1  0.50779674  0.84023038  0.75647296  1
  Cu  Cu87  1  0.15859292  0.83531642  0.74901562  1
  Cu  Cu88  1  -0.00340979  0.67069420  0.00846438  1
  Cu  Cu89  1  0.83428944  0.50527389  0.74767304  1
  Cu  Cu90  1  0.16487980  0.83739367  0.25002432  1
  Cu  Cu91  1  0.16582933  0.16283906  0.74613302  1
  Cu  Cu92  1  0.33759461  0.66642193  0.00746114  1
  Cu  Cu93  1  0.49768842  0.16899897  0.24961491  1
  Cu  Cu94  1  0.83054559  0.16708240  0.24767749  1
  Cu  Cu95  1  0.67042776  0.66174332  0.00734635  1
  Cu  Cu96  1  0.00213617  0.33199339  0.49004064  1
  Cu  Cu97  1  0.66276942  -0.00029457  0.49958262  1
  Cu  Cu98  1  0.33257074  0.00366492  0.49679135  1
  Cu  Cu99  1  -0.00314044  0.67084901  0.49319070  1
  Cu  Cu100  1  0.49196001  0.49330301  0.75045429  1
  Cu  Cu101  1  0.33271812  0.00011555  0.00555715  1
  Cu  Cu102  1  0.16507575  0.15969573  0.24956721  1
  Cu  Cu103  1  0.33718190  0.33035029  0.48891216  1
  Cu  Cu104  1  0.83467450  0.15851246  0.76009977  1
  Cu  Cu105  1  0.00187806  0.00032950  0.00408546  1
  Cu  Cu106  1  0.49878318  0.83677188  0.24817852  1
  Cu  Cu107  1  0.51195939  0.15544929  0.75118279  1
  Cu  Cu108  1  0.66060296  0.65905624  0.49037293  1
  Cu  Cu109  1  0.66294663  0.33728162  0.01046664  1
  Cu  Cu110  1  0.82910504  0.49903344  0.24457427  1
  Cu  Cu111  1  -0.00951635  0.33500794  0.00903786  1
  Cu  Cu112  1  0.33962158  0.67045396  0.49306881  1
  Cu  Cu113  1  0.00686550  -0.00395690  0.49401352  1
  Cu  Cu114  1  0.16521325  0.49625799  0.25319884  1
  Se  Se115  1  0.07845099  0.08362098  0.06529336  1
  Se  Se116  1  0.08512713  0.08339917  0.54847849  1
  Se  Se117  1  0.07514779  0.41380223  0.06620561  1
  Se  Se118  1  0.07554295  0.41156372  0.55847375  1
  Se  Se119  1  0.08612316  0.75429657  0.05383880  1
  Se  Se120  1  0.08051706  0.75487614  0.54543721  1
  Se  Se121  1  0.41323420  0.08699146  0.05646135  1
  Se  Se122  1  0.41901808  0.08560636  0.55028441  1
  Se  Se123  1  0.42086113  0.41811066  0.05678272  1
  Se  Se124  1  0.41874015  0.41295126  0.54605435  1
  Se  Se125  1  0.42369189  0.75100453  0.05762436  1
  Se  Se126  1  0.42091869  0.75228599  0.55141382  1
  Se  Se127  1  0.73344922  0.06246914  0.04295492  1
  Se  Se128  1  0.75383132  0.06931787  0.55896760  1
  Se  Se129  1  0.75032141  0.42137757  0.05859485  1
  Se  Se130  1  0.76177657  0.42752473  0.54575461  1
  Se  Se131  1  0.74999799  0.75178546  0.05663832  1
  Se  Se132  1  0.73750999  0.73835775  0.55697823  1
  Se  Se133  1  0.25194746  0.25968243  0.05986501  1
  Se  Se134  1  0.25121987  0.25001244  0.54362672  1
  Se  Se135  1  0.25996066  0.58789199  0.07090258  1
  Se  Se136  1  0.26206356  0.59458986  0.56147814  1
  Se  Se137  1  0.24843695  0.91430081  0.05419715  1
  Se  Se138  1  0.24959712  0.91799555  0.55031238  1
  Se  Se139  1  0.58049682  0.24839593  0.05819214  1
  Se  Se140  1  0.60561595  0.25345246  0.55284983  1
  Se  Se141  1  0.58223419  0.58041894  0.05694481  1
  Se  Se142  1  0.57819000  0.57847491  0.54861927  1
  Se  Se143  1  0.58240453  0.92319472  0.04866140  1
  Se  Se144  1  0.58073933  0.91366879  0.55220927  1
  Se  Se145  1  0.90742370  0.24676341  0.05682102  1
  Se  Se146  1  0.92495736  0.25571104  0.55810274  1
  Se  Se147  1  0.91307295  0.58190860  0.05547331  1
  Se  Se148  1  0.91210237  0.58475190  0.54241507  1
  Se  Se149  1  0.91772242  0.91722751  0.05596768  1
  Se  Se150  1  0.91840279  0.92308932  0.55518827  1
  Se  Se151  1  0.08646752  0.24487353  0.44485147  1
  Se  Se152  1  0.07242847  0.25822967  0.94636826  1
  Se  Se153  1  0.08002375  0.58727622  0.43625197  1
  Se  Se154  1  0.07417877  0.59178303  0.94284719  1
  Se  Se155  1  0.08440382  0.91097897  0.43837297  1
  Se  Se156  1  0.09049283  0.91802300  0.95314154  1
  Se  Se157  1  0.42113467  0.24835910  0.43562717  1
  Se  Se158  1  0.39532851  0.26986770  0.95013129  1
  Se  Se159  1  0.41946170  0.58086980  0.44475428  1
  Se  Se160  1  0.41825697  0.58220875  0.95232519  1
  Se  Se161  1  0.41811588  0.91876268  0.44671247  1
  Se  Se162  1  0.41719103  0.91245784  0.95531534  1
  Se  Se163  1  0.74315655  0.26083349  0.43904566  1
  Se  Se164  1  0.74725990  0.25167850  0.95800925  1
  Se  Se165  1  0.74767606  0.58397235  0.43445494  1
  Se  Se166  1  0.75263650  0.57822750  0.95132189  1
  Se  Se167  1  0.73978798  0.92038429  0.43696604  1
  Se  Se168  1  0.74226840  0.93910174  0.95487992  1
  Se  Se169  1  0.24967305  0.08480564  0.44098499  1
  Se  Se170  1  0.25948792  0.07485843  0.93551209  1
  Se  Se171  1  0.25320434  0.41486327  0.43478554  1
  Se  Se172  1  0.25055046  0.41394108  0.94468308  1
  Se  Se173  1  0.25054807  0.75563970  0.44953030  1
  Se  Se174  1  0.24991900  0.74636200  0.95413854  1
  Se  Se175  1  0.58042115  0.08698848  0.44993472  1
  Se  Se176  1  0.54720652  0.11653688  0.94103769  1
  Se  Se177  1  0.57469405  0.42426045  0.43360005  1
  Se  Se178  1  0.58147260  0.41658156  0.95060607  1
  Se  Se179  1  0.57946275  0.75299372  0.44676721  1
  Se  Se180  1  0.59452052  0.74803475  0.94831949  1
  Se  Se181  1  0.92015710  0.07356907  0.43682507  1
  Se  Se182  1  0.92045737  0.08545747  0.94963042  1
  Se  Se183  1  0.91617771  0.41682780  0.44369063  1
  Se  Se184  1  0.91168116  0.42119630  0.95350146  1
  Se  Se185  1  0.91696341  0.74489250  0.42894714  1
  Se  Se186  1  0.91101273  0.75426187  0.95626112  1
  Se  Se187  1  0.24912689  0.24712661  0.30007625  1
  Se  Se188  1  0.24660481  0.23713018  0.80844450  1
  Se  Se189  1  0.24537578  0.57729835  0.31372353  1
  Se  Se190  1  0.23868718  0.56983708  0.80753326  1
  Se  Se191  1  0.25184274  0.92008145  0.30071197  1
  Se  Se192  1  0.24624852  0.90776283  0.80968881  1
  Se  Se193  1  0.58655724  0.25074351  0.29761081  1
  Se  Se194  1  0.58769456  0.23918369  0.81164041  1
  Se  Se195  1  0.60013932  0.60844309  0.29996619  1
  Se  Se196  1  0.57376643  0.57293445  0.80938531  1
  Se  Se197  1  0.57673013  0.91692347  0.31236723  1
  Se  Se198  1  0.58971245  0.91849750  0.81337700  1
  Se  Se199  1  0.91355421  0.24993455  0.30331321  1
  Se  Se200  1  0.90605683  0.24640738  0.81939463  1
  Se  Se201  1  0.91451338  0.58315248  0.29693102  1
  Se  Se202  1  0.91187030  0.58127211  0.81124560  1
  Se  Se203  1  0.91617015  0.91388635  0.28965665  1
  Se  Se204  1  0.92510241  0.92234493  0.81023741  1
  Se  Se205  1  0.07897064  0.07900602  0.30293731  1
  Se  Se206  1  0.08118918  0.07989452  0.79721267  1
  Se  Se207  1  0.07864065  0.41274547  0.30354460  1
  Se  Se208  1  0.09008153  0.42371258  0.80547190  1
  Se  Se209  1  0.08499899  0.74810229  0.30001232  1
  Se  Se210  1  0.08489005  0.75742887  0.81477797  1
  Se  Se211  1  0.41524362  0.08104225  0.29947250  1
  Se  Se212  1  0.43119163  0.07599171  0.81093740  1
  Se  Se213  1  0.41493800  0.41307450  0.29163454  1
  Se  Se214  1  0.42193079  0.41216826  0.81422516  1
  Se  Se215  1  0.42031849  0.75929953  0.31333648  1
  Se  Se216  1  0.42669039  0.75821555  0.81382191  1
  Se  Se217  1  0.75354181  0.09027318  0.31352906  1
  Se  Se218  1  0.74743299  0.08148841  0.81408806  1
  Se  Se219  1  0.74644246  0.41522062  0.29827340  1
  Se  Se220  1  0.75432881  0.42308713  0.80690754  1
  Se  Se221  1  0.76821823  0.77792856  0.29737297  1
  Se  Se222  1  0.76560502  0.76378086  0.81295842  1
  Se  Se223  1  0.25321529  0.08153518  0.19686344  1
  Se  Se224  1  0.24807011  0.09019693  0.68276863  1
  Se  Se225  1  0.25021326  0.41407370  0.20210273  1
  Se  Se226  1  0.24076292  0.42632627  0.69384334  1
  Se  Se227  1  0.24716531  0.75649934  0.19000478  1
  Se  Se228  1  0.24180463  0.75569209  0.69089725  1
  Se  Se229  1  0.57837922  0.08950899  0.18763831  1
  Se  Se230  1  0.59026684  0.07106764  0.69579240  1
  Se  Se231  1  0.59491895  0.40435531  0.20001263  1
  Se  Se232  1  0.57383761  0.42098419  0.68688487  1
  Se  Se233  1  0.58652162  0.75662114  0.19784018  1
  Se  Se234  1  0.57761818  0.75272707  0.69467199  1
  Se  Se235  1  0.91120869  0.08095658  0.19525244  1
  Se  Se236  1  0.91890781  0.08211379  0.70154910  1
  Se  Se237  1  0.91625443  0.41125742  0.19762006  1
  Se  Se238  1  0.91226979  0.42081264  0.69019211  1
  Se  Se239  1  0.93869875  0.72876241  0.19045275  1
  Se  Se240  1  0.90290581  0.75981952  0.69137277  1
  Se  Se241  1  0.07958170  0.24853473  0.20234585  1
  Se  Se242  1  0.08930808  0.24515958  0.68508397  1
  Se  Se243  1  0.08374770  0.58241403  0.20179554  1
  Se  Se244  1  0.09077878  0.57498360  0.69154484  1
  Se  Se245  1  0.08144979  0.91899335  0.19497481  1
  Se  Se246  1  0.07724480  0.91671109  0.69335254  1
  Se  Se247  1  0.41500165  0.25345763  0.19645973  1
  Se  Se248  1  0.43384207  0.23912886  0.69137420  1
  Se  Se249  1  0.43246353  0.57841092  0.19772476  1
  Se  Se250  1  0.41813982  0.57927888  0.69145773  1
  Se  Se251  1  0.41580107  0.92182408  0.19728685  1
  Se  Se252  1  0.42288592  0.90818370  0.69132914  1
  Se  Se253  1  0.74450587  0.24378146  0.19247232  1
  Se  Se254  1  0.76340967  0.23770349  0.69262226  1
  Se  Se255  1  0.74669202  0.58702537  0.19454556  1
  Se  Se256  1  0.74824128  0.58142083  0.69038563  1
  Se  Se257  1  0.75407665  0.91363325  0.18382888  1
  Se  Se258  1  0.74555270  0.91124655  0.70283808  1
