# generated using pymatgen
data_In86Cu29Se144
_symmetry_space_group_name_H-M   'P 1'
_cell_length_a   17.58442852
_cell_length_b   17.58683840
_cell_length_c   23.44158471
_cell_angle_alpha   89.97595860
_cell_angle_beta   89.99601988
_cell_angle_gamma   89.98056662
_symmetry_Int_Tables_number   1
_chemical_formula_structural   In86Cu29Se144
_chemical_formula_sum   'In86 Cu29 Se144'
_cell_volume   7249.41454725
_cell_formula_units_Z   1
loop_
 _symmetry_equiv_pos_site_id
 _symmetry_equiv_pos_as_xyz
  1  'x, y, z'
loop_
 _atom_site_type_symbol
 _atom_site_label
 _atom_site_symmetry_multiplicity
 _atom_site_fract_x
 _atom_site_fract_y
 _atom_site_fract_z
 _atom_site_occupancy
  In  In0  1  0.02824282  0.21127386  0.07417627  1
  In  In1  1  0.00034037  0.18885769  0.64390525  1
  In  In2  1  0.00009476  0.48912751  0.11441846  1
  In  In3  1  -0.00179602  0.50035507  0.62348105  1
  In  In4  1  0.00612034  0.84149311  0.10987358  1
  In  In5  1  0.00953701  0.82171963  0.63885922  1
  In  In6  1  0.32666607  0.18010276  0.13558689  1
  In  In7  1  0.33344335  0.15767319  0.62572881  1
  In  In8  1  0.32437189  0.51012119  0.13150736  1
  In  In9  1  0.33913820  0.50869727  0.62260566  1
  In  In10  1  0.32302418  0.81887441  0.11336869  1
  In  In11  1  0.31397674  0.82867125  0.62673276  1
  In  In12  1  0.67259711  0.16092944  0.11803791  1
  In  In13  1  0.65888571  0.17983484  0.64158971  1
  In  In14  1  0.68266442  0.49863206  0.12492709  1
  In  In15  1  0.66862047  0.49964517  0.62606057  1
  In  In16  1  0.65870359  0.83063865  0.10810306  1
  In  In17  1  0.67181965  0.82667654  0.63904922  1
  In  In18  1  0.15793620  -0.00443606  0.37732565  1
  In  In19  1  0.17694198  -0.00237490  0.89266234  1
  In  In20  1  0.18062629  0.34422017  0.36044793  1
  In  In21  1  0.14574529  0.33722025  0.89144375  1
  In  In22  1  0.17347719  0.65629105  0.38169182  1
  In  In23  1  0.16334523  0.67269523  0.86436789  1
  In  In24  1  0.51216770  0.00255522  0.38046799  1
  In  In25  1  0.50299447  -0.01353851  0.88294253  1
  In  In26  1  0.49232710  0.34643921  0.38653292  1
  In  In27  1  0.50811888  0.32344350  0.87321289  1
  In  In28  1  0.49150289  0.65653301  0.36766581  1
  In  In29  1  0.51277693  0.67467143  0.86547067  1
  In  In30  1  0.83299599  0.00390527  0.37147685  1
  In  In31  1  0.81114700  0.00890312  0.88317088  1
  In  In32  1  0.84714683  0.33528365  0.37130735  1
  In  In33  1  0.84931658  0.33665845  0.87229212  1
  In  In34  1  0.81996256  0.66386064  0.37009798  1
  In  In35  1  0.83620996  0.66583952  0.87683626  1
  In  In36  1  -0.00803144  0.17343067  0.37070684  1
  In  In37  1  -0.00658380  0.17811620  0.88246284  1
  In  In38  1  0.01095939  0.49340669  0.38436528  1
  In  In39  1  -0.00340349  0.49967650  0.87848904  1
  In  In40  1  0.00701827  0.84685677  0.37842974  1
  In  In41  1  0.01054068  0.81533125  0.87658676  1
  In  In42  1  0.32798903  0.18708520  0.37619009  1
  In  In43  1  0.32616348  0.15329203  0.88391087  1
  In  In44  1  0.32996517  0.50064549  0.37635504  1
  In  In45  1  0.31374553  0.50358071  0.87577612  1
  In  In46  1  0.33348500  0.81476902  0.37326526  1
  In  In47  1  0.33994425  0.83219527  0.88046292  1
  In  In48  1  0.66516078  0.15319140  0.37731673  1
  In  In49  1  0.68793829  0.18198841  0.85050674  1
  In  In50  1  0.65858845  0.50417747  0.38161155  1
  In  In51  1  0.68387698  0.51112830  0.86674839  1
  In  In52  1  0.68085989  0.82893301  0.37146684  1
  In  In53  1  0.66447964  0.83189418  0.87816847  1
  In  In54  1  0.17683473  0.00141371  0.10947016  1
  In  In55  1  0.17552195  0.00383225  0.62928764  1
  In  In56  1  0.16340900  0.33899593  0.12343284  1
  In  In57  1  0.14364314  0.33715463  0.63427600  1
  In  In58  1  0.17211793  0.67033358  0.11849036  1
  In  In59  1  0.16857691  0.66707565  0.62923274  1
  In  In60  1  0.51420592  -0.00642901  0.11884280  1
  In  In61  1  0.49742766  0.01071997  0.62333900  1
  In  In62  1  0.49334327  0.32235338  0.12836213  1
  In  In63  1  0.50411522  0.34306845  0.61933356  1
  In  In64  1  0.49274009  0.67000253  0.12895698  1
  In  In65  1  0.50733008  0.65845597  0.63205938  1
  In  In66  1  0.83520048  0.01230064  0.10198649  1
  In  In67  1  0.83340466  -0.00919720  0.63571492  1
  In  In68  1  0.85946279  0.34843603  0.09491575  1
  In  In69  1  0.82278851  0.33974075  0.63857540  1
  In  In70  1  0.82929811  0.65631402  0.11910006  1
  In  In71  1  0.84206416  0.65805755  0.63476517  1
  In  In72  1  0.49899558  0.16012967  0.00111715  1
  In  In73  1  0.33152874  0.33277229  0.75861172  1
  In  In74  1  0.00217736  0.66600874  0.24909541  1
  In  In75  1  0.83051760  0.16616589  0.50231378  1
  In  In76  1  0.16631330  0.17266506  0.50472320  1
  In  In77  1  0.83791306  0.82509527  0.49946287  1
  In  In78  1  -0.00317356  0.00335476  0.24094124  1
  In  In79  1  0.33454079  0.00115964  0.24000562  1
  In  In80  1  0.49789182  0.82800868  0.49949871  1
  In  In81  1  0.66964109  -0.00569812  0.24533843  1
  In  In82  1  -0.00092895  0.00299310  0.77098655  1
  In  In83  1  0.66301365  0.33160956  0.24837114  1
  In  In84  1  0.49889466  0.50240458  -0.00051935  1
  In  In85  1  0.33399348  -0.00443121  0.75619905  1
  Cu  Cu86  1  0.66251444  0.00557646  0.50731280  1
  Cu  Cu87  1  0.82906205  0.82883059  0.23896530  1
  Cu  Cu88  1  0.33317445  0.00067359  0.50375963  1
  Cu  Cu89  1  0.49849336  0.50058187  0.25629741  1
  Cu  Cu90  1  0.17491817  0.82688331  0.24449292  1
  Cu  Cu91  1  0.66729858  0.66840216  -0.00510730  1
  Cu  Cu92  1  0.84255157  0.17763367  0.23654523  1
  Cu  Cu93  1  0.32812781  0.66334298  0.50008058  1
  Cu  Cu94  1  0.66846501  0.33142742  0.50858137  1
  Cu  Cu95  1  0.16029371  0.50095231  0.75086433  1
  Cu  Cu96  1  0.82693794  0.83191293  0.76011335  1
  Cu  Cu97  1  0.83749354  0.49879713  0.75127582  1
  Cu  Cu98  1  0.67471455  0.33408376  -0.00921376  1
  Cu  Cu99  1  0.49320623  0.16934796  0.25489478  1
  Cu  Cu100  1  0.50190812  0.49739302  0.74759204  1
  Cu  Cu101  1  0.50381297  0.16670515  0.74963381  1
  Cu  Cu102  1  0.16539295  0.49610748  0.25108608  1
  Cu  Cu103  1  0.33377903  0.66832600  -0.00370271  1
  Cu  Cu104  1  0.32479923  0.33460873  0.00269154  1
  Cu  Cu105  1  0.49864835  0.83127602  0.75375680  1
  Cu  Cu106  1  0.32989556  0.33849879  0.50090599  1
  Cu  Cu107  1  0.66466104  0.65872195  0.50133267  1
  Cu  Cu108  1  -0.00114233  0.33986123  0.50155231  1
  Cu  Cu109  1  0.00486727  0.66371956  -0.00282475  1
  Cu  Cu110  1  0.00274789  0.66670972  0.50812446  1
  Cu  Cu111  1  0.50105265  0.82326693  0.24241929  1
  Cu  Cu112  1  0.83685410  0.49718417  0.24225941  1
  Cu  Cu113  1  0.00883954  -0.00257907  0.50764440  1
  Cu  Cu114  1  -0.00705312  -0.00837092  -0.01071751  1
  Se  Se115  1  0.06900609  0.06838524  0.05349126  1
  Se  Se116  1  0.07429536  0.08751038  0.56860891  1
  Se  Se117  1  0.08936046  0.41768149  0.04630503  1
  Se  Se118  1  0.08629099  0.41940091  0.55389587  1
  Se  Se119  1  0.08830364  0.74924179  0.04929442  1
  Se  Se120  1  0.08424667  0.75273725  0.55910344  1
  Se  Se121  1  0.41098547  0.08411726  0.07107275  1
  Se  Se122  1  0.41677779  0.08820262  0.55058997  1
  Se  Se123  1  0.41073530  0.41132765  0.06082934  1
  Se  Se124  1  0.41569673  0.42126012  0.55283575  1
  Se  Se125  1  0.42252423  0.74638961  0.05017183  1
  Se  Se126  1  0.40898730  0.74219059  0.56219478  1
  Se  Se127  1  0.72498738  0.07130727  0.04247065  1
  Se  Se128  1  0.74614427  0.07895128  0.56761017  1
  Se  Se129  1  0.75022036  0.42286451  0.04525589  1
  Se  Se130  1  0.75382929  0.41472142  0.55856311  1
  Se  Se131  1  0.75425587  0.74648329  0.05063694  1
  Se  Se132  1  0.74421885  0.74170795  0.56066083  1
  Se  Se133  1  0.24850347  0.24767743  0.05732974  1
  Se  Se134  1  0.25370007  0.26275965  0.56743036  1
  Se  Se135  1  0.25404486  0.58309936  0.05112003  1
  Se  Se136  1  0.24611286  0.58284767  0.55628245  1
  Se  Se137  1  0.25326921  0.91096058  0.04639733  1
  Se  Se138  1  0.24653891  0.92021441  0.55499792  1
  Se  Se139  1  0.59067972  0.26202254  0.05366941  1
  Se  Se140  1  0.58527042  0.24583335  0.55926157  1
  Se  Se141  1  0.59140320  0.58807003  0.06024125  1
  Se  Se142  1  0.58059566  0.57943282  0.55624612  1
  Se  Se143  1  0.59295087  0.92918141  0.04143145  1
  Se  Se144  1  0.58990642  0.91345037  0.56284976  1
  Se  Se145  1  0.88247641  0.21648808  0.05292297  1
  Se  Se146  1  0.92017537  0.25678031  0.56121883  1
  Se  Se147  1  0.92020508  0.58255094  0.05177756  1
  Se  Se148  1  0.91309565  0.58489169  0.55495386  1
  Se  Se149  1  0.90921431  0.90957264  0.04416598  1
  Se  Se150  1  0.92423103  0.91573397  0.56280554  1
  Se  Se151  1  0.07638209  0.25649412  0.44089550  1
  Se  Se152  1  0.07648286  0.24406868  0.96105440  1
  Se  Se153  1  0.08546570  0.58343915  0.45184223  1
  Se  Se154  1  0.08792588  0.58775877  0.93801774  1
  Se  Se155  1  0.09051897  0.91394065  0.45433401  1
  Se  Se156  1  0.08347881  0.90721558  0.94603079  1
  Se  Se157  1  0.41408740  0.25235264  0.45074678  1
  Se  Se158  1  0.40951419  0.25866725  0.94401044  1
  Se  Se159  1  0.41424264  0.58480527  0.44499178  1
  Se  Se160  1  0.41357299  0.58948269  0.93454179  1
  Se  Se161  1  0.40849506  0.92077385  0.43864808  1
  Se  Se162  1  0.40140351  0.93131612  0.94889039  1
  Se  Se163  1  0.74301375  0.25727013  0.43878756  1
  Se  Se164  1  0.75333741  0.25198540  0.93415168  1
  Se  Se165  1  0.75289653  0.58173149  0.44691840  1
  Se  Se166  1  0.75313594  0.58239392  0.94782064  1
  Se  Se167  1  0.74393122  0.92763089  0.44607965  1
  Se  Se168  1  0.74682037  0.91039135  0.94921963  1
  Se  Se169  1  0.25415908  0.08008036  0.44105076  1
  Se  Se170  1  0.25170345  0.08531093  0.96216859  1
  Se  Se171  1  0.24476762  0.41520836  0.44370095  1
  Se  Se172  1  0.24451910  0.41889977  0.94910275  1
  Se  Se173  1  0.24730029  0.75141504  0.44847779  1
  Se  Se174  1  0.24847168  0.74570476  0.94012873  1
  Se  Se175  1  0.58020841  0.08880572  0.45425243  1
  Se  Se176  1  0.58486503  0.09877249  0.92480546  1
  Se  Se177  1  0.58666133  0.41648117  0.45303322  1
  Se  Se178  1  0.59024362  0.41700597  0.93691459  1
  Se  Se179  1  0.59177496  0.74363541  0.43768038  1
  Se  Se180  1  0.57726124  0.74943520  0.94729888  1
  Se  Se181  1  0.92715759  0.07266701  0.44476049  1
  Se  Se182  1  0.91215830  0.08231043  0.94238798  1
  Se  Se183  1  0.91204862  0.41951406  0.44769326  1
  Se  Se184  1  0.91963753  0.41544517  0.94985066  1
  Se  Se185  1  0.92848680  0.73901131  0.43586449  1
  Se  Se186  1  0.91822112  0.74747531  0.94746541  1
  Se  Se187  1  0.23751158  0.23648989  0.30017747  1
  Se  Se188  1  0.24443620  0.25092881  0.82443864  1
  Se  Se189  1  0.24699939  0.58151026  0.30435962  1
  Se  Se190  1  0.24914995  0.58442253  0.79812482  1
  Se  Se191  1  0.24770229  0.91189560  0.30745512  1
  Se  Se192  1  0.24024170  0.90925170  0.81253178  1
  Se  Se193  1  0.57767880  0.24501743  0.31557311  1
  Se  Se194  1  0.58558733  0.25954887  0.79337693  1
  Se  Se195  1  0.58859895  0.58305452  0.30360820  1
  Se  Se196  1  0.58635196  0.57997702  0.80096158  1
  Se  Se197  1  0.57607381  0.90439355  0.30616844  1
  Se  Se198  1  0.58103960  0.91471086  0.80654434  1
  Se  Se199  1  0.92201999  0.25654381  0.29620064  1
  Se  Se200  1  0.92410539  0.24897041  0.80158180  1
  Se  Se201  1  0.91329260  0.57448322  0.30854940  1
  Se  Se202  1  0.91818097  0.58374589  0.80579194  1
  Se  Se203  1  0.90655874  0.90647176  0.30311657  1
  Se  Se204  1  0.90725042  0.90797587  0.82234596  1
  Se  Se205  1  0.08501553  0.08769691  0.30802560  1
  Se  Se206  1  0.09562154  0.09008775  0.82427806  1
  Se  Se207  1  0.07610552  0.41697534  0.30291646  1
  Se  Se208  1  0.08347084  0.41699898  0.80944105  1
  Se  Se209  1  0.09015297  0.75804505  0.31015878  1
  Se  Se210  1  0.07709991  0.74786908  0.79304121  1
  Se  Se211  1  0.41929087  0.08268879  0.31375968  1
  Se  Se212  1  0.42474978  0.09076973  0.81182283  1
  Se  Se213  1  0.41552259  0.41641410  0.30826240  1
  Se  Se214  1  0.42362832  0.42616258  0.81583752  1
  Se  Se215  1  0.41574746  0.74528737  0.29849265  1
  Se  Se216  1  0.41293735  0.75002723  0.80510362  1
  Se  Se217  1  0.76262202  0.09744744  0.29807857  1
  Se  Se218  1  0.74779492  0.07034043  0.79541585  1
  Se  Se219  1  0.75398559  0.42247359  0.30758062  1
  Se  Se220  1  0.75564249  0.41323826  0.80380352  1
  Se  Se221  1  0.74826679  0.74774397  0.29531885  1
  Se  Se222  1  0.74467680  0.74445520  0.80997161  1
  Se  Se223  1  0.23145569  0.08865280  0.19355022  1
  Se  Se224  1  0.24353738  0.09632459  0.70294552  1
  Se  Se225  1  0.24974384  0.41572448  0.19597513  1
  Se  Se226  1  0.24715131  0.42141682  0.69255038  1
  Se  Se227  1  0.25648702  0.74153932  0.19396731  1
  Se  Se228  1  0.24200689  0.75335441  0.70183470  1
  Se  Se229  1  0.57505712  0.09270621  0.19443484  1
  Se  Se230  1  0.58224414  0.07618432  0.69827831  1
  Se  Se231  1  0.57404964  0.42586903  0.18796270  1
  Se  Se232  1  0.58481510  0.41434813  0.69500769  1
  Se  Se233  1  0.59131012  0.75080153  0.18762891  1
  Se  Se234  1  0.58276092  0.74529066  0.70209441  1
  Se  Se235  1  0.91253956  0.08987196  0.17823344  1
  Se  Se236  1  0.91702927  0.08486394  0.69649040  1
  Se  Se237  1  0.91452411  0.41287868  0.18616949  1
  Se  Se238  1  0.92226764  0.41674427  0.69672650  1
  Se  Se239  1  0.91979957  0.75614966  0.18314004  1
  Se  Se240  1  0.90991535  0.75412807  0.70203725  1
  Se  Se241  1  0.06837449  0.24971768  0.17625249  1
  Se  Se242  1  0.09715378  0.24679777  0.71225455  1
  Se  Se243  1  0.08847802  0.57612618  0.18749000  1
  Se  Se244  1  0.07981028  0.58296077  0.69354633  1
  Se  Se245  1  0.09476301  0.91020930  0.18818039  1
  Se  Se246  1  0.08817403  0.92269261  0.69852454  1
  Se  Se247  1  0.41171869  0.25770980  0.20626955  1
  Se  Se248  1  0.41939777  0.24662494  0.69170856  1
  Se  Se249  1  0.41779203  0.58239465  0.19836656  1
  Se  Se250  1  0.41565337  0.58287708  0.69968486  1
  Se  Se251  1  0.42427406  0.90696037  0.18366851  1
  Se  Se252  1  0.42125320  0.90937994  0.68811600  1
  Se  Se253  1  0.75293146  0.25366548  0.18176699  1
  Se  Se254  1  0.76568142  0.23580289  0.70255231  1
  Se  Se255  1  0.75130746  0.58531700  0.19835998  1
  Se  Se256  1  0.74949762  0.58026942  0.69836483  1
  Se  Se257  1  0.75783969  0.91516934  0.17852532  1
  Se  Se258  1  0.74683303  0.91681713  0.70566652  1
