# generated using pymatgen
data_In86Cu29Se144
_symmetry_space_group_name_H-M   'P 1'
_cell_length_a   17.60190199
_cell_length_b   17.60344745
_cell_length_c   23.45793064
_cell_angle_alpha   90.00968658
_cell_angle_beta   90.01381399
_cell_angle_gamma   90.01746759
_symmetry_Int_Tables_number   1
_chemical_formula_structural   In86Cu29Se144
_chemical_formula_sum   'In86 Cu29 Se144'
_cell_volume   7268.53666243
_cell_formula_units_Z   1
loop_
 _symmetry_equiv_pos_site_id
 _symmetry_equiv_pos_as_xyz
  1  'x, y, z'
loop_
 _atom_site_type_symbol
 _atom_site_label
 _atom_site_symmetry_multiplicity
 _atom_site_fract_x
 _atom_site_fract_y
 _atom_site_fract_z
 _atom_site_occupancy
  In  In0  1  0.00443222  0.15643925  0.12427786  1
  In  In1  1  0.00913886  0.16193543  0.63332194  1
  In  In2  1  0.00712968  0.50040348  0.11353806  1
  In  In3  1  0.00076751  0.50711773  0.64146041  1
  In  In4  1  0.00405734  0.83266889  0.12102149  1
  In  In5  1  0.00463498  0.84010290  0.62874501  1
  In  In6  1  0.31743523  0.15517406  0.10902227  1
  In  In7  1  0.32233940  0.17243300  0.62857066  1
  In  In8  1  0.32428779  0.51130272  0.12547781  1
  In  In9  1  0.33637332  0.51019664  0.62229730  1
  In  In10  1  0.33014636  0.82949606  0.12052268  1
  In  In11  1  0.30772019  0.85075852  0.66014654  1
  In  In12  1  0.65694792  0.16166711  0.12323754  1
  In  In13  1  0.66442888  0.15841744  0.62223271  1
  In  In14  1  0.66888721  0.48758583  0.12084928  1
  In  In15  1  0.66339849  0.52168795  0.62873832  1
  In  In16  1  0.67358500  0.84114164  0.12079966  1
  In  In17  1  0.66796434  0.81875937  0.62451955  1
  In  In18  1  0.15371881  -0.01630096  0.35926312  1
  In  In19  1  0.17085829  -0.00752447  0.86887915  1
  In  In20  1  0.15969685  0.34527264  0.36892751  1
  In  In21  1  0.13598845  0.36803469  0.93394329  1
  In  In22  1  0.17304447  0.67436320  0.37060053  1
  In  In23  1  0.16154927  0.68367797  0.86214864  1
  In  In24  1  0.49874140  -0.00287522  0.36428457  1
  In  In25  1  0.48400339  0.00871925  0.88322092  1
  In  In26  1  0.50272381  0.33603938  0.37842475  1
  In  In27  1  0.46885386  0.33475990  0.88498263  1
  In  In28  1  0.48421595  0.67181011  0.37899390  1
  In  In29  1  0.50837458  0.66985041  0.87114448  1
  In  In30  1  0.83538278  -0.00383731  0.36837494  1
  In  In31  1  0.84087045  -0.02070467  0.87917590  1
  In  In32  1  0.83161693  0.32654774  0.36974236  1
  In  In33  1  0.86201755  0.33421430  0.88347104  1
  In  In34  1  0.85555251  0.66820012  0.37679590  1
  In  In35  1  0.83564055  0.66903659  0.87252999  1
  In  In36  1  -0.00195820  0.16437390  0.36371046  1
  In  In37  1  0.02569865  0.18180313  0.87276309  1
  In  In38  1  0.00757930  0.50590410  0.36423654  1
  In  In39  1  0.00376074  0.50198608  0.87628082  1
  In  In40  1  0.00678596  0.83263846  0.37616314  1
  In  In41  1  -0.00255127  0.83248208  0.86352808  1
  In  In42  1  0.33743459  0.15695777  0.37359876  1
  In  In43  1  0.32945222  0.16896633  0.88883566  1
  In  In44  1  0.32604646  0.51725258  0.38137645  1
  In  In45  1  0.27942307  0.51007435  0.87899532  1
  In  In46  1  0.32377171  0.83038014  0.36727369  1
  In  In47  1  0.32858573  0.83916339  0.87050522  1
  In  In48  1  0.67459736  0.16512201  0.36850829  1
  In  In49  1  0.65799242  0.15788497  0.87669696  1
  In  In50  1  0.66418250  0.48773655  0.37616556  1
  In  In51  1  0.67015713  0.51965872  0.87399935  1
  In  In52  1  0.66908001  0.84528036  0.37154330  1
  In  In53  1  0.67358435  0.81640390  0.88284861  1
  In  In54  1  0.16746349  -0.00635524  0.12213819  1
  In  In55  1  0.16845796  0.00318203  0.63046215  1
  In  In56  1  0.14897420  0.31328972  0.09802733  1
  In  In57  1  0.16572156  0.33210432  0.62910917  1
  In  In58  1  0.16639628  0.66716126  0.11683535  1
  In  In59  1  0.13364894  0.69200219  0.66842745  1
  In  In60  1  0.49740672  -0.00593965  0.12342554  1
  In  In61  1  0.49644284  -0.01002390  0.62841565  1
  In  In62  1  0.50830259  0.32650334  0.12050734  1
  In  In63  1  0.47550005  0.35056895  0.62533088  1
  In  In64  1  0.47688815  0.66333238  0.12548598  1
  In  In65  1  0.49854180  0.67115196  0.62723766  1
  In  In66  1  0.84781681  -0.01459290  0.13032237  1
  In  In67  1  0.86055997  -0.02185996  0.64087489  1
  In  In68  1  0.83712991  0.34925973  0.11043165  1
  In  In69  1  0.83916905  0.34187080  0.62867767  1
  In  In70  1  0.85060373  0.67878243  0.11444517  1
  In  In71  1  0.83777623  0.67838735  0.63987621  1
  In  In72  1  0.66825951  0.66593527  0.24542664  1
  In  In73  1  0.83327880  0.15718719  -0.00037178  1
  In  In74  1  0.83442329  0.50388164  0.50306516  1
  In  In75  1  0.49948871  0.16844882  0.49163857  1
  In  In76  1  0.17165933  0.50718262  0.50819019  1
  In  In77  1  0.66878000  -0.00370263  0.75081555  1
  In  In78  1  0.67018530  0.32820203  0.24764905  1
  In  In79  1  0.49901435  0.50727255  -0.00520373  1
  In  In80  1  0.16815120  0.16271219  0.50422975  1
  In  In81  1  0.67290539  0.33061806  0.75174583  1
  In  In82  1  0.32617024  0.33457793  0.24295254  1
  In  In83  1  0.49761182  0.82790332  0.50341705  1
  In  In84  1  0.83372024  0.16425820  0.49131965  1
  In  In85  1  0.31892113  0.33649612  0.76211007  1
  Cu  Cu86  1  0.15895185  0.49760218  0.24189494  1
  Cu  Cu87  1  0.84298892  0.16660802  0.75781932  1
  Cu  Cu88  1  0.16545164  0.16668769  0.75443806  1
  Cu  Cu89  1  0.84077434  0.83174473  0.24842584  1
  Cu  Cu90  1  0.32693965  0.67205534  -0.00679923  1
  Cu  Cu91  1  0.00962807  0.67543313  0.50897367  1
  Cu  Cu92  1  0.50079136  0.49861725  0.75422964  1
  Cu  Cu93  1  -0.00215802  0.33290342  0.49863394  1
  Cu  Cu94  1  0.65082813  0.34110993  0.50433234  1
  Cu  Cu95  1  0.66975509  0.66499618  0.50390544  1
  Cu  Cu96  1  0.49109709  0.15629756  0.24338971  1
  Cu  Cu97  1  0.50416482  0.84020246  0.75606821  1
  Cu  Cu98  1  0.83650182  0.16534458  0.24505239  1
  Cu  Cu99  1  0.68187798  -0.00226742  0.49656566  1
  Cu  Cu100  1  0.66776292  0.33466998  -0.00662431  1
  Cu  Cu101  1  0.83764204  0.49491942  0.75453796  1
  Cu  Cu102  1  0.00678734  -0.00603886  -0.00437154  1
  Cu  Cu103  1  0.33087877  -0.00606033  0.50687393  1
  Cu  Cu104  1  0.49173570  0.16751693  0.76201599  1
  Cu  Cu105  1  0.16630587  0.82870963  0.24233807  1
  Cu  Cu106  1  0.65939675  -0.00764229  -0.00234006  1
  Cu  Cu107  1  0.67013290  0.67046383  0.00206000  1
  Cu  Cu108  1  0.00317528  0.67051128  -0.00898048  1
  Cu  Cu109  1  0.16756729  0.16611134  0.23884235  1
  Cu  Cu110  1  0.49156774  0.50521085  0.25377323  1
  Cu  Cu111  1  0.84556517  0.50638285  0.23939182  1
  Cu  Cu112  1  0.49473661  0.83321550  0.24619510  1
  Cu  Cu113  1  0.32956597  -0.00987390  -0.00139715  1
  Cu  Cu114  1  0.33137887  0.67651701  0.50685314  1
  Se  Se115  1  0.08527745  0.07792696  0.05224578  1
  Se  Se116  1  0.07205111  0.07307646  0.55603673  1
  Se  Se117  1  0.09483492  0.42792552  0.04150326  1
  Se  Se118  1  0.07215766  0.41428548  0.56092228  1
  Se  Se119  1  0.08440669  0.75213072  0.04915959  1
  Se  Se120  1  0.09353780  0.74694674  0.56990193  1
  Se  Se121  1  0.41418742  0.07380563  0.05199608  1
  Se  Se122  1  0.41313442  0.08029840  0.55991473  1
  Se  Se123  1  0.41917021  0.42111716  0.06438400  1
  Se  Se124  1  0.40851980  0.42576895  0.54849623  1
  Se  Se125  1  0.41434549  0.74785124  0.04910314  1
  Se  Se126  1  0.40068758  0.76215404  0.57137642  1
  Se  Se127  1  0.74444814  0.06815370  0.06068878  1
  Se  Se128  1  0.75667150  0.07506346  0.56129295  1
  Se  Se129  1  0.74853622  0.42389295  0.04158881  1
  Se  Se130  1  0.73936239  0.41370447  0.56218506  1
  Se  Se131  1  0.75415832  0.75515163  0.05346506  1
  Se  Se132  1  0.75681804  0.74166686  0.55792552  1
  Se  Se133  1  0.27116216  0.26844332  0.04915945  1
  Se  Se134  1  0.25828417  0.26464216  0.55409281  1
  Se  Se135  1  0.24893724  0.58249999  0.04669146  1
  Se  Se136  1  0.24505692  0.60613873  0.56872165  1
  Se  Se137  1  0.24374712  0.90778039  0.05106492  1
  Se  Se138  1  0.25461769  0.91503057  0.56759659  1
  Se  Se139  1  0.59060877  0.24963091  0.04926062  1
  Se  Se140  1  0.57861552  0.25644526  0.56482146  1
  Se  Se141  1  0.58810763  0.59114694  0.06285218  1
  Se  Se142  1  0.57861832  0.58858037  0.55395514  1
  Se  Se143  1  0.57806219  0.90926366  0.05342907  1
  Se  Se144  1  0.59495470  0.92380414  0.55705276  1
  Se  Se145  1  0.92238241  0.25100611  0.05459874  1
  Se  Se146  1  0.92026017  0.25262331  0.55908172  1
  Se  Se147  1  0.92232501  0.58645898  0.04740558  1
  Se  Se148  1  0.92649775  0.59087461  0.56308906  1
  Se  Se149  1  0.91947064  0.91433776  0.05023339  1
  Se  Se150  1  0.91422207  0.90705444  0.55575867  1
  Se  Se151  1  0.07820618  0.25400311  0.43930174  1
  Se  Se152  1  0.08609729  0.23438881  0.96380565  1
  Se  Se153  1  0.07815335  0.58984438  0.44362854  1
  Se  Se154  1  0.09126499  0.59500840  0.93599568  1
  Se  Se155  1  0.09635187  0.91192247  0.44257421  1
  Se  Se156  1  0.08164516  0.91061984  0.93539364  1
  Se  Se157  1  0.40198017  0.25996470  0.44165406  1
  Se  Se158  1  0.43256136  0.23057129  0.95492448  1
  Se  Se159  1  0.41236911  0.59065165  0.45365971  1
  Se  Se160  1  0.40387398  0.58709705  0.93228801  1
  Se  Se161  1  0.41268205  0.92184260  0.44116442  1
  Se  Se162  1  0.41551895  0.90867269  0.94613288  1
  Se  Se163  1  0.73325088  0.26338030  0.44439297  1
  Se  Se164  1  0.74901680  0.25302843  0.93526153  1
  Se  Se165  1  0.74521555  0.58996677  0.43674340  1
  Se  Se166  1  0.75352176  0.58896579  0.94741776  1
  Se  Se167  1  0.75964693  0.91271409  0.44231674  1
  Se  Se168  1  0.74808265  0.91203919  0.94809888  1
  Se  Se169  1  0.25407352  0.07174242  0.44216087  1
  Se  Se170  1  0.24492330  0.07302625  0.94552971  1
  Se  Se171  1  0.25116047  0.41233919  0.44182208  1
  Se  Se172  1  0.28426796  0.39036313  0.93979596  1
  Se  Se173  1  0.25148843  0.75266742  0.44460150  1
  Se  Se174  1  0.24448234  0.75549203  0.93891882  1
  Se  Se175  1  0.59538980  0.07351142  0.43888745  1
  Se  Se176  1  0.57933682  0.08275312  0.95011433  1
  Se  Se177  1  0.57349636  0.42506783  0.44925880  1
  Se  Se178  1  0.58689553  0.41401246  0.93269505  1
  Se  Se179  1  0.59300097  0.74506388  0.43975317  1
  Se  Se180  1  0.57820070  0.74677021  0.95098005  1
  Se  Se181  1  0.92964600  0.07517091  0.43892202  1
  Se  Se182  1  0.92637021  0.07758099  0.93624130  1
  Se  Se183  1  0.92006056  0.41370497  0.43774708  1
  Se  Se184  1  0.92579269  0.42394158  0.95317952  1
  Se  Se185  1  0.92527707  0.75132511  0.45005988  1
  Se  Se186  1  0.91789831  0.75505201  0.93968225  1
  Se  Se187  1  0.24191609  0.24213518  0.30793224  1
  Se  Se188  1  0.23561829  0.24535287  0.82084185  1
  Se  Se189  1  0.23999973  0.57488690  0.30370170  1
  Se  Se190  1  0.26060823  0.60701314  0.79912883  1
  Se  Se191  1  0.25155075  0.91490034  0.29428821  1
  Se  Se192  1  0.23942841  0.90373334  0.79556261  1
  Se  Se193  1  0.56985667  0.23921379  0.30402038  1
  Se  Se194  1  0.57269391  0.25397340  0.81419350  1
  Se  Se195  1  0.57819200  0.58020160  0.31154802  1
  Se  Se196  1  0.58756457  0.58642659  0.79875429  1
  Se  Se197  1  0.58277296  0.91337581  0.29831250  1
  Se  Se198  1  0.58074202  0.91856124  0.81979670  1
  Se  Se199  1  0.91529345  0.25312491  0.29918197  1
  Se  Se200  1  0.92709892  0.25231542  0.80647171  1
  Se  Se201  1  0.92165597  0.58844551  0.29866364  1
  Se  Se202  1  0.91858829  0.58061552  0.80706446  1
  Se  Se203  1  0.92353789  0.91395554  0.30454790  1
  Se  Se204  1  0.91301546  0.91807309  0.79721303  1
  Se  Se205  1  0.08501010  0.08530893  0.29707458  1
  Se  Se206  1  0.08236007  0.07968113  0.80497636  1
  Se  Se207  1  0.07588393  0.41247169  0.29448424  1
  Se  Se208  1  0.10284926  0.40858468  0.83070748  1
  Se  Se209  1  0.08451733  0.74932067  0.30265658  1
  Se  Se210  1  0.06160984  0.73738317  0.78923193  1
  Se  Se211  1  0.40908710  0.07603330  0.29929662  1
  Se  Se212  1  0.40423927  0.08759818  0.81138831  1
  Se  Se213  1  0.41362696  0.42049230  0.31161118  1
  Se  Se214  1  0.41030547  0.43412638  0.81468195  1
  Se  Se215  1  0.41525703  0.74995751  0.30255380  1
  Se  Se216  1  0.42199670  0.75508260  0.80815458  1
  Se  Se217  1  0.75343546  0.08341239  0.30023497  1
  Se  Se218  1  0.75831828  0.08711908  0.81217109  1
  Se  Se219  1  0.76217999  0.42890673  0.30025539  1
  Se  Se220  1  0.75833494  0.41689219  0.81631685  1
  Se  Se221  1  0.75897084  0.75144185  0.30854854  1
  Se  Se222  1  0.74255939  0.74241300  0.80490164  1
  Se  Se223  1  0.25173500  0.08032509  0.19024432  1
  Se  Se224  1  0.25177203  0.08824709  0.69951661  1
  Se  Se225  1  0.23286387  0.41368293  0.18033166  1
  Se  Se226  1  0.24465031  0.42782447  0.69150066  1
  Se  Se227  1  0.24984512  0.74411559  0.19052219  1
  Se  Se228  1  0.27104732  0.72180227  0.70418233  1
  Se  Se229  1  0.58205671  0.07751931  0.19392487  1
  Se  Se230  1  0.57209004  0.09317748  0.69748191  1
  Se  Se231  1  0.57242827  0.42426405  0.19631734  1
  Se  Se232  1  0.57911942  0.41915485  0.69205300  1
  Se  Se233  1  0.57450459  0.75142764  0.18627953  1
  Se  Se234  1  0.57965722  0.75464812  0.69757906  1
  Se  Se235  1  0.92159003  0.07939877  0.19583862  1
  Se  Se236  1  0.92266500  0.08339450  0.70151162  1
  Se  Se237  1  0.92076389  0.41919148  0.18389720  1
  Se  Se238  1  0.92083551  0.41072583  0.70264094  1
  Se  Se239  1  0.92319199  0.74966128  0.19369751  1
  Se  Se240  1  0.93987662  0.74101580  0.70193520  1
  Se  Se241  1  0.08530653  0.25135727  0.18671302  1
  Se  Se242  1  0.08463731  0.25320539  0.69931033  1
  Se  Se243  1  0.08216299  0.58441149  0.18639280  1
  Se  Se244  1  0.10087416  0.55999896  0.70915412  1
  Se  Se245  1  0.08261038  0.91602567  0.19313953  1
  Se  Se246  1  0.08724720  0.92107544  0.69802848  1
  Se  Se247  1  0.41731355  0.24284242  0.18528075  1
  Se  Se248  1  0.41790259  0.25037182  0.69815962  1
  Se  Se249  1  0.40525393  0.58358062  0.20150692  1
  Se  Se250  1  0.42330318  0.58043551  0.69503255  1
  Se  Se251  1  0.41123952  0.91372235  0.19119981  1
  Se  Se252  1  0.41880395  0.92734429  0.70771185  1
  Se  Se253  1  0.76035109  0.24624498  0.18234587  1
  Se  Se254  1  0.76094135  0.23512343  0.69081396  1
  Se  Se255  1  0.75679872  0.57945449  0.18239206  1
  Se  Se256  1  0.75845796  0.57975485  0.69905623  1
  Se  Se257  1  0.75273196  0.91364323  0.19755512  1
  Se  Se258  1  0.75528383  0.89929927  0.69630192  1
