# generated using pymatgen
data_In86Cu29Se144
_symmetry_space_group_name_H-M   'P 1'
_cell_length_a   17.58626255
_cell_length_b   17.58853985
_cell_length_c   23.44744278
_cell_angle_alpha   90.00534031
_cell_angle_beta   90.03270301
_cell_angle_gamma   89.99369408
_symmetry_Int_Tables_number   1
_chemical_formula_structural   In86Cu29Se144
_chemical_formula_sum   'In86 Cu29 Se144'
_cell_volume   7252.68389152
_cell_formula_units_Z   1
loop_
 _symmetry_equiv_pos_site_id
 _symmetry_equiv_pos_as_xyz
  1  'x, y, z'
loop_
 _atom_site_type_symbol
 _atom_site_label
 _atom_site_symmetry_multiplicity
 _atom_site_fract_x
 _atom_site_fract_y
 _atom_site_fract_z
 _atom_site_occupancy
  In  In0  1  0.00479096  0.18136941  0.12518646  1
  In  In1  1  0.00511503  0.16396075  0.63167871  1
  In  In2  1  0.00650624  0.49761680  0.12697777  1
  In  In3  1  0.01833520  0.48681209  0.63134628  1
  In  In4  1  0.00419910  0.82029297  0.12723588  1
  In  In5  1  -0.00860305  0.83654389  0.63003920  1
  In  In6  1  0.34405697  0.16127188  0.12167820  1
  In  In7  1  0.34247670  0.17016467  0.64169707  1
  In  In8  1  0.33867692  0.50580655  0.12866744  1
  In  In9  1  0.33358156  0.50177009  0.62419432  1
  In  In10  1  0.31838134  0.82703565  0.11797924  1
  In  In11  1  0.34939017  0.82338642  0.63966210  1
  In  In12  1  0.64883232  0.18779953  0.14511421  1
  In  In13  1  0.65430565  0.15337135  0.62591763  1
  In  In14  1  0.64169206  0.51359599  0.14802672  1
  In  In15  1  0.66047138  0.51557131  0.61965551  1
  In  In16  1  0.66817882  0.82766716  0.13291178  1
  In  In17  1  0.67708751  0.83478161  0.61716296  1
  In  In18  1  0.16591285  0.00624297  0.37939471  1
  In  In19  1  0.16386901  -0.00670748  0.86719293  1
  In  In20  1  0.19648379  0.35597682  0.35114051  1
  In  In21  1  0.18125446  0.34762994  0.87331388  1
  In  In22  1  0.15589341  0.65390609  0.36890427  1
  In  In23  1  0.17518827  0.67207321  0.87972322  1
  In  In24  1  0.50112318  -0.01360680  0.37921323  1
  In  In25  1  0.50567203  0.00427373  0.86084080  1
  In  In26  1  0.50611985  0.34841470  0.35983045  1
  In  In27  1  0.48817376  0.34908687  0.88655266  1
  In  In28  1  0.49504063  0.66728306  0.36757284  1
  In  In29  1  0.47279648  0.67095011  0.87966657  1
  In  In30  1  0.81762286  -0.00308004  0.37630875  1
  In  In31  1  0.83021540  -0.00208989  0.86743408  1
  In  In32  1  0.83785134  0.33141032  0.36085457  1
  In  In33  1  0.83333766  0.32293522  0.87613586  1
  In  In34  1  0.83496235  0.67600053  0.37231884  1
  In  In35  1  0.83989601  0.65383206  0.87455796  1
  In  In36  1  -0.00202739  0.17642409  0.37086564  1
  In  In37  1  -0.00225855  0.16711245  0.86784646  1
  In  In38  1  0.00606346  0.50396396  0.37329118  1
  In  In39  1  0.01931516  0.51513729  0.86864996  1
  In  In40  1  0.00249250  0.81274393  0.37977669  1
  In  In41  1  0.00858246  0.84086926  0.86750493  1
  In  In42  1  0.32726819  0.18755372  0.37397483  1
  In  In43  1  0.34922165  0.17858914  0.86315039  1
  In  In44  1  0.33295835  0.50281206  0.37226012  1
  In  In45  1  0.33445339  0.50464633  0.88057422  1
  In  In46  1  0.34940533  0.83602567  0.38049479  1
  In  In47  1  0.32936810  0.81730330  0.85812185  1
  In  In48  1  0.67421029  0.16258156  0.36066091  1
  In  In49  1  0.66461045  0.15844284  0.87524592  1
  In  In50  1  0.64786414  0.49936439  0.35956653  1
  In  In51  1  0.66079943  0.49186523  0.88240369  1
  In  In52  1  0.66208494  0.83401421  0.37202447  1
  In  In53  1  0.64884360  0.83932665  0.87170949  1
  In  In54  1  0.17780886  -0.00617298  0.11623648  1
  In  In55  1  0.16883988  -0.00235137  0.63479964  1
  In  In56  1  0.15536891  0.34952487  0.13048938  1
  In  In57  1  0.16943418  0.33480952  0.62738318  1
  In  In58  1  0.16823825  0.66354821  0.12487783  1
  In  In59  1  0.18145861  0.65204997  0.63041408  1
  In  In60  1  0.49662737  0.01125049  0.12042361  1
  In  In61  1  0.52321668  -0.01816759  0.65463254  1
  In  In62  1  0.49664588  0.33535737  0.13055263  1
  In  In63  1  0.48558426  0.33290753  0.62619516  1
  In  In64  1  0.50483442  0.65687576  0.13098567  1
  In  In65  1  0.49161010  0.65728561  0.61870668  1
  In  In66  1  0.82502700  -0.00899935  0.12542636  1
  In  In67  1  0.84032567  -0.00719268  0.62874402  1
  In  In68  1  0.82865015  0.33622498  0.13858251  1
  In  In69  1  0.84156643  0.34178585  0.62120759  1
  In  In70  1  0.82930090  0.66409296  0.13204706  1
  In  In71  1  0.82792089  0.67699213  0.62265692  1
  In  In72  1  0.16812182  0.17218528  0.49953674  1
  In  In73  1  0.49828425  0.16572007  0.50486558  1
  In  In74  1  0.66644646  0.66835351  0.75301908  1
  In  In75  1  0.49075751  0.82469231  -0.00518047  1
  In  In76  1  0.17377850  0.17145060  -0.00359471  1
  In  In77  1  0.82965389  0.51195613  0.49108686  1
  In  In78  1  0.66766489  0.32986293  0.74855905  1
  In  In79  1  -0.00513910  0.00339069  0.25347173  1
  In  In80  1  0.82954866  0.49705553  0.00600871  1
  In  In81  1  0.83194228  0.82899021  0.00832651  1
  In  In82  1  0.82692030  0.16559431  0.01061226  1
  In  In83  1  0.33498974  0.00095948  0.24892474  1
  In  In84  1  0.17162337  0.82027109  0.51091388  1
  In  In85  1  0.83263318  0.16615677  0.48635465  1
  Cu  Cu86  1  0.83519012  0.16563850  0.74895672  1
  Cu  Cu87  1  0.16913996  0.82867370  0.24967183  1
  Cu  Cu88  1  0.17288286  0.49836049  0.75318793  1
  Cu  Cu89  1  0.00503241  0.34634590  -0.00362221  1
  Cu  Cu90  1  0.33437905  0.34561614  0.49835937  1
  Cu  Cu91  1  0.16197463  0.82485841  0.74769385  1
  Cu  Cu92  1  0.65348980  0.33197024  0.01264094  1
  Cu  Cu93  1  0.82825161  0.83202004  0.25127792  1
  Cu  Cu94  1  0.65210535  0.67220579  0.49347704  1
  Cu  Cu95  1  0.65701050  0.34503228  0.49077914  1
  Cu  Cu96  1  -0.00327146  -0.01272899  0.50480634  1
  Cu  Cu97  1  0.33495865  0.66450940  0.49915898  1
  Cu  Cu98  1  0.83552421  0.50676024  0.25350061  1
  Cu  Cu99  1  0.33408018  -0.00325527  -0.00890253  1
  Cu  Cu100  1  0.49947750  0.83404382  0.25028282  1
  Cu  Cu101  1  0.34247429  0.00003487  0.50928384  1
  Cu  Cu102  1  0.49115714  0.50031791  0.75241670  1
  Cu  Cu103  1  0.00978511  0.67297175  -0.00143000  1
  Cu  Cu104  1  0.65504146  -0.00097846  -0.00331313  1
  Cu  Cu105  1  -0.00151353  0.65869731  0.50052596  1
  Cu  Cu106  1  0.00650901  -0.00104129  -0.00875613  1
  Cu  Cu107  1  0.83401820  0.83407719  0.74784137  1
  Cu  Cu108  1  0.66299269  -0.00530614  0.50179213  1
  Cu  Cu109  1  0.49682070  0.16402869  0.24912215  1
  Cu  Cu110  1  0.33579535  0.33814593  0.00258077  1
  Cu  Cu111  1  0.00722111  0.33553288  0.49985792  1
  Cu  Cu112  1  0.16130853  0.17238931  0.75514480  1
  Cu  Cu113  1  0.84841537  0.49667448  0.74963393  1
  Cu  Cu114  1  0.16449504  0.50902210  0.24710867  1
  Se  Se115  1  0.07857037  0.08146036  0.05573505  1
  Se  Se116  1  0.07985849  0.07302616  0.55674465  1
  Se  Se117  1  0.08774630  0.42705444  0.05042081  1
  Se  Se118  1  0.09277888  0.41530767  0.55234190  1
  Se  Se119  1  0.09161328  0.75512581  0.05397802  1
  Se  Se120  1  0.07528373  0.73504734  0.56721941  1
  Se  Se121  1  0.41454350  0.08142725  0.04491691  1
  Se  Se122  1  0.41890508  0.07820468  0.57157908  1
  Se  Se123  1  0.41876864  0.41799461  0.05912794  1
  Se  Se124  1  0.42109603  0.42276646  0.55375520  1
  Se  Se125  1  0.41047890  0.73567416  0.06105348  1
  Se  Se126  1  0.41245658  0.75129444  0.55463341  1
  Se  Se127  1  0.73163465  0.07517995  0.06272834  1
  Se  Se128  1  0.74791910  0.07975529  0.55517198  1
  Se  Se129  1  0.73970495  0.41168242  0.06767046  1
  Se  Se130  1  0.74287465  0.41606307  0.55385611  1
  Se  Se131  1  0.73709149  0.73581003  0.05793789  1
  Se  Se132  1  0.74643373  0.74442022  0.54572606  1
  Se  Se133  1  0.25394720  0.25956431  0.06370140  1
  Se  Se134  1  0.26631579  0.25369664  0.55915161  1
  Se  Se135  1  0.24953319  0.57866752  0.05848273  1
  Se  Se136  1  0.25082844  0.57953149  0.55003471  1
  Se  Se137  1  0.25034016  0.91293055  0.04264816  1
  Se  Se138  1  0.25806626  0.91894493  0.56419426  1
  Se  Se139  1  0.57275113  0.24188176  0.06055464  1
  Se  Se140  1  0.59245407  0.26150725  0.55907983  1
  Se  Se141  1  0.58470098  0.57623703  0.05956369  1
  Se  Se142  1  0.57606330  0.58180799  0.54539917  1
  Se  Se143  1  0.58327752  0.91295481  0.05871402  1
  Se  Se144  1  0.57957540  0.92168256  0.56246704  1
  Se  Se145  1  0.92077970  0.26828580  0.05513210  1
  Se  Se146  1  0.92549326  0.24954572  0.55326431  1
  Se  Se147  1  0.92402806  0.59486569  0.05726279  1
  Se  Se148  1  0.92055342  0.57955506  0.56479871  1
  Se  Se149  1  0.92942962  0.92399852  0.05837539  1
  Se  Se150  1  0.90888419  0.90739508  0.55350373  1
  Se  Se151  1  0.08673990  0.26204694  0.43527452  1
  Se  Se152  1  0.07787325  0.25773746  0.93796864  1
  Se  Se153  1  0.08523480  0.57926034  0.44887205  1
  Se  Se154  1  0.09142456  0.58550011  0.94831440  1
  Se  Se155  1  0.08437403  0.91323661  0.44558858  1
  Se  Se156  1  0.08943361  0.91301390  0.94341633  1
  Se  Se157  1  0.41811440  0.26223413  0.44293763  1
  Se  Se158  1  0.41298466  0.24967647  0.94838896  1
  Se  Se159  1  0.41651843  0.58477867  0.44104411  1
  Se  Se160  1  0.43521277  0.56615140  0.94851199  1
  Se  Se161  1  0.42327492  0.91476131  0.45611774  1
  Se  Se162  1  0.41425502  0.91896061  0.93024082  1
  Se  Se163  1  0.73905035  0.26282274  0.43537220  1
  Se  Se164  1  0.73660025  0.25774094  0.94916880  1
  Se  Se165  1  0.73117728  0.59111736  0.43128586  1
  Se  Se166  1  0.74261607  0.59020035  0.94484954  1
  Se  Se167  1  0.74480213  0.91144011  0.44714001  1
  Se  Se168  1  0.74366509  0.91998709  0.94322670  1
  Se  Se169  1  0.26679918  0.07869387  0.44564914  1
  Se  Se170  1  0.25567971  0.08135564  0.93219821  1
  Se  Se171  1  0.24642915  0.42088322  0.44278613  1
  Se  Se172  1  0.25076257  0.42221268  0.95195659  1
  Se  Se173  1  0.25333182  0.74268520  0.43713576  1
  Se  Se174  1  0.27138123  0.74678474  0.94289862  1
  Se  Se175  1  0.59274125  0.08254935  0.44044165  1
  Se  Se176  1  0.57526812  0.08171521  0.94190787  1
  Se  Se177  1  0.57350888  0.42636083  0.43951652  1
  Se  Se178  1  0.57952264  0.42006366  0.95664454  1
  Se  Se179  1  0.57189839  0.75509706  0.43815168  1
  Se  Se180  1  0.58890240  0.73776772  0.93945703  1
  Se  Se181  1  0.92968275  0.06989514  0.43730893  1
  Se  Se182  1  0.91657562  0.08042856  0.94247065  1
  Se  Se183  1  0.91828180  0.40941203  0.44107718  1
  Se  Se184  1  0.91954316  0.41968444  0.93538605  1
  Se  Se185  1  0.91410744  0.74495217  0.45219674  1
  Se  Se186  1  0.92212416  0.74793760  0.94091234  1
  Se  Se187  1  0.24095606  0.23738834  0.29557640  1
  Se  Se188  1  0.24951496  0.25469627  0.80431119  1
  Se  Se189  1  0.25211045  0.58801350  0.30137342  1
  Se  Se190  1  0.25191614  0.58376326  0.80882148  1
  Se  Se191  1  0.24355857  0.91185121  0.31224878  1
  Se  Se192  1  0.24622550  0.91068182  0.79861547  1
  Se  Se193  1  0.58207251  0.24724808  0.30170807  1
  Se  Se194  1  0.57928803  0.25760297  0.81874597  1
  Se  Se195  1  0.55098516  0.56965357  0.29315184  1
  Se  Se196  1  0.57780764  0.57574774  0.81155961  1
  Se  Se197  1  0.58190981  0.92058334  0.30172224  1
  Se  Se198  1  0.58953724  0.92028663  0.79386076  1
  Se  Se199  1  0.92172163  0.24944429  0.29594365  1
  Se  Se200  1  0.91506602  0.25278798  0.80111458  1
  Se  Se201  1  0.91882906  0.58806683  0.30885105  1
  Se  Se202  1  0.92520984  0.58720931  0.80058184  1
  Se  Se203  1  0.91355704  0.90487854  0.31404573  1
  Se  Se204  1  0.91775696  0.91857834  0.80157764  1
  Se  Se205  1  0.09412574  0.09165805  0.30620226  1
  Se  Se206  1  0.07972423  0.08156349  0.80258618  1
  Se  Se207  1  0.08233847  0.42167774  0.30050748  1
  Se  Se208  1  0.08534319  0.41449176  0.80414862  1
  Se  Se209  1  0.08149589  0.74729844  0.30137359  1
  Se  Se210  1  0.08419490  0.74318829  0.80713398  1
  Se  Se211  1  0.42029309  0.08887079  0.31621557  1
  Se  Se212  1  0.40463475  0.07327727  0.79920492  1
  Se  Se213  1  0.38451296  0.39109667  0.30855205  1
  Se  Se214  1  0.41043665  0.41710872  0.80754283  1
  Se  Se215  1  0.41011416  0.75508683  0.30111691  1
  Se  Se216  1  0.44089047  0.76162024  0.79864118  1
  Se  Se217  1  0.76400334  0.08300817  0.29849366  1
  Se  Se218  1  0.74903532  0.08616911  0.80255771  1
  Se  Se219  1  0.75026893  0.42215822  0.30356494  1
  Se  Se220  1  0.75896218  0.42417567  0.80888080  1
  Se  Se221  1  0.74366012  0.74830920  0.30371342  1
  Se  Se222  1  0.75862699  0.75791147  0.81451471  1
  Se  Se223  1  0.24215160  0.08749260  0.18847972  1
  Se  Se224  1  0.24340734  0.09113417  0.69908841  1
  Se  Se225  1  0.24870600  0.42433196  0.19547759  1
  Se  Se226  1  0.25405285  0.41705451  0.69458529  1
  Se  Se227  1  0.25192731  0.74701596  0.19589731  1
  Se  Se228  1  0.25268048  0.74423310  0.69866193  1
  Se  Se229  1  0.57867063  0.07647214  0.19813877  1
  Se  Se230  1  0.57649299  0.09951065  0.70735709  1
  Se  Se231  1  0.60170161  0.38987987  0.19757243  1
  Se  Se232  1  0.58027643  0.42866397  0.69160648  1
  Se  Se233  1  0.58212778  0.74771932  0.19903972  1
  Se  Se234  1  0.58468110  0.74774695  0.68207937  1
  Se  Se235  1  0.91373248  0.08619431  0.18304639  1
  Se  Se236  1  0.91857135  0.08081931  0.69586985  1
  Se  Se237  1  0.91699021  0.42469684  0.19700166  1
  Se  Se238  1  0.92477048  0.40864349  0.69615656  1
  Se  Se239  1  0.91318443  0.75152073  0.19661202  1
  Se  Se240  1  0.91373151  0.74536394  0.69677190  1
  Se  Se241  1  0.08346565  0.25587499  0.19676908  1
  Se  Se242  1  0.08296050  0.25445624  0.69546504  1
  Se  Se243  1  0.07733861  0.59099987  0.19527270  1
  Se  Se244  1  0.08807276  0.58078720  0.69879985  1
  Se  Se245  1  0.09084019  0.91529343  0.19238927  1
  Se  Se246  1  0.08051732  0.91340056  0.69724843  1
  Se  Se247  1  0.41247072  0.24537621  0.19599898  1
  Se  Se248  1  0.42254895  0.25845066  0.70620150  1
  Se  Se249  1  0.43232068  0.56893535  0.20292769  1
  Se  Se250  1  0.41326753  0.58595504  0.69603268  1
  Se  Se251  1  0.41866718  0.90923630  0.18503581  1
  Se  Se252  1  0.39705652  0.93746676  0.69878840  1
  Se  Se253  1  0.76492828  0.23450823  0.20075621  1
  Se  Se254  1  0.75814600  0.24264532  0.68309914  1
  Se  Se255  1  0.74658529  0.58824046  0.20390887  1
  Se  Se256  1  0.75973197  0.57435066  0.69356599  1
  Se  Se257  1  0.74587036  0.91710572  0.19999472  1
  Se  Se258  1  0.74875862  0.91524193  0.69424980  1
