# generated using pymatgen
data_In86Cu29Se144
_symmetry_space_group_name_H-M   'P 1'
_cell_length_a   17.58406849
_cell_length_b   17.58697522
_cell_length_c   23.44622079
_cell_angle_alpha   89.99419923
_cell_angle_beta   89.98119174
_cell_angle_gamma   89.98393776
_symmetry_Int_Tables_number   1
_chemical_formula_structural   In86Cu29Se144
_chemical_formula_sum   'In86 Cu29 Se144'
_cell_volume   7250.75659206
_cell_formula_units_Z   1
loop_
 _symmetry_equiv_pos_site_id
 _symmetry_equiv_pos_as_xyz
  1  'x, y, z'
loop_
 _atom_site_type_symbol
 _atom_site_label
 _atom_site_symmetry_multiplicity
 _atom_site_fract_x
 _atom_site_fract_y
 _atom_site_fract_z
 _atom_site_occupancy
  In  In0  1  -0.01281487  0.16585146  0.12700559  1
  In  In1  1  0.00435988  0.15978650  0.63136252  1
  In  In2  1  -0.00244245  0.50422356  0.12259995  1
  In  In3  1  -0.01556637  0.48802870  0.61815198  1
  In  In4  1  0.01282763  0.82960944  0.12711657  1
  In  In5  1  0.01380505  0.84089376  0.62183675  1
  In  In6  1  0.33878987  0.15741144  0.12994023  1
  In  In7  1  0.36023327  0.20037047  0.59579649  1
  In  In8  1  0.35924953  0.49389304  0.13745422  1
  In  In9  1  0.32758671  0.47117096  0.60051459  1
  In  In10  1  0.32890697  0.83690646  0.13305337  1
  In  In11  1  0.33366895  0.83415005  0.61607776  1
  In  In12  1  0.65713796  0.18102168  0.13077005  1
  In  In13  1  0.62931888  0.18929699  0.65216093  1
  In  In14  1  0.65593955  0.49407695  0.11990921  1
  In  In15  1  0.66686741  0.49755292  0.62326350  1
  In  In16  1  0.67321565  0.83503221  0.12617884  1
  In  In17  1  0.65737487  0.84272807  0.63030766  1
  In  In18  1  0.16377258  -0.00290934  0.37740395  1
  In  In19  1  0.15999941  0.00182673  0.87509465  1
  In  In20  1  0.18346190  0.32535776  0.40047588  1
  In  In21  1  0.16195495  0.32637383  0.86330284  1
  In  In22  1  0.18128801  0.65470724  0.38532421  1
  In  In23  1  0.18024273  0.66986651  0.87897307  1
  In  In24  1  0.49639938  0.00067974  0.37339449  1
  In  In25  1  0.51268890  0.00460176  0.87048405  1
  In  In26  1  0.50299665  0.32523034  0.38777020  1
  In  In27  1  0.50425318  0.33139169  0.86902919  1
  In  In28  1  0.49681953  0.68148987  0.37946904  1
  In  In29  1  0.50222016  0.65007406  0.87632674  1
  In  In30  1  0.83403126  0.00115440  0.36612278  1
  In  In31  1  0.83816046  0.00193525  0.86874974  1
  In  In32  1  0.81854650  0.35031094  0.38233181  1
  In  In33  1  0.84060683  0.34573561  0.86901798  1
  In  In34  1  0.82376026  0.64628783  0.37245095  1
  In  In35  1  0.81541105  0.65748370  0.87210067  1
  In  In36  1  0.00875793  0.16721669  0.37669638  1
  In  In37  1  0.00467363  0.16709793  0.86557118  1
  In  In38  1  0.00391687  0.49760811  0.38198582  1
  In  In39  1  -0.00672022  0.48187994  0.87143316  1
  In  In40  1  -0.00014252  0.84476247  0.37479299  1
  In  In41  1  0.00338186  0.84563239  0.87762024  1
  In  In42  1  0.34232198  0.15610236  0.38517439  1
  In  In43  1  0.33994160  0.18079212  0.86837049  1
  In  In44  1  0.33742201  0.49983355  0.38315891  1
  In  In45  1  0.34634511  0.49865024  0.87406723  1
  In  In46  1  0.33030014  0.83511359  0.37556618  1
  In  In47  1  0.33223300  0.82108948  0.88160926  1
  In  In48  1  0.66293505  0.16411033  0.37506704  1
  In  In49  1  0.65714009  0.16464279  0.86399682  1
  In  In50  1  0.66137783  0.48943738  0.38485122  1
  In  In51  1  0.66516616  0.49834602  0.87136173  1
  In  In52  1  0.65409225  0.83566864  0.37399954  1
  In  In53  1  0.67251984  0.83304981  0.86575819  1
  In  In54  1  0.17639608  -0.00885936  0.13386151  1
  In  In55  1  0.16601365  0.00125387  0.62142580  1
  In  In56  1  0.16937622  0.34214689  0.12550068  1
  In  In57  1  0.16636210  0.32616496  0.62088867  1
  In  In58  1  0.16142388  0.67681915  0.12762429  1
  In  In59  1  0.17135482  0.66944559  0.61744535  1
  In  In60  1  0.49369141  0.00829876  0.13191098  1
  In  In61  1  0.50592013  0.01107384  0.61671904  1
  In  In62  1  0.51505002  0.34966910  0.11137322  1
  In  In63  1  0.50331926  0.33521744  0.62041312  1
  In  In64  1  0.50066962  0.63747854  0.13325000  1
  In  In65  1  0.50161864  0.66743097  0.62335089  1
  In  In66  1  0.82966556  0.00757786  0.13544517  1
  In  In67  1  0.82582880  0.00794971  0.63304335  1
  In  In68  1  0.81971307  0.32943078  0.12359058  1
  In  In69  1  0.81834478  0.34120138  0.63203123  1
  In  In70  1  0.82429564  0.65642294  0.11611369  1
  In  In71  1  0.82776977  0.65040101  0.62195933  1
  In  In72  1  0.83817807  0.82955872  0.00523651  1
  In  In73  1  -0.00176987  0.33038656  0.25328466  1
  In  In74  1  0.66386027  0.66756290  0.24677059  1
  In  In75  1  0.83215170  0.17305100  -0.00482929  1
  In  In76  1  0.83344845  0.82894610  0.49074702  1
  In  In77  1  0.00158947  0.66760446  0.73972602  1
  In  In78  1  0.16966126  0.50397777  -0.00024151  1
  In  In79  1  0.34068826  0.65726546  0.74737218  1
  In  In80  1  0.00088853  0.66638336  0.25283860  1
  In  In81  1  0.17022164  0.16932388  -0.00646276  1
  In  In82  1  0.34459869  0.32357099  0.26613746  1
  In  In83  1  0.50093717  0.82974637  -0.00056271  1
  In  In84  1  0.82226498  0.17081117  0.50553470  1
  In  In85  1  0.33315683  0.00903471  0.74302272  1
  Cu  Cu86  1  0.83466339  0.83522497  0.24754135  1
  Cu  Cu87  1  -0.00177444  0.33190822  0.50333260  1
  Cu  Cu88  1  -0.00149269  0.66549348  0.00118763  1
  Cu  Cu89  1  0.17238653  0.49414597  0.26248681  1
  Cu  Cu90  1  0.34085810  0.33358867  -0.00343598  1
  Cu  Cu91  1  0.50651241  0.83320369  0.74613232  1
  Cu  Cu92  1  0.33857503  0.67177658  0.49924736  1
  Cu  Cu93  1  0.82819913  0.16820114  0.25265830  1
  Cu  Cu94  1  0.82740937  0.49697365  0.74653885  1
  Cu  Cu95  1  0.16711690  0.83634463  0.25334298  1
  Cu  Cu96  1  0.00439967  0.66512575  0.50181083  1
  Cu  Cu97  1  0.49461098  0.83897709  0.25346227  1
  Cu  Cu98  1  0.65438602  0.00547675  0.50105333  1
  Cu  Cu99  1  0.32843793  -0.00574237  0.49715647  1
  Cu  Cu100  1  0.83399095  0.16497136  0.75062118  1
  Cu  Cu101  1  0.49967429  0.49168874  0.74505431  1
  Cu  Cu102  1  0.01143257  -0.00153677  0.00300037  1
  Cu  Cu103  1  0.66687640  0.00598803  -0.00410922  1
  Cu  Cu104  1  0.17134989  0.16799604  0.74325560  1
  Cu  Cu105  1  0.83805605  0.83257518  0.75188683  1
  Cu  Cu106  1  0.16499712  0.84051666  0.74863752  1
  Cu  Cu107  1  0.33511243  -0.00052180  0.00816937  1
  Cu  Cu108  1  0.50145237  0.16890959  0.25475836  1
  Cu  Cu109  1  0.00006140  0.00116489  0.50191141  1
  Cu  Cu110  1  0.16900247  0.48878187  0.74053644  1
  Cu  Cu111  1  0.66610778  0.66469500  0.49858518  1
  Cu  Cu112  1  0.16352374  0.15630173  0.25383109  1
  Cu  Cu113  1  0.66095190  0.33832489  -0.00444643  1
  Cu  Cu114  1  0.33090324  0.66763889  0.00826942  1
  Se  Se115  1  0.08529109  0.08353030  0.06321594  1
  Se  Se116  1  0.08166795  0.08607566  0.55413239  1
  Se  Se117  1  0.07676998  0.40946896  0.05436748  1
  Se  Se118  1  0.08242899  0.41630889  0.55545143  1
  Se  Se119  1  0.08324955  0.74990448  0.05056652  1
  Se  Se120  1  0.08523865  0.75259023  0.55161093  1
  Se  Se121  1  0.42022769  0.08591483  0.05421245  1
  Se  Se122  1  0.41453090  0.07969092  0.54649560  1
  Se  Se123  1  0.41582903  0.42446664  0.04981271  1
  Se  Se124  1  0.44734509  0.43041157  0.54323990  1
  Se  Se125  1  0.41579350  0.74533192  0.06655130  1
  Se  Se126  1  0.42317131  0.75326510  0.55320715  1
  Se  Se127  1  0.74556782  0.08359997  0.05921857  1
  Se  Se128  1  0.73408197  0.08045169  0.56414230  1
  Se  Se129  1  0.74592633  0.41488987  0.05286828  1
  Se  Se130  1  0.75924555  0.42511638  0.55470495  1
  Se  Se131  1  0.73360677  0.74102770  0.05054026  1
  Se  Se132  1  0.74535439  0.74871837  0.55856990  1
  Se  Se133  1  0.25980825  0.25757334  0.05911398  1
  Se  Se134  1  0.24250229  0.25097501  0.54381347  1
  Se  Se135  1  0.25584469  0.58321729  0.06945304  1
  Se  Se136  1  0.25784211  0.58685504  0.55340272  1
  Se  Se137  1  0.25084146  0.91476406  0.05688636  1
  Se  Se138  1  0.24401859  0.91405769  0.55237007  1
  Se  Se139  1  0.58338790  0.24790712  0.04883679  1
  Se  Se140  1  0.58037503  0.23845240  0.55703677  1
  Se  Se141  1  0.58510460  0.58925899  0.05343408  1
  Se  Se142  1  0.58474425  0.58446435  0.55561963  1
  Se  Se143  1  0.58916641  0.92553057  0.05802060  1
  Se  Se144  1  0.57879397  0.91253045  0.55231963  1
  Se  Se145  1  0.92381157  0.26110474  0.05570031  1
  Se  Se146  1  0.91778951  0.25388385  0.56595544  1
  Se  Se147  1  0.91562282  0.58018278  0.05038810  1
  Se  Se148  1  0.91533728  0.58279222  0.54949666  1
  Se  Se149  1  0.92326116  0.92727347  0.06364490  1
  Se  Se150  1  0.91369631  0.92143052  0.55775272  1
  Se  Se151  1  0.08008026  0.24509347  0.45279338  1
  Se  Se152  1  0.07336786  0.25873380  0.94132549  1
  Se  Se153  1  0.08733212  0.57927971  0.44983965  1
  Se  Se154  1  0.07685392  0.58818567  0.93558198  1
  Se  Se155  1  0.08135296  0.91462496  0.44964720  1
  Se  Se156  1  0.09264976  0.91440746  0.94968073  1
  Se  Se157  1  0.39261502  0.26647730  0.44641781  1
  Se  Se158  1  0.42240086  0.24981157  0.94309255  1
  Se  Se159  1  0.42196586  0.58938103  0.44642675  1
  Se  Se160  1  0.40976264  0.58705277  0.94890831  1
  Se  Se161  1  0.41710247  0.91558814  0.44345792  1
  Se  Se162  1  0.41304588  0.92482984  0.93956728  1
  Se  Se163  1  0.73306574  0.26098296  0.44742244  1
  Se  Se164  1  0.74100481  0.25791864  0.93414276  1
  Se  Se165  1  0.74855101  0.57663769  0.45014499  1
  Se  Se166  1  0.75038709  0.57251067  0.94442968  1
  Se  Se167  1  0.74125006  0.92940727  0.44149938  1
  Se  Se168  1  0.75004913  0.92214993  0.94265092  1
  Se  Se169  1  0.24463873  0.08064917  0.44685311  1
  Se  Se170  1  0.26377437  0.07722451  0.93805380  1
  Se  Se171  1  0.24662250  0.43300556  0.45528099  1
  Se  Se172  1  0.25244250  0.40752005  0.93754961  1
  Se  Se173  1  0.24977804  0.75422093  0.44884347  1
  Se  Se174  1  0.24786829  0.75166664  0.95583407  1
  Se  Se175  1  0.57502319  0.08729217  0.44378456  1
  Se  Se176  1  0.58380394  0.08873883  0.94394916  1
  Se  Se177  1  0.56949700  0.42248479  0.45668053  1
  Se  Se178  1  0.57655196  0.41955385  0.94071096  1
  Se  Se179  1  0.58595234  0.75568995  0.45031178  1
  Se  Se180  1  0.59070516  0.74553097  0.93609807  1
  Se  Se181  1  0.91514625  0.07980261  0.44390783  1
  Se  Se182  1  0.92969858  0.07678562  0.94299906  1
  Se  Se183  1  0.91778959  0.41506351  0.44795951  1
  Se  Se184  1  0.91177115  0.41897500  0.94821677  1
  Se  Se185  1  0.92389214  0.73455156  0.43348384  1
  Se  Se186  1  0.92085344  0.74288916  0.93591132  1
  Se  Se187  1  0.23954611  0.23907381  0.31534107  1
  Se  Se188  1  0.25338901  0.25196261  0.79713623  1
  Se  Se189  1  0.25744536  0.58062907  0.30881708  1
  Se  Se190  1  0.24131374  0.57086259  0.80543242  1
  Se  Se191  1  0.24966754  0.92063218  0.30632931  1
  Se  Se192  1  0.25258278  0.91147421  0.80964482  1
  Se  Se193  1  0.58071242  0.25311425  0.30981066  1
  Se  Se194  1  0.58232292  0.25150461  0.79587893  1
  Se  Se195  1  0.58160168  0.58650180  0.31611605  1
  Se  Se196  1  0.57935255  0.57878950  0.79983287  1
  Se  Se197  1  0.58304094  0.92125495  0.30212226  1
  Se  Se198  1  0.58684945  0.91710188  0.80133670  1
  Se  Se199  1  0.90503045  0.24694533  0.31693635  1
  Se  Se200  1  0.91606190  0.25028484  0.80382632  1
  Se  Se201  1  0.91309474  0.56622594  0.30360907  1
  Se  Se202  1  0.91362850  0.57947114  0.80355484  1
  Se  Se203  1  0.91904481  0.91713659  0.30010221  1
  Se  Se204  1  0.92251246  0.91652452  0.80277310  1
  Se  Se205  1  0.07694867  0.07699687  0.30625624  1
  Se  Se206  1  0.09061604  0.08358856  0.79978785  1
  Se  Se207  1  0.09518229  0.40802036  0.31790152  1
  Se  Se208  1  0.08125631  0.41508865  0.79807949  1
  Se  Se209  1  0.09196389  0.75145537  0.31459058  1
  Se  Se210  1  0.09107579  0.75216837  0.80753038  1
  Se  Se211  1  0.41369634  0.08567632  0.30384171  1
  Se  Se212  1  0.42741049  0.09249325  0.80297454  1
  Se  Se213  1  0.43166699  0.42369609  0.31438494  1
  Se  Se214  1  0.41433751  0.41334882  0.80135787  1
  Se  Se215  1  0.41341506  0.75294876  0.30481940  1
  Se  Se216  1  0.42574038  0.75486407  0.80788984  1
  Se  Se217  1  0.74415147  0.08281404  0.30374988  1
  Se  Se218  1  0.75049152  0.08077598  0.80371160  1
  Se  Se219  1  0.74205785  0.42167794  0.30696872  1
  Se  Se220  1  0.74536355  0.41366275  0.80127432  1
  Se  Se221  1  0.75800032  0.75583710  0.31007937  1
  Se  Se222  1  0.75175866  0.74630542  0.79812875  1
  Se  Se223  1  0.25348331  0.08183602  0.19973482  1
  Se  Se224  1  0.25338306  0.09866310  0.67800267  1
  Se  Se225  1  0.25268183  0.41505754  0.20078026  1
  Se  Se226  1  0.25530166  0.41092750  0.68655483  1
  Se  Se227  1  0.24607871  0.74936431  0.19937836  1
  Se  Se228  1  0.24791744  0.75612527  0.69428092  1
  Se  Se229  1  0.58438591  0.08681217  0.19729609  1
  Se  Se230  1  0.58934793  0.06282809  0.69819739  1
  Se  Se231  1  0.57524642  0.42138719  0.19446518  1
  Se  Se232  1  0.58791285  0.41232626  0.69336982  1
  Se  Se233  1  0.57083210  0.75924295  0.18817210  1
  Se  Se234  1  0.58589746  0.74433724  0.69522884  1
  Se  Se235  1  0.91748453  0.08634968  0.20312591  1
  Se  Se236  1  0.91898686  0.07961796  0.70004867  1
  Se  Se237  1  0.91214092  0.41826133  0.18986814  1
  Se  Se238  1  0.91583070  0.41361805  0.69828117  1
  Se  Se239  1  0.90705515  0.74988163  0.18642951  1
  Se  Se240  1  0.90990410  0.75827598  0.68160600  1
  Se  Se241  1  0.09296712  0.24232759  0.19087576  1
  Se  Se242  1  0.08252841  0.25237566  0.69568503  1
  Se  Se243  1  0.09441068  0.57035784  0.19669419  1
  Se  Se244  1  0.09096588  0.57387787  0.68342404  1
  Se  Se245  1  0.08101055  0.91680696  0.19943832  1
  Se  Se246  1  0.08352167  0.92439224  0.69650539  1
  Se  Se247  1  0.42710210  0.25039710  0.18954430  1
  Se  Se248  1  0.41619716  0.25347089  0.68759058  1
  Se  Se249  1  0.40609360  0.59332626  0.20914846  1
  Se  Se250  1  0.41615597  0.56514315  0.68173334  1
  Se  Se251  1  0.41214867  0.92267265  0.19856361  1
  Se  Se252  1  0.42126765  0.91038013  0.68871832  1
  Se  Se253  1  0.74650308  0.25426330  0.20069571  1
  Se  Se254  1  0.74821712  0.24851149  0.70076266  1
  Se  Se255  1  0.75408810  0.57358635  0.19172470  1
  Se  Se256  1  0.74468496  0.58367949  0.69700030  1
  Se  Se257  1  0.74661440  0.91813912  0.19839380  1
  Se  Se258  1  0.75152871  0.91356012  0.69774155  1
