# generated using pymatgen
data_In86Cu29Se144
_symmetry_space_group_name_H-M   'P 1'
_cell_length_a   17.72442231
_cell_length_b   17.71742587
_cell_length_c   23.58127914
_cell_angle_alpha   90.00919499
_cell_angle_beta   89.96641779
_cell_angle_gamma   90.01520533
_symmetry_Int_Tables_number   1
_chemical_formula_structural   In86Cu29Se144
_chemical_formula_sum   'In86 Cu29 Se144'
_cell_volume   7405.25430423
_cell_formula_units_Z   1
loop_
 _symmetry_equiv_pos_site_id
 _symmetry_equiv_pos_as_xyz
  1  'x, y, z'
loop_
 _atom_site_type_symbol
 _atom_site_label
 _atom_site_symmetry_multiplicity
 _atom_site_fract_x
 _atom_site_fract_y
 _atom_site_fract_z
 _atom_site_occupancy
  In  In0  1  0.01120246  0.16865217  0.13195781  1
  In  In1  1  -0.00217484  0.15480705  0.61186398  1
  In  In2  1  0.00021753  0.50604390  0.12426680  1
  In  In3  1  0.01278858  0.50381730  0.61672294  1
  In  In4  1  -0.00723106  0.82530618  0.12260051  1
  In  In5  1  -0.00915135  0.81237190  0.62171674  1
  In  In6  1  0.33916763  0.15365628  0.13117665  1
  In  In7  1  0.32836003  0.16443785  0.62332930  1
  In  In8  1  0.34257633  0.50684249  0.12223400  1
  In  In9  1  0.33673918  0.50465238  0.61909732  1
  In  In10  1  0.34884017  0.82105788  0.14126437  1
  In  In11  1  0.32068519  0.82337284  0.61542570  1
  In  In12  1  0.66098395  0.17728926  0.13274762  1
  In  In13  1  0.67105225  0.17107615  0.62833402  1
  In  In14  1  0.66520135  0.50166643  0.12013211  1
  In  In15  1  0.65917489  0.49508866  0.62524588  1
  In  In16  1  0.66784510  0.83382348  0.12647839  1
  In  In17  1  0.66183732  0.82836850  0.61330535  1
  In  In18  1  0.17558573  -0.00483138  0.38230347  1
  In  In19  1  0.16526310  0.00366271  0.86873645  1
  In  In20  1  0.14203716  0.35600786  0.39591434  1
  In  In21  1  0.17094923  0.34582568  0.87126310  1
  In  In22  1  0.16939863  0.66819118  0.37452929  1
  In  In23  1  0.15915502  0.65709356  0.86059192  1
  In  In24  1  0.49889256  -0.00956124  0.36313719  1
  In  In25  1  0.50548265  -0.00474252  0.88754056  1
  In  In26  1  0.51921432  0.33563148  0.36820604  1
  In  In27  1  0.50528131  0.33088460  0.88318378  1
  In  In28  1  0.48913439  0.67883629  0.37846722  1
  In  In29  1  0.49461033  0.66977105  0.88150342  1
  In  In30  1  0.81800678  -0.00246776  0.38200937  1
  In  In31  1  0.82727890  -0.00170172  0.88066841  1
  In  In32  1  0.84898302  0.34589467  0.35455544  1
  In  In33  1  0.84090724  0.34897871  0.87556328  1
  In  In34  1  0.83811272  0.66215737  0.38223346  1
  In  In35  1  0.82931148  0.67298372  0.87403603  1
  In  In36  1  -0.00787603  0.18438746  0.37998533  1
  In  In37  1  0.00862015  0.16411995  0.87304721  1
  In  In38  1  -0.00508709  0.50411387  0.37231161  1
  In  In39  1  -0.03176222  0.54827912  0.91413714  1
  In  In40  1  0.00628821  0.82070182  0.38150604  1
  In  In41  1  -0.00490722  0.81856145  0.86785664  1
  In  In42  1  0.33353975  0.15732976  0.36999235  1
  In  In43  1  0.33354170  0.17984732  0.87759565  1
  In  In44  1  0.32535574  0.51101383  0.37766657  1
  In  In45  1  0.32040453  0.51205522  0.88244323  1
  In  In46  1  0.33525685  0.83054717  0.37119562  1
  In  In47  1  0.34448662  0.82749402  0.87740755  1
  In  In48  1  0.67661924  0.16668861  0.35978428  1
  In  In49  1  0.65766133  0.16717173  0.88037492  1
  In  In50  1  0.67531765  0.49338408  0.37807012  1
  In  In51  1  0.67793256  0.49329479  0.88191847  1
  In  In52  1  0.65801856  0.84840420  0.39632332  1
  In  In53  1  0.66699714  0.82845923  0.88382811  1
  In  In54  1  0.17646586  0.00261267  0.13318340  1
  In  In55  1  0.10927765  -0.03936806  0.55539605  1
  In  In56  1  0.15612041  0.33985428  0.13194531  1
  In  In57  1  0.16225177  0.32827062  0.60929957  1
  In  In58  1  0.16916846  0.66251541  0.13020721  1
  In  In59  1  0.16702171  0.66377334  0.62521607  1
  In  In60  1  0.49789832  -0.00173666  0.12378770  1
  In  In61  1  0.50273587  -0.01887979  0.62016587  1
  In  In62  1  0.51083795  0.34415692  0.12053167  1
  In  In63  1  0.49784067  0.34421160  0.62814828  1
  In  In64  1  0.49886364  0.66561706  0.12317342  1
  In  In65  1  0.48996520  0.65934749  0.62040806  1
  In  In66  1  0.83632536  -0.02078063  0.12552612  1
  In  In67  1  0.82540319  -0.00924677  0.60791311  1
  In  In68  1  0.81761887  0.34884634  0.13701696  1
  In  In69  1  0.82110066  0.33087166  0.62626031  1
  In  In70  1  0.84026486  0.66812523  0.11749987  1
  In  In71  1  0.84714077  0.66953360  0.62362769  1
  In  In72  1  -0.00708805  -0.02009541  0.72720673  1
  In  In73  1  0.83151698  0.16844893  0.49265890  1
  In  In74  1  0.32957565  0.00494936  0.74509439  1
  In  In75  1  -0.00098362  0.34164432  0.74882688  1
  In  In76  1  -0.00145402  -0.00474088  0.26144844  1
  In  In77  1  0.16465627  0.83181834  0.00332790  1
  In  In78  1  0.33178493  0.34091010  0.75078752  1
  In  In79  1  0.83305205  0.17226720  0.01632582  1
  In  In80  1  0.33180966  0.33094252  0.25830012  1
  In  In81  1  0.17218554  0.17216616  0.00881019  1
  In  In82  1  0.66292458  0.67323339  0.25709908  1
  In  In83  1  0.50157086  0.16614192  0.48693396  1
  In  In84  1  0.66524413  -0.00326706  0.74157615  1
  In  In85  1  0.66569764  0.66436540  0.75621127  1
  Cu  Cu86  1  -0.00320984  -0.00495841  -0.00068915  1
  Cu  Cu87  1  0.49810448  0.82566958  0.75376012  1
  Cu  Cu88  1  0.83389495  0.50920811  0.25085036  1
  Cu  Cu89  1  0.34138823  0.33279432  0.00309967  1
  Cu  Cu90  1  0.50340735  0.16623899  0.24869775  1
  Cu  Cu91  1  0.49993463  0.49742563  0.74889252  1
  Cu  Cu92  1  0.16540612  0.50223895  0.25628175  1
  Cu  Cu93  1  0.66987565  0.65700050  0.50072968  1
  Cu  Cu94  1  0.66418937  0.33465080  0.49928750  1
  Cu  Cu95  1  0.16332879  0.50205400  0.74684502  1
  Cu  Cu96  1  0.83002739  0.16765075  0.74691490  1
  Cu  Cu97  1  0.16807851  0.83280267  0.73952980  1
  Cu  Cu98  1  0.83153684  0.82333048  0.24924626  1
  Cu  Cu99  1  0.33153562  0.66983732  0.00489928  1
  Cu  Cu100  1  0.16238524  0.17694832  0.25857807  1
  Cu  Cu101  1  0.33092332  0.66858868  0.49795694  1
  Cu  Cu102  1  0.66137205  0.66894944  0.00292511  1
  Cu  Cu103  1  0.83336742  0.50310070  0.75626204  1
  Cu  Cu104  1  0.00889189  0.34435469  0.00476895  1
  Cu  Cu105  1  0.16479059  0.83678767  0.25810333  1
  Cu  Cu106  1  0.00469336  0.65689782  0.49822184  1
  Cu  Cu107  1  0.50022539  0.16754036  0.75864317  1
  Cu  Cu108  1  0.33806714  0.00084270  0.00424601  1
  Cu  Cu109  1  0.66466991  -0.00444277  0.00380654  1
  Cu  Cu110  1  0.67115575  0.33420363  0.00443280  1
  Cu  Cu111  1  0.16224817  0.16042365  0.73822556  1
  Cu  Cu112  1  0.34160012  -0.00373269  0.49293056  1
  Cu  Cu113  1  0.50453126  0.50361026  0.24463092  1
  Cu  Cu114  1  0.34211829  0.33985377  0.49823345  1
  Se  Se115  1  0.07983017  0.07199971  0.05865859  1
  Se  Se116  1  0.10658380  0.10748335  0.55123673  1
  Se  Se117  1  0.09154431  0.42517789  0.05778372  1
  Se  Se118  1  0.07850771  0.41162430  0.54764283  1
  Se  Se119  1  0.07674726  0.73658431  0.05641461  1
  Se  Se120  1  0.08378688  0.74252020  0.55374681  1
  Se  Se121  1  0.41916425  0.08759380  0.05402377  1
  Se  Se122  1  0.41892911  0.07844983  0.55615108  1
  Se  Se123  1  0.42087867  0.42017442  0.05471757  1
  Se  Se124  1  0.42245378  0.42005210  0.55433661  1
  Se  Se125  1  0.41467274  0.75271348  0.05742777  1
  Se  Se126  1  0.41632627  0.74952190  0.55253642  1
  Se  Se127  1  0.74490269  0.07271258  0.06531247  1
  Se  Se128  1  0.73289030  0.08207117  0.55207966  1
  Se  Se129  1  0.75393318  0.42016655  0.05425381  1
  Se  Se130  1  0.74462537  0.41487147  0.55662014  1
  Se  Se131  1  0.74624498  0.74869510  0.05745636  1
  Se  Se132  1  0.75046153  0.73919373  0.55696093  1
  Se  Se133  1  0.26139213  0.26042036  0.06874123  1
  Se  Se134  1  0.26400514  0.25420238  0.55206562  1
  Se  Se135  1  0.25170495  0.58541938  0.05837795  1
  Se  Se136  1  0.25013040  0.58494388  0.55393416  1
  Se  Se137  1  0.25568334  0.92115730  0.06100749  1
  Se  Se138  1  0.25760769  0.92969441  0.55695480  1
  Se  Se139  1  0.58677605  0.25107187  0.05537564  1
  Se  Se140  1  0.58308455  0.25363429  0.55785312  1
  Se  Se141  1  0.58025253  0.58357457  0.05437343  1
  Se  Se142  1  0.58242994  0.58125019  0.55716948  1
  Se  Se143  1  0.58220382  0.91350011  0.05786344  1
  Se  Se144  1  0.58812364  0.91891274  0.54733045  1
  Se  Se145  1  0.93323632  0.26024303  0.06436499  1
  Se  Se146  1  0.91646372  0.25771121  0.55747277  1
  Se  Se147  1  0.91736803  0.57979823  0.05105353  1
  Se  Se148  1  0.91815638  0.58018155  0.55416783  1
  Se  Se149  1  0.91764474  0.90850914  0.05056210  1
  Se  Se150  1  0.94162269  0.92831821  0.56098858  1
  Se  Se151  1  0.08846569  0.24113945  0.45008381  1
  Se  Se152  1  0.08124709  0.25799847  0.94345651  1
  Se  Se153  1  0.08656141  0.58060293  0.43964727  1
  Se  Se154  1  0.10550894  0.57465677  0.94086038  1
  Se  Se155  1  0.08557232  0.91381350  0.44577001  1
  Se  Se156  1  0.07862135  0.92200007  0.93641262  1
  Se  Se157  1  0.41331155  0.26176574  0.43174997  1
  Se  Se158  1  0.41929167  0.24711929  0.94921240  1
  Se  Se159  1  0.41514395  0.58628360  0.44517797  1
  Se  Se160  1  0.41227893  0.58567657  0.94864433  1
  Se  Se161  1  0.42116778  0.91479840  0.43839626  1
  Se  Se162  1  0.41447448  0.91450590  0.94878714  1
  Se  Se163  1  0.74111929  0.25823219  0.43612037  1
  Se  Se164  1  0.75234720  0.25447743  0.94308090  1
  Se  Se165  1  0.75379932  0.57707972  0.44717341  1
  Se  Se166  1  0.74563312  0.59310649  0.94394479  1
  Se  Se167  1  0.76709045  0.90357411  0.45629958  1
  Se  Se168  1  0.74876846  0.91592990  0.94875407  1
  Se  Se169  1  0.25814555  0.08408225  0.44639541  1
  Se  Se170  1  0.25483718  0.07789852  0.94293641  1
  Se  Se171  1  0.25508259  0.42051642  0.44727954  1
  Se  Se172  1  0.25570612  0.40909844  0.94625569  1
  Se  Se173  1  0.25097687  0.75271555  0.44283024  1
  Se  Se174  1  0.25131869  0.74390661  0.93966541  1
  Se  Se175  1  0.59071246  0.08032547  0.42865922  1
  Se  Se176  1  0.58539925  0.08327240  0.95191809  1
  Se  Se177  1  0.58242416  0.41815355  0.44559208  1
  Se  Se178  1  0.58893879  0.41582393  0.94835742  1
  Se  Se179  1  0.58691567  0.74010703  0.44805801  1
  Se  Se180  1  0.57821763  0.75182025  0.94886028  1
  Se  Se181  1  0.92429789  0.07482718  0.44052695  1
  Se  Se182  1  0.92174186  0.08565776  0.94503588  1
  Se  Se183  1  0.90953325  0.41781238  0.43583557  1
  Se  Se184  1  0.91882555  0.41803216  0.95147582  1
  Se  Se185  1  0.92063111  0.74509696  0.45116638  1
  Se  Se186  1  0.91704106  0.74964716  0.94230380  1
  Se  Se187  1  0.23756910  0.25492087  0.32203681  1
  Se  Se188  1  0.23682044  0.24053700  0.80209116  1
  Se  Se189  1  0.25153469  0.58774567  0.30242068  1
  Se  Se190  1  0.25423977  0.57978324  0.79801828  1
  Se  Se191  1  0.25017704  0.91953711  0.30660295  1
  Se  Se192  1  0.24478312  0.90799993  0.80656950  1
  Se  Se193  1  0.58958165  0.25117502  0.29600936  1
  Se  Se194  1  0.58292266  0.25074112  0.80936048  1
  Se  Se195  1  0.57725022  0.57774446  0.31417636  1
  Se  Se196  1  0.57677249  0.57349454  0.81435133  1
  Se  Se197  1  0.59916768  0.91182121  0.30887563  1
  Se  Se198  1  0.57711124  0.91097128  0.80870610  1
  Se  Se199  1  0.90745167  0.23428834  0.30004243  1
  Se  Se200  1  0.91179329  0.24186940  0.80884309  1
  Se  Se201  1  0.91576801  0.59132876  0.30423812  1
  Se  Se202  1  0.91493044  0.58170480  0.81385128  1
  Se  Se203  1  0.90921206  0.90074978  0.31484511  1
  Se  Se204  1  0.91019517  0.91819679  0.80810540  1
  Se  Se205  1  0.08880222  0.08838093  0.31639562  1
  Se  Se206  1  0.07876500  0.07940517  0.79480133  1
  Se  Se207  1  0.08235311  0.41775159  0.30729874  1
  Se  Se208  1  0.08220367  0.43077264  0.81091440  1
  Se  Se209  1  0.08318632  0.74860682  0.30526036  1
  Se  Se210  1  0.08675035  0.75414869  0.79759842  1
  Se  Se211  1  0.41959818  0.08471704  0.30086475  1
  Se  Se212  1  0.41993147  0.08565137  0.81473142  1
  Se  Se213  1  0.42487535  0.42653175  0.30924989  1
  Se  Se214  1  0.42018276  0.42312505  0.81501626  1
  Se  Se215  1  0.41593424  0.74975102  0.30157583  1
  Se  Se216  1  0.41496877  0.74253453  0.80478988  1
  Se  Se217  1  0.76224215  0.07715814  0.30167111  1
  Se  Se218  1  0.75142365  0.08745825  0.80777137  1
  Se  Se219  1  0.74793476  0.42229990  0.29787675  1
  Se  Se220  1  0.75101947  0.41556008  0.80474161  1
  Se  Se221  1  0.75344985  0.75589663  0.31869481  1
  Se  Se222  1  0.75227276  0.76612425  0.80463292  1
  Se  Se223  1  0.24295057  0.09500212  0.20251974  1
  Se  Se224  1  0.23609162  0.07722552  0.67995730  1
  Se  Se225  1  0.24918053  0.42417905  0.19565697  1
  Se  Se226  1  0.23851886  0.41833015  0.68604584  1
  Se  Se227  1  0.24167303  0.75526723  0.19727353  1
  Se  Se228  1  0.25343464  0.74546936  0.69334102  1
  Se  Se229  1  0.58153829  0.08229802  0.19232290  1
  Se  Se230  1  0.56842255  0.08836130  0.68923352  1
  Se  Se231  1  0.58904088  0.42085779  0.19417691  1
  Se  Se232  1  0.58470149  0.41336382  0.70013381  1
  Se  Se233  1  0.57380731  0.75734862  0.19442437  1
  Se  Se234  1  0.57800291  0.75081134  0.69083830  1
  Se  Se235  1  0.92037567  0.07529815  0.18753161  1
  Se  Se236  1  0.90067566  0.08635310  0.68354567  1
  Se  Se237  1  0.91548743  0.42636788  0.19485716  1
  Se  Se238  1  0.90769791  0.42667238  0.68843038  1
  Se  Se239  1  0.91564902  0.74485871  0.19471895  1
  Se  Se240  1  0.91307383  0.75050232  0.70031128  1
  Se  Se241  1  0.08113608  0.25621902  0.20300819  1
  Se  Se242  1  0.08049119  0.24654025  0.68645928  1
  Se  Se243  1  0.08404555  0.58138737  0.19734828  1
  Se  Se244  1  0.07959823  0.58404078  0.69378619  1
  Se  Se245  1  0.08515738  0.91013132  0.19164363  1
  Se  Se246  1  0.09843411  0.90921103  0.67302517  1
  Se  Se247  1  0.42363302  0.25201841  0.19122912  1
  Se  Se248  1  0.42039648  0.24307392  0.69504835  1
  Se  Se249  1  0.41893673  0.58589923  0.19548062  1
  Se  Se250  1  0.41681539  0.57742314  0.69482756  1
  Se  Se251  1  0.39788668  0.93910155  0.19168001  1
  Se  Se252  1  0.41851016  0.90552845  0.69299239  1
  Se  Se253  1  0.77075431  0.23241193  0.19089698  1
  Se  Se254  1  0.74398414  0.25306600  0.70076019  1
  Se  Se255  1  0.75082960  0.58714644  0.19133236  1
  Se  Se256  1  0.75331236  0.57844198  0.69266231  1
  Se  Se257  1  0.75149652  0.90996909  0.19867357  1
  Se  Se258  1  0.75477538  0.90645957  0.68504540  1
