# generated using pymatgen
data_In86Cu29Se144
_symmetry_space_group_name_H-M   'P 1'
_cell_length_a   17.58893180
_cell_length_b   17.58968248
_cell_length_c   23.45189576
_cell_angle_alpha   90.00533056
_cell_angle_beta   90.00959663
_cell_angle_gamma   89.99710972
_symmetry_Int_Tables_number   1
_chemical_formula_structural   In86Cu29Se144
_chemical_formula_sum   'In86 Cu29 Se144'
_cell_volume   7255.63473600
_cell_formula_units_Z   1
loop_
 _symmetry_equiv_pos_site_id
 _symmetry_equiv_pos_as_xyz
  1  'x, y, z'
loop_
 _atom_site_type_symbol
 _atom_site_label
 _atom_site_symmetry_multiplicity
 _atom_site_fract_x
 _atom_site_fract_y
 _atom_site_fract_z
 _atom_site_occupancy
  In  In0  1  -0.00124204  0.19517887  0.12604722  1
  In  In1  1  -0.01098903  0.17814836  0.63172311  1
  In  In2  1  -0.00461314  0.48323886  0.11214468  1
  In  In3  1  -0.01328794  0.48782916  0.62335085  1
  In  In4  1  -0.00380253  0.82768453  0.11019072  1
  In  In5  1  0.00923352  0.84016809  0.62202689  1
  In  In6  1  0.32386948  0.16945993  0.15588516  1
  In  In7  1  0.33409059  0.14755931  0.61596912  1
  In  In8  1  0.31382068  0.49951291  0.12244269  1
  In  In9  1  0.33345184  0.51368777  0.62584651  1
  In  In10  1  0.32905133  0.83892023  0.12091439  1
  In  In11  1  0.31856508  0.84336752  0.62885831  1
  In  In12  1  0.67224804  0.15159438  0.12949922  1
  In  In13  1  0.65741919  0.15854158  0.61402849  1
  In  In14  1  0.69159226  0.50243655  0.13089906  1
  In  In15  1  0.68270900  0.50112036  0.62827171  1
  In  In16  1  0.67225361  0.82964393  0.13275386  1
  In  In17  1  0.67923870  0.82231529  0.63066286  1
  In  In18  1  0.16774216  -0.00820460  0.37473074  1
  In  In19  1  0.15907915  -0.00826264  0.86663782  1
  In  In20  1  0.17489932  0.33901068  0.36853519  1
  In  In21  1  0.15751730  0.34663695  0.88101551  1
  In  In22  1  0.16027749  0.66954145  0.38569642  1
  In  In23  1  0.17782838  0.66506525  0.88041541  1
  In  In24  1  0.50447238  0.00922516  0.36858945  1
  In  In25  1  0.49808284  -0.00467540  0.86345581  1
  In  In26  1  0.48477359  0.32856982  0.36998567  1
  In  In27  1  0.49923257  0.32402081  0.87745693  1
  In  In28  1  0.50699140  0.65566882  0.37231194  1
  In  In29  1  0.50350278  0.67334087  0.86642942  1
  In  In30  1  0.82893760  0.00689733  0.38337866  1
  In  In31  1  0.83132364  -0.00100664  0.87007247  1
  In  In32  1  0.83941054  0.33194560  0.37454814  1
  In  In33  1  0.84648955  0.32606688  0.88674464  1
  In  In34  1  0.83104364  0.67101782  0.38214801  1
  In  In35  1  0.83226052  0.67150753  0.87755492  1
  In  In36  1  -0.01350046  0.16512538  0.37429474  1
  In  In37  1  -0.00607415  0.16115755  0.86808073  1
  In  In38  1  0.00369545  0.49758239  0.37984416  1
  In  In39  1  -0.00014908  0.49434987  0.87781136  1
  In  In40  1  0.00003989  0.83371717  0.38626227  1
  In  In41  1  -0.00901934  0.84239128  0.87920926  1
  In  In42  1  0.33637043  0.16851283  0.36700799  1
  In  In43  1  0.33975029  0.15874337  0.87242948  1
  In  In44  1  0.32802461  0.49140729  0.37597291  1
  In  In45  1  0.31857794  0.50664006  0.88076936  1
  In  In46  1  0.32060725  0.83796816  0.37940108  1
  In  In47  1  0.32467054  0.82875907  0.86792802  1
  In  In48  1  0.67776948  0.15855406  0.37920249  1
  In  In49  1  0.68027632  0.16761558  0.87219253  1
  In  In50  1  0.67265281  0.51147182  0.36982461  1
  In  In51  1  0.67523493  0.51650633  0.87087153  1
  In  In52  1  0.67358101  0.84378343  0.37349712  1
  In  In53  1  0.67171624  0.83946982  0.86634025  1
  In  In54  1  0.17324496  0.00001935  0.12385871  1
  In  In55  1  0.17411926  -0.00949421  0.62999358  1
  In  In56  1  0.15354117  0.34262169  0.14256114  1
  In  In57  1  0.14705289  0.33286742  0.62714496  1
  In  In58  1  0.16029150  0.65671654  0.10690050  1
  In  In59  1  0.16858559  0.67345620  0.62196086  1
  In  In60  1  0.49462468  0.00401673  0.13828026  1
  In  In61  1  0.49328343  0.00373091  0.62443904  1
  In  In62  1  0.49384770  0.31899609  0.13184076  1
  In  In63  1  0.50876462  0.32129036  0.61694959  1
  In  In64  1  0.50525405  0.68048282  0.12626330  1
  In  In65  1  0.50000766  0.66645578  0.63418229  1
  In  In66  1  0.82789442  -0.00857618  0.11884999  1
  In  In67  1  0.83551192  -0.00054349  0.62576617  1
  In  In68  1  0.85262728  0.34551377  0.11000676  1
  In  In69  1  0.84066366  0.34197785  0.61935682  1
  In  In70  1  0.83133315  0.66229043  0.11919311  1
  In  In71  1  0.82435954  0.65511752  0.62472720  1
  In  In72  1  0.00016250  0.66754249  0.75391530  1
  In  In73  1  0.32825952  0.33222863  0.75571768  1
  In  In74  1  0.49916475  0.83783997  0.49879835  1
  In  In75  1  0.67076604  0.33470464  0.74786085  1
  In  In76  1  0.49860539  0.83494024  0.00625719  1
  In  In77  1  0.50617094  0.50246083  -0.00508314  1
  In  In78  1  0.16319428  0.16976812  0.00798154  1
  In  In79  1  0.66855257  0.32879303  0.25205182  1
  In  In80  1  0.00310159  0.00696023  0.24970643  1
  In  In81  1  0.50085751  0.49249558  0.49364024  1
  In  In82  1  0.16317635  0.16616980  0.50035945  1
  In  In83  1  -0.00545721  0.66175240  0.24402032  1
  In  In84  1  0.50298580  0.15803792  0.01335769  1
  In  In85  1  0.33716830  0.66892380  0.24654905  1
  Cu  Cu86  1  0.16381480  0.16337678  0.74509448  1
  Cu  Cu87  1  0.32658499  0.33249916  0.49342645  1
  Cu  Cu88  1  0.32932303  0.33273027  0.00872098  1
  Cu  Cu89  1  -0.00333445  0.33676816  0.50037235  1
  Cu  Cu90  1  0.50490984  0.50077146  0.24962579  1
  Cu  Cu91  1  0.50384146  0.83630996  0.25210383  1
  Cu  Cu92  1  0.83043977  0.16329374  0.74835077  1
  Cu  Cu93  1  0.67058668  0.66287026  0.50291648  1
  Cu  Cu94  1  -0.00521967  0.00400226  -0.00551767  1
  Cu  Cu95  1  0.66885582  -0.00275171  -0.00444466  1
  Cu  Cu96  1  -0.00017213  0.00121783  0.50349364  1
  Cu  Cu97  1  0.32574948  0.67262526  0.50461532  1
  Cu  Cu98  1  -0.00332174  0.66417366  0.50640410  1
  Cu  Cu99  1  0.67867184  0.33546818  0.00034410  1
  Cu  Cu100  1  0.16346239  0.50397138  0.75515516  1
  Cu  Cu101  1  0.32840429  -0.00210996  0.00249282  1
  Cu  Cu102  1  0.50403116  0.83634440  0.74430331  1
  Cu  Cu103  1  0.67281950  0.32847128  0.49557635  1
  Cu  Cu104  1  0.16489525  0.49659776  0.25166126  1
  Cu  Cu105  1  0.16906690  0.83408564  0.74784633  1
  Cu  Cu106  1  0.67413838  0.67107404  0.00202868  1
  Cu  Cu107  1  0.49875441  0.50290193  0.75178390  1
  Cu  Cu108  1  0.83323801  0.16811157  0.25031483  1
  Cu  Cu109  1  0.67470499  -0.00462240  0.50029890  1
  Cu  Cu110  1  0.83646850  0.83507306  0.75068554  1
  Cu  Cu111  1  0.82688580  0.84047338  0.25294304  1
  Cu  Cu112  1  0.00500637  0.66740310  -0.00850970  1
  Cu  Cu113  1  0.49699374  0.15677534  0.74202995  1
  Cu  Cu114  1  0.16542734  0.83144999  0.24950067  1
  Se  Se115  1  0.06964446  0.07741321  0.06373273  1
  Se  Se116  1  0.07659322  0.08168347  0.56657136  1
  Se  Se117  1  0.09766577  0.41002464  0.05546620  1
  Se  Se118  1  0.08140722  0.41937230  0.55306950  1
  Se  Se119  1  0.08754248  0.75361915  0.04377735  1
  Se  Se120  1  0.08357431  0.75124945  0.55251700  1
  Se  Se121  1  0.39884726  0.07956640  0.06777705  1
  Se  Se122  1  0.43190911  0.09025011  0.54808985  1
  Se  Se123  1  0.41947663  0.41237058  0.06048166  1
  Se  Se124  1  0.40790743  0.40899981  0.55876389  1
  Se  Se125  1  0.40452392  0.73837429  0.05559258  1
  Se  Se126  1  0.41342043  0.74634942  0.56197465  1
  Se  Se127  1  0.74907298  0.08152310  0.05114791  1
  Se  Se128  1  0.75530152  0.08211070  0.55350636  1
  Se  Se129  1  0.75609861  0.42633463  0.05007359  1
  Se  Se130  1  0.74665320  0.41591679  0.55234471  1
  Se  Se131  1  0.75234324  0.75786925  0.05657887  1
  Se  Se132  1  0.75467992  0.74742268  0.55378376  1
  Se  Se133  1  0.25767362  0.25020899  0.07125165  1
  Se  Se134  1  0.25216432  0.25801836  0.56309974  1
  Se  Se135  1  0.25522779  0.58150106  0.04462231  1
  Se  Se136  1  0.24598897  0.58181804  0.55377545  1
  Se  Se137  1  0.24182084  0.91280908  0.05008874  1
  Se  Se138  1  0.25242446  0.92351093  0.55177535  1
  Se  Se139  1  0.59604867  0.25863959  0.06074899  1
  Se  Se140  1  0.58293869  0.24535534  0.54172573  1
  Se  Se141  1  0.59227634  0.59017557  0.06089167  1
  Se  Se142  1  0.58384493  0.58373169  0.55883735  1
  Se  Se143  1  0.58750354  0.92805157  0.06332763  1
  Se  Se144  1  0.59446581  0.91662783  0.56222233  1
  Se  Se145  1  0.90962924  0.23927715  0.04731308  1
  Se  Se146  1  0.91521223  0.24934251  0.55193150  1
  Se  Se147  1  0.92678443  0.59007052  0.05450497  1
  Se  Se148  1  0.91193931  0.57872622  0.55572108  1
  Se  Se149  1  0.91313913  0.91659650  0.04747756  1
  Se  Se150  1  0.91711130  0.91551613  0.55554337  1
  Se  Se151  1  0.07659341  0.25723582  0.43872383  1
  Se  Se152  1  0.07454952  0.25106856  0.94163263  1
  Se  Se153  1  0.08090418  0.58242907  0.45096453  1
  Se  Se154  1  0.08707316  0.58087672  0.94121817  1
  Se  Se155  1  0.08496075  0.92035785  0.44942525  1
  Se  Se156  1  0.08276155  0.92116387  0.94518863  1
  Se  Se157  1  0.41135576  0.24832418  0.44451023  1
  Se  Se158  1  0.40887984  0.25011455  0.95000226  1
  Se  Se159  1  0.40609345  0.59258057  0.44316573  1
  Se  Se160  1  0.41598028  0.59454766  0.93901758  1
  Se  Se161  1  0.41161477  0.92683113  0.43961383  1
  Se  Se162  1  0.41319081  0.92452821  0.94185274  1
  Se  Se163  1  0.75920827  0.24701544  0.44376425  1
  Se  Se164  1  0.75280219  0.24355609  0.94837300  1
  Se  Se165  1  0.75149232  0.57859039  0.44828283  1
  Se  Se166  1  0.75397614  0.58477256  0.94866641  1
  Se  Se167  1  0.75812460  0.90991268  0.44968075  1
  Se  Se168  1  0.75048853  0.91447706  0.94136561  1
  Se  Se169  1  0.25425486  0.08085743  0.44048703  1
  Se  Se170  1  0.25036303  0.08028521  0.94187944  1
  Se  Se171  1  0.24196334  0.42036488  0.44806850  1
  Se  Se172  1  0.25143629  0.41366665  0.95021323  1
  Se  Se173  1  0.24390821  0.75554566  0.45052093  1
  Se  Se174  1  0.25133823  0.75898888  0.94571175  1
  Se  Se175  1  0.59031225  0.07577630  0.44495962  1
  Se  Se176  1  0.58422686  0.07756994  0.93858622  1
  Se  Se177  1  0.59244169  0.40634852  0.43205385  1
  Se  Se178  1  0.59615684  0.40768945  0.93668239  1
  Se  Se179  1  0.58905675  0.74134206  0.44232796  1
  Se  Se180  1  0.59037222  0.74900800  0.94287400  1
  Se  Se181  1  0.91699252  0.08599633  0.45109002  1
  Se  Se182  1  0.91145785  0.08411623  0.94012059  1
  Se  Se183  1  0.91290636  0.41932752  0.44632884  1
  Se  Se184  1  0.91691444  0.42171005  0.95117014  1
  Se  Se185  1  0.91625128  0.74968590  0.45122976  1
  Se  Se186  1  0.91553356  0.75249289  0.94645746  1
  Se  Se187  1  0.25478872  0.25599852  0.30244548  1
  Se  Se188  1  0.23705396  0.24134310  0.81444313  1
  Se  Se189  1  0.24139105  0.58503824  0.30901307  1
  Se  Se190  1  0.25149421  0.58655379  0.80267209  1
  Se  Se191  1  0.24897028  0.91402080  0.30114527  1
  Se  Se192  1  0.25366723  0.92124243  0.79924425  1
  Se  Se193  1  0.58130938  0.24032246  0.31276530  1
  Se  Se194  1  0.57456639  0.23896074  0.80352451  1
  Se  Se195  1  0.58915470  0.58702619  0.29706584  1
  Se  Se196  1  0.58555252  0.58635781  0.80107480  1
  Se  Se197  1  0.58728845  0.91954452  0.30446817  1
  Se  Se198  1  0.58790054  0.91981422  0.79722986  1
  Se  Se199  1  0.91794848  0.25183661  0.30066875  1
  Se  Se200  1  0.90935747  0.24906607  0.80370182  1
  Se  Se201  1  0.91102138  0.57965329  0.31183670  1
  Se  Se202  1  0.90931100  0.57643068  0.80934209  1
  Se  Se203  1  0.91560843  0.91431277  0.31162531  1
  Se  Se204  1  0.92029974  0.91991476  0.80147600  1
  Se  Se205  1  0.09158658  0.09304298  0.31233418  1
  Se  Se206  1  0.08067508  0.08106862  0.80090040  1
  Se  Se207  1  0.07940215  0.41700938  0.30554862  1
  Se  Se208  1  0.08041154  0.41658805  0.80293155  1
  Se  Se209  1  0.08315784  0.75337928  0.30818072  1
  Se  Se210  1  0.09022547  0.75829504  0.81270444  1
  Se  Se211  1  0.40782463  0.07388286  0.30150011  1
  Se  Se212  1  0.41114269  0.07842168  0.79764354  1
  Se  Se213  1  0.41694326  0.42476490  0.30310612  1
  Se  Se214  1  0.42261995  0.42346769  0.81431299  1
  Se  Se215  1  0.42263375  0.75689429  0.31358304  1
  Se  Se216  1  0.41933147  0.75682220  0.80102184  1
  Se  Se217  1  0.75542827  0.08044965  0.30393000  1
  Se  Se218  1  0.74544958  0.07948167  0.79937918  1
  Se  Se219  1  0.75953292  0.42415580  0.30434502  1
  Se  Se220  1  0.75685591  0.41485557  0.81482451  1
  Se  Se221  1  0.75245541  0.75181044  0.30894747  1
  Se  Se222  1  0.75377350  0.74928586  0.80306800  1
  Se  Se223  1  0.24573027  0.06524009  0.20425505  1
  Se  Se224  1  0.25236253  0.08437501  0.69471067  1
  Se  Se225  1  0.25587787  0.41666809  0.20214687  1
  Se  Se226  1  0.24291071  0.42221564  0.69212948  1
  Se  Se227  1  0.23760385  0.74745008  0.18630499  1
  Se  Se228  1  0.25060148  0.74674554  0.69654954  1
  Se  Se229  1  0.57597426  0.09405315  0.19859836  1
  Se  Se230  1  0.58703216  0.07899066  0.69130405  1
  Se  Se231  1  0.58254249  0.42178100  0.18681489  1
  Se  Se232  1  0.57244041  0.42129413  0.68852768  1
  Se  Se233  1  0.58607746  0.74998321  0.20152381  1
  Se  Se234  1  0.58823647  0.74714880  0.69831023  1
  Se  Se235  1  0.91147333  0.08894949  0.18579993  1
  Se  Se236  1  0.91762959  0.08154289  0.69679944  1
  Se  Se237  1  0.91863431  0.41758546  0.19146491  1
  Se  Se238  1  0.91231932  0.41201569  0.69863494  1
  Se  Se239  1  0.90958414  0.76416228  0.19125543  1
  Se  Se240  1  0.91411141  0.75429606  0.68841434  1
  Se  Se241  1  0.09644591  0.23237838  0.20089207  1
  Se  Se242  1  0.07754546  0.25265575  0.70282050  1
  Se  Se243  1  0.08987551  0.57503380  0.18673441  1
  Se  Se244  1  0.08499495  0.57836784  0.68875267  1
  Se  Se245  1  0.08046970  0.90526486  0.18823462  1
  Se  Se246  1  0.08231997  0.91823621  0.69881883  1
  Se  Se247  1  0.42329768  0.24848484  0.21002466  1
  Se  Se248  1  0.41723949  0.24655826  0.68941830  1
  Se  Se249  1  0.42348305  0.57584009  0.18490568  1
  Se  Se250  1  0.41258188  0.58576952  0.70115181  1
  Se  Se251  1  0.41327949  0.90689366  0.19585096  1
  Se  Se252  1  0.41607294  0.91633733  0.69239567  1
  Se  Se253  1  0.76002424  0.24964290  0.18569915  1
  Se  Se254  1  0.75146586  0.24215003  0.68410523  1
  Se  Se255  1  0.75207079  0.59856660  0.19867504  1
  Se  Se256  1  0.74815002  0.58445605  0.70259245  1
  Se  Se257  1  0.74711940  0.92489733  0.19783103  1
  Se  Se258  1  0.75238942  0.91716638  0.69604398  1
