# generated using pymatgen
data_In86Cu29Se144
_symmetry_space_group_name_H-M   'P 1'
_cell_length_a   17.57625803
_cell_length_b   17.57748029
_cell_length_c   23.43904339
_cell_angle_alpha   89.98682238
_cell_angle_beta   89.98844885
_cell_angle_gamma   90.01727899
_symmetry_Int_Tables_number   1
_chemical_formula_structural   In86Cu29Se144
_chemical_formula_sum   'In86 Cu29 Se144'
_cell_volume   7241.40574458
_cell_formula_units_Z   1
loop_
 _symmetry_equiv_pos_site_id
 _symmetry_equiv_pos_as_xyz
  1  'x, y, z'
loop_
 _atom_site_type_symbol
 _atom_site_label
 _atom_site_symmetry_multiplicity
 _atom_site_fract_x
 _atom_site_fract_y
 _atom_site_fract_z
 _atom_site_occupancy
  In  In0  1  -0.00621892  0.18003336  0.12670564  1
  In  In1  1  0.00640497  0.15167444  0.63381384  1
  In  In2  1  -0.00764810  0.49132823  0.11659077  1
  In  In3  1  -0.00847761  0.52120463  0.62316167  1
  In  In4  1  -0.00140686  0.83436665  0.11562024  1
  In  In5  1  0.01462234  0.82213134  0.63556073  1
  In  In6  1  0.34325190  0.17138662  0.12386867  1
  In  In7  1  0.32453744  0.16873945  0.63047580  1
  In  In8  1  0.33437642  0.50131546  0.11901560  1
  In  In9  1  0.33916130  0.49850606  0.63496586  1
  In  In10  1  0.33170121  0.82238818  0.11719160  1
  In  In11  1  0.31299831  0.85121387  0.64937685  1
  In  In12  1  0.68137726  0.16331826  0.12190807  1
  In  In13  1  0.67319468  0.17581590  0.62920175  1
  In  In14  1  0.66286560  0.49956540  0.12393862  1
  In  In15  1  0.67509146  0.49901377  0.62997100  1
  In  In16  1  0.64513182  0.81039416  0.09897828  1
  In  In17  1  0.64943825  0.82825061  0.63300207  1
  In  In18  1  0.17821594  -0.00647362  0.39408110  1
  In  In19  1  0.15773434  -0.00755992  0.86413083  1
  In  In20  1  0.16040107  0.33360236  0.37226013  1
  In  In21  1  0.18436506  0.33186672  0.87243110  1
  In  In22  1  0.17575672  0.65891702  0.37649962  1
  In  In23  1  0.16850148  0.66596340  0.87660397  1
  In  In24  1  0.49837267  -0.01233891  0.37372817  1
  In  In25  1  0.48816731  -0.00383623  0.87289966  1
  In  In26  1  0.50695254  0.34335943  0.36440520  1
  In  In27  1  0.50647699  0.33531589  0.87135442  1
  In  In28  1  0.49564952  0.66867580  0.36623337  1
  In  In29  1  0.49869717  0.66776067  0.87548324  1
  In  In30  1  0.83480048  -0.00780335  0.37761555  1
  In  In31  1  0.84050575  -0.01072890  0.88448571  1
  In  In32  1  0.83863986  0.33791284  0.36933878  1
  In  In33  1  0.82568299  0.34989233  0.88508518  1
  In  In34  1  0.81593916  0.66665011  0.37206151  1
  In  In35  1  0.83462129  0.66559640  0.87626223  1
  In  In36  1  0.00729985  0.17932863  0.37686584  1
  In  In37  1  0.00517419  0.15256965  0.86862528  1
  In  In38  1  0.00277216  0.48625787  0.37546270  1
  In  In39  1  -0.00920712  0.51356903  0.88240262  1
  In  In40  1  0.00384161  0.84389743  0.37662162  1
  In  In41  1  0.00215992  0.83188388  0.87470317  1
  In  In42  1  0.31805305  0.16839955  0.37777097  1
  In  In43  1  0.32450000  0.16174481  0.85722527  1
  In  In44  1  0.33861299  0.50705061  0.36439692  1
  In  In45  1  0.33684660  0.50079822  0.87691048  1
  In  In46  1  0.33127157  0.82090717  0.37873129  1
  In  In47  1  0.33724321  0.82473554  0.87525541  1
  In  In48  1  0.66320899  0.17272244  0.37260036  1
  In  In49  1  0.66438936  0.18445001  0.87511674  1
  In  In50  1  0.67021273  0.50335724  0.37041972  1
  In  In51  1  0.66405920  0.49817453  0.87838957  1
  In  In52  1  0.66986240  0.82586822  0.36705578  1
  In  In53  1  0.67641478  0.82776636  0.88332865  1
  In  In54  1  0.17450812  -0.00805083  0.11956589  1
  In  In55  1  0.17484152  -0.00727996  0.62731363  1
  In  In56  1  0.15719464  0.33827696  0.13012100  1
  In  In57  1  0.18109287  0.33827250  0.62703197  1
  In  In58  1  0.17426407  0.67326959  0.11533656  1
  In  In59  1  0.15376832  0.67780851  0.63369332  1
  In  In60  1  0.50906270  -0.01675773  0.11918477  1
  In  In61  1  0.47259806  -0.00290707  0.63618360  1
  In  In62  1  0.48814414  0.34523269  0.13116466  1
  In  In63  1  0.50356112  0.33561939  0.63083398  1
  In  In64  1  0.50164042  0.66551489  0.12109667  1
  In  In65  1  0.49580171  0.67916709  0.64564828  1
  In  In66  1  0.81259015  -0.00810245  0.10073574  1
  In  In67  1  0.83945374  0.01201206  0.63238743  1
  In  In68  1  0.83128548  0.33480587  0.12310357  1
  In  In69  1  0.82051279  0.34072155  0.62448868  1
  In  In70  1  0.81942977  0.65178003  0.11444943  1
  In  In71  1  0.84150123  0.65858841  0.63504091  1
  In  In72  1  0.00421198  0.33679532  0.75202446  1
  In  In73  1  0.66948744  -0.00199232  0.75836123  1
  In  In74  1  0.84368397  0.16896393  0.49469827  1
  In  In75  1  0.33446905  0.00429669  0.24590568  1
  In  In76  1  0.66820314  0.00033498  0.24713512  1
  In  In77  1  0.16088213  0.50007053  0.50059896  1
  In  In78  1  0.50598305  0.50724062  0.49431768  1
  In  In79  1  0.00162123  0.65970459  0.24731973  1
  In  In80  1  0.50092385  0.16666831  -0.00111462  1
  In  In81  1  -0.00390403  0.01251909  0.25313117  1
  In  In82  1  0.16226722  0.16489581  -0.00501448  1
  In  In83  1  0.83812385  0.82656861  0.50247934  1
  In  In84  1  0.49459376  0.17385747  0.51275436  1
  In  In85  1  0.48921349  0.83292521  0.50361075  1
  Cu  Cu86  1  0.49928670  0.16727018  0.74947254  1
  Cu  Cu87  1  0.17023902  0.83191142  0.24482001  1
  Cu  Cu88  1  0.83122320  0.49602263  0.24233570  1
  Cu  Cu89  1  0.16696387  0.83092725  0.75679008  1
  Cu  Cu90  1  0.00064484  0.32909400  0.50056139  1
  Cu  Cu91  1  0.49981018  0.50341311  0.24350399  1
  Cu  Cu92  1  -0.00036418  -0.00182318  -0.00669896  1
  Cu  Cu93  1  0.50065556  0.17490478  0.24869804  1
  Cu  Cu94  1  0.66860367  0.65787524  -0.00459121  1
  Cu  Cu95  1  0.66423426  0.33892975  0.00240088  1
  Cu  Cu96  1  0.50155127  0.50085790  0.75616087  1
  Cu  Cu97  1  0.83628496  0.83404374  0.75864496  1
  Cu  Cu98  1  0.16806435  0.50499445  0.75187080  1
  Cu  Cu99  1  0.83668844  0.17296605  0.75166417  1
  Cu  Cu100  1  0.33006181  -0.01256955  -0.00555985  1
  Cu  Cu101  1  -0.00088185  0.33620778  0.00232134  1
  Cu  Cu102  1  0.32105185  0.67284665  0.50728926  1
  Cu  Cu103  1  0.33694634  0.66437919  -0.00433975  1
  Cu  Cu104  1  0.33607915  0.33498838  -0.00295261  1
  Cu  Cu105  1  0.16487289  0.17664674  0.25434272  1
  Cu  Cu106  1  0.82800584  0.50224727  0.75748294  1
  Cu  Cu107  1  0.83778587  0.17391631  0.24456171  1
  Cu  Cu108  1  0.66651678  0.66276163  0.50214927  1
  Cu  Cu109  1  0.82445749  0.82198734  0.24021319  1
  Cu  Cu110  1  0.17474364  0.50072477  0.24644148  1
  Cu  Cu111  1  0.00309873  0.67110557  -0.00263861  1
  Cu  Cu112  1  0.65820744  0.00368781  0.50188077  1
  Cu  Cu113  1  0.01213017  -0.00657274  0.51022076  1
  Cu  Cu114  1  0.33339594  0.33263814  0.49904181  1
  Se  Se115  1  0.07379557  0.07704346  0.06098778  1
  Se  Se116  1  0.09072027  0.08267526  0.56030220  1
  Se  Se117  1  0.08882554  0.41676386  0.05166516  1
  Se  Se118  1  0.07316164  0.41190450  0.56517347  1
  Se  Se119  1  0.08673704  0.75551271  0.04993688  1
  Se  Se120  1  0.07439747  0.74253622  0.55523660  1
  Se  Se121  1  0.40818705  0.06938509  0.05636085  1
  Se  Se122  1  0.40237870  0.07407455  0.55641552  1
  Se  Se123  1  0.41961636  0.41753341  0.05012083  1
  Se  Se124  1  0.41466820  0.41494993  0.55575029  1
  Se  Se125  1  0.42135422  0.74885468  0.04859437  1
  Se  Se126  1  0.40618581  0.74484809  0.56800241  1
  Se  Se127  1  0.75130838  0.09723091  0.04048837  1
  Se  Se128  1  0.74652811  0.08045102  0.55614385  1
  Se  Se129  1  0.75075551  0.42062738  0.05492678  1
  Se  Se130  1  0.75170877  0.42639166  0.55303368  1
  Se  Se131  1  0.75548241  0.74623811  0.04381733  1
  Se  Se132  1  0.74033407  0.74765817  0.56350491  1
  Se  Se133  1  0.25435463  0.25336838  0.05645584  1
  Se  Se134  1  0.25174008  0.25204486  0.55447766  1
  Se  Se135  1  0.25082247  0.58246948  0.04916580  1
  Se  Se136  1  0.25074587  0.58336818  0.56595222  1
  Se  Se137  1  0.24628412  0.90672012  0.04936391  1
  Se  Se138  1  0.25096678  0.90286525  0.55930822  1
  Se  Se139  1  0.58379899  0.25735247  0.06365036  1
  Se  Se140  1  0.59769891  0.26431837  0.55701268  1
  Se  Se141  1  0.58237926  0.57973242  0.05189813  1
  Se  Se142  1  0.58035376  0.59499158  0.56608985  1
  Se  Se143  1  0.60175264  0.93163243  0.04537786  1
  Se  Se144  1  0.57930054  0.92765026  0.56366741  1
  Se  Se145  1  0.91371389  0.25128832  0.05175374  1
  Se  Se146  1  0.92482798  0.25180659  0.56718418  1
  Se  Se147  1  0.92067249  0.58557135  0.05069979  1
  Se  Se148  1  0.90632983  0.58973214  0.55099973  1
  Se  Se149  1  0.91538011  0.91433854  0.04651075  1
  Se  Se150  1  0.92084727  0.92088558  0.56555148  1
  Se  Se151  1  0.09105021  0.25148631  0.45002999  1
  Se  Se152  1  0.07550914  0.25939673  0.93621163  1
  Se  Se153  1  0.07181165  0.59004311  0.44057101  1
  Se  Se154  1  0.08696317  0.58351728  0.94839634  1
  Se  Se155  1  0.08772557  0.90715368  0.45336356  1
  Se  Se156  1  0.08735423  0.91678573  0.94312900  1
  Se  Se157  1  0.41808669  0.25936407  0.43742999  1
  Se  Se158  1  0.40602894  0.24709247  0.93539039  1
  Se  Se159  1  0.40381133  0.59722195  0.44445691  1
  Se  Se160  1  0.42244378  0.57943920  0.94669520  1
  Se  Se161  1  0.40043205  0.92693430  0.44437528  1
  Se  Se162  1  0.42063635  0.90839744  0.94616404  1
  Se  Se163  1  0.74669058  0.25618550  0.44188589  1
  Se  Se164  1  0.74767353  0.25592829  0.94922731  1
  Se  Se165  1  0.74763519  0.58166189  0.44659265  1
  Se  Se166  1  0.75562714  0.57654456  0.94435225  1
  Se  Se167  1  0.73674270  0.91855535  0.44515197  1
  Se  Se168  1  0.74421422  0.92369375  0.95013848  1
  Se  Se169  1  0.24831758  0.09239562  0.45400134  1
  Se  Se170  1  0.25595199  0.07634428  0.93777902  1
  Se  Se171  1  0.25901767  0.41873808  0.43867412  1
  Se  Se172  1  0.25025259  0.41835242  0.94661410  1
  Se  Se173  1  0.24014394  0.75120558  0.44911508  1
  Se  Se174  1  0.25018234  0.74927121  0.94658315  1
  Se  Se175  1  0.58001609  0.08185528  0.44132019  1
  Se  Se176  1  0.58608390  0.08083946  0.93420858  1
  Se  Se177  1  0.59337087  0.40921692  0.44236784  1
  Se  Se178  1  0.57763560  0.41597696  0.94733448  1
  Se  Se179  1  0.58637520  0.74540592  0.44289163  1
  Se  Se180  1  0.58503926  0.74574651  0.94654307  1
  Se  Se181  1  0.93468879  0.06857125  0.44229677  1
  Se  Se182  1  0.91992500  0.08792613  0.94432688  1
  Se  Se183  1  0.91782790  0.41102713  0.44656994  1
  Se  Se184  1  0.91643299  0.42401104  0.95210852  1
  Se  Se185  1  0.92050357  0.74252813  0.43354745  1
  Se  Se186  1  0.91671516  0.75220708  0.94404733  1
  Se  Se187  1  0.25306334  0.25733303  0.30484021  1
  Se  Se188  1  0.24922730  0.25406385  0.79424129  1
  Se  Se189  1  0.25256480  0.59012945  0.29825542  1
  Se  Se190  1  0.25284571  0.58374810  0.80784901  1
  Se  Se191  1  0.24329569  0.91574016  0.30785641  1
  Se  Se192  1  0.25586728  0.91272550  0.80647202  1
  Se  Se193  1  0.58959658  0.25396293  0.29978850  1
  Se  Se194  1  0.58407909  0.25272359  0.79808346  1
  Se  Se195  1  0.58091871  0.58217026  0.30392607  1
  Se  Se196  1  0.58580609  0.58342255  0.80866853  1
  Se  Se197  1  0.57428985  0.90502544  0.30031088  1
  Se  Se198  1  0.58021389  0.90561712  0.81285758  1
  Se  Se199  1  0.92146923  0.24869089  0.30413843  1
  Se  Se200  1  0.91170841  0.25391214  0.81553155  1
  Se  Se201  1  0.90886098  0.57376781  0.30844334  1
  Se  Se202  1  0.91767365  0.58610811  0.80336101  1
  Se  Se203  1  0.90422656  0.90385798  0.30059555  1
  Se  Se204  1  0.92039754  0.92072943  0.80680623  1
  Se  Se205  1  0.09780994  0.08546650  0.31510303  1
  Se  Se206  1  0.10107799  0.09645974  0.79877011  1
  Se  Se207  1  0.08743787  0.42052778  0.30012819  1
  Se  Se208  1  0.08810422  0.42740771  0.81555150  1
  Se  Se209  1  0.08808742  0.75554677  0.30736238  1
  Se  Se210  1  0.08177620  0.74532534  0.80642382  1
  Se  Se211  1  0.42515630  0.09195144  0.31031197  1
  Se  Se212  1  0.41746519  0.07810924  0.79748532  1
  Se  Se213  1  0.41657085  0.41887879  0.29811864  1
  Se  Se214  1  0.41637653  0.41474511  0.80625297  1
  Se  Se215  1  0.41415456  0.75691612  0.30389107  1
  Se  Se216  1  0.40887200  0.73693108  0.80422668  1
  Se  Se217  1  0.76377215  0.09012079  0.30884375  1
  Se  Se218  1  0.75856841  0.09205644  0.81471346  1
  Se  Se219  1  0.74983615  0.41569168  0.30230796  1
  Se  Se220  1  0.74537210  0.41455844  0.80608100  1
  Se  Se221  1  0.74126834  0.74125170  0.29436718  1
  Se  Se222  1  0.75112852  0.74962238  0.80735585  1
  Se  Se223  1  0.23792568  0.09586845  0.18902114  1
  Se  Se224  1  0.26875107  0.06428289  0.69503670  1
  Se  Se225  1  0.25400920  0.41594727  0.19049640  1
  Se  Se226  1  0.25226942  0.41837620  0.70246483  1
  Se  Se227  1  0.25145024  0.74777574  0.19264023  1
  Se  Se228  1  0.24766904  0.74135571  0.70490147  1
  Se  Se229  1  0.57458828  0.09035496  0.18708969  1
  Se  Se230  1  0.58102829  0.08481760  0.68943668  1
  Se  Se231  1  0.58496701  0.41564412  0.19617030  1
  Se  Se232  1  0.58410739  0.42148852  0.69688188  1
  Se  Se233  1  0.58533890  0.75205609  0.18703061  1
  Se  Se234  1  0.60013432  0.73819914  0.70957190  1
  Se  Se235  1  0.90270290  0.08193753  0.18336339  1
  Se  Se236  1  0.92035287  0.08228325  0.70788993  1
  Se  Se237  1  0.91914092  0.41358619  0.19338046  1
  Se  Se238  1  0.91045309  0.42564045  0.69353600  1
  Se  Se239  1  0.91273719  0.74730283  0.18393643  1
  Se  Se240  1  0.91668210  0.75182959  0.70031032  1
  Se  Se241  1  0.07768544  0.25255815  0.19939879  1
  Se  Se242  1  0.09350211  0.24788548  0.69233764  1
  Se  Se243  1  0.09155869  0.57625842  0.18383541  1
  Se  Se244  1  0.07899088  0.58257872  0.69931760  1
  Se  Se245  1  0.08428570  0.91496783  0.19292051  1
  Se  Se246  1  0.08719443  0.91694959  0.70015554  1
  Se  Se247  1  0.41048918  0.25409082  0.19897092  1
  Se  Se248  1  0.41746063  0.25012310  0.69321333  1
  Se  Se249  1  0.41501810  0.58451807  0.18977715  1
  Se  Se250  1  0.41509624  0.58340390  0.70470205  1
  Se  Se251  1  0.41962346  0.90836472  0.18936454  1
  Se  Se252  1  0.44186123  0.88220072  0.69805671  1
  Se  Se253  1  0.74795245  0.25238717  0.19442777  1
  Se  Se254  1  0.75207576  0.25573970  0.70036549  1
  Se  Se255  1  0.74643336  0.58262481  0.19477708  1
  Se  Se256  1  0.74729302  0.58665734  0.70169007  1
  Se  Se257  1  0.75067884  0.91041065  0.18325141  1
  Se  Se258  1  0.75788825  0.91030037  0.69162236  1
