# generated using pymatgen
data_In86Cu29Se144
_symmetry_space_group_name_H-M   'P 1'
_cell_length_a   17.57530330
_cell_length_b   17.57584400
_cell_length_c   23.43284812
_cell_angle_alpha   89.98997507
_cell_angle_beta   90.00254504
_cell_angle_gamma   90.00533821
_symmetry_Int_Tables_number   1
_chemical_formula_structural   In86Cu29Se144
_chemical_formula_sum   'In86 Cu29 Se144'
_cell_volume   7238.42512474
_cell_formula_units_Z   1
loop_
 _symmetry_equiv_pos_site_id
 _symmetry_equiv_pos_as_xyz
  1  'x, y, z'
loop_
 _atom_site_type_symbol
 _atom_site_label
 _atom_site_symmetry_multiplicity
 _atom_site_fract_x
 _atom_site_fract_y
 _atom_site_fract_z
 _atom_site_occupancy
  In  In0  1  -0.00354411  0.17955287  0.12595916  1
  In  In1  1  0.00782781  0.17100435  0.62885008  1
  In  In2  1  -0.00944145  0.48996624  0.11788164  1
  In  In3  1  0.00569096  0.49278760  0.63288687  1
  In  In4  1  -0.01036202  0.84151094  0.12400297  1
  In  In5  1  -0.00729658  0.81964359  0.62648603  1
  In  In6  1  0.35249854  0.17703927  0.12923555  1
  In  In7  1  0.32721967  0.16915544  0.63176827  1
  In  In8  1  0.33447069  0.50554197  0.12144512  1
  In  In9  1  0.33287544  0.48819263  0.61499225  1
  In  In10  1  0.33335223  0.81767480  0.12967748  1
  In  In11  1  0.34345234  0.83853912  0.61719659  1
  In  In12  1  0.66536983  0.15773308  0.12354519  1
  In  In13  1  0.67187078  0.16100774  0.63825644  1
  In  In14  1  0.68351283  0.52096639  0.09652056  1
  In  In15  1  0.65742160  0.50769063  0.63480011  1
  In  In16  1  0.66786138  0.83425213  0.11989145  1
  In  In17  1  0.65284511  0.83643251  0.63204112  1
  In  In18  1  0.15414969  -0.00777390  0.38489019  1
  In  In19  1  0.17577423  -0.00837652  0.86881280  1
  In  In20  1  0.18159705  0.35426611  0.36281163  1
  In  In21  1  0.17653704  0.34196117  0.86782623  1
  In  In22  1  0.18013358  0.64949306  0.38583505  1
  In  In23  1  0.15371843  0.66244816  0.87507003  1
  In  In24  1  0.50415785  -0.01441755  0.37837339  1
  In  In25  1  0.50323154  -0.00488989  0.87048151  1
  In  In26  1  0.49700957  0.35421150  0.38204248  1
  In  In27  1  0.51344343  0.34633393  0.86780844  1
  In  In28  1  0.50116279  0.66893573  0.37083026  1
  In  In29  1  0.52447174  0.64661792  0.90017198  1
  In  In30  1  0.83085728  0.00201242  0.37012663  1
  In  In31  1  0.81337818  0.01703864  0.88195068  1
  In  In32  1  0.83708728  0.32079761  0.36872518  1
  In  In33  1  0.83185035  0.33469054  0.87536064  1
  In  In34  1  0.81774178  0.67566758  0.36454433  1
  In  In35  1  0.82793780  0.66169491  0.88330971  1
  In  In36  1  -0.00910998  0.16969550  0.37390022  1
  In  In37  1  -0.02503938  0.17438674  0.86984568  1
  In  In38  1  0.01418055  0.50654131  0.37211364  1
  In  In39  1  -0.00029381  0.49802128  0.87704506  1
  In  In40  1  0.00076130  0.84058008  0.37868849  1
  In  In41  1  -0.00331975  0.81487562  0.87147135  1
  In  In42  1  0.32649272  0.18017278  0.37501843  1
  In  In43  1  0.34123806  0.16913704  0.86456837  1
  In  In44  1  0.33579679  0.50166344  0.37410224  1
  In  In45  1  0.34144096  0.48989135  0.87951182  1
  In  In46  1  0.34512058  0.81920992  0.38371227  1
  In  In47  1  0.34540441  0.84182608  0.86780055  1
  In  In48  1  0.67706206  0.16113181  0.37487543  1
  In  In49  1  0.69703711  0.18757118  0.84777707  1
  In  In50  1  0.65219054  0.50374648  0.37552216  1
  In  In51  1  0.67023662  0.50223765  0.88656675  1
  In  In52  1  0.66295560  0.82321691  0.36387790  1
  In  In53  1  0.66382567  0.82762092  0.87922283  1
  In  In54  1  0.16579030  -0.00880328  0.12776607  1
  In  In55  1  0.17523900  0.00497262  0.62240947  1
  In  In56  1  0.16229164  0.34562099  0.12802418  1
  In  In57  1  0.16598098  0.33807592  0.62903359  1
  In  In58  1  0.18203507  0.66743624  0.12888369  1
  In  In59  1  0.16322269  0.65537096  0.61951394  1
  In  In60  1  0.51903350  0.00584450  0.12565474  1
  In  In61  1  0.51115782  -0.01790920  0.62926298  1
  In  In62  1  0.49292358  0.34290035  0.12592219  1
  In  In63  1  0.49355186  0.34311141  0.63543895  1
  In  In64  1  0.50246189  0.66711431  0.11769137  1
  In  In65  1  0.50417034  0.67009783  0.62181776  1
  In  In66  1  0.81083904  -0.01782856  0.10606645  1
  In  In67  1  0.82673419  -0.00976246  0.63157837  1
  In  In68  1  0.83627388  0.34506684  0.10969713  1
  In  In69  1  0.83411540  0.32796673  0.64677970  1
  In  In70  1  0.82477541  0.66688849  0.11753991  1
  In  In71  1  0.83083995  0.66903187  0.64039677  1
  In  In72  1  -0.00409845  0.00095491  0.75037647  1
  In  In73  1  0.33478265  0.00349032  0.25839977  1
  In  In74  1  0.16273811  0.82685737  0.00000385  1
  In  In75  1  -0.00458537  0.00394498  0.25503982  1
  In  In76  1  0.66167555  0.33969622  0.24306377  1
  In  In77  1  0.16392269  0.17007200  0.50657686  1
  In  In78  1  0.15985071  0.16862234  0.00130163  1
  In  In79  1  -0.00596399  0.66270635  0.24618331  1
  In  In80  1  0.50886902  0.17172097  -0.00544198  1
  In  In81  1  0.83492900  0.16022201  0.50817596  1
  In  In82  1  0.33972878  0.66700433  0.74760113  1
  In  In83  1  0.83133125  0.83199260  0.49814556  1
  In  In84  1  0.83561990  0.49535199  0.50479461  1
  In  In85  1  0.50055189  0.16636997  0.50013061  1
  Cu  Cu86  1  0.66365895  0.33655094  0.50856733  1
  Cu  Cu87  1  0.32990684  0.33932450  -0.00077316  1
  Cu  Cu88  1  0.50518728  0.82377261  0.75228163  1
  Cu  Cu89  1  0.83025476  0.83025535  0.75857587  1
  Cu  Cu90  1  0.16424983  0.17160542  0.74973614  1
  Cu  Cu91  1  0.17153236  0.17649437  0.24777258  1
  Cu  Cu92  1  0.83141925  0.50434312  0.76050733  1
  Cu  Cu93  1  0.33105583  0.66855704  0.00111297  1
  Cu  Cu94  1  0.33922542  -0.00161731  -0.00644472  1
  Cu  Cu95  1  0.33795709  0.66553587  0.49885125  1
  Cu  Cu96  1  -0.00423312  0.66006999  -0.00107123  1
  Cu  Cu97  1  0.16607272  0.50259517  0.74782479  1
  Cu  Cu98  1  -0.00902941  -0.00157654  -0.00478241  1
  Cu  Cu99  1  0.49394134  0.15567461  0.74683378  1
  Cu  Cu100  1  0.83616787  0.16428279  0.24495074  1
  Cu  Cu101  1  0.00780790  0.33779977  0.50160839  1
  Cu  Cu102  1  0.82622979  0.49700109  0.23684966  1
  Cu  Cu103  1  0.17120465  0.49691416  0.24971774  1
  Cu  Cu104  1  0.33534371  -0.00234862  0.50300233  1
  Cu  Cu105  1  0.17097245  0.83188529  0.74932356  1
  Cu  Cu106  1  0.66078815  0.66883140  0.49999069  1
  Cu  Cu107  1  0.50379387  0.49932686  0.75788082  1
  Cu  Cu108  1  0.50065906  0.83455459  0.24787386  1
  Cu  Cu109  1  0.00358599  0.66461848  0.50266709  1
  Cu  Cu110  1  0.50604811  0.17552188  0.25150044  1
  Cu  Cu111  1  0.49972780  0.51154286  0.24581519  1
  Cu  Cu112  1  0.66461009  0.00196795  -0.00549125  1
  Cu  Cu113  1  0.16779906  0.82091367  0.26043093  1
  Cu  Cu114  1  -0.00381687  0.33342128  -0.00354673  1
  Se  Se115  1  0.07363149  0.07028836  0.06002157  1
  Se  Se116  1  0.06991386  0.07388777  0.55686399  1
  Se  Se117  1  0.08220097  0.41392906  0.05053145  1
  Se  Se118  1  0.08701266  0.42106537  0.55697928  1
  Se  Se119  1  0.07334440  0.73963110  0.06412281  1
  Se  Se120  1  0.08334640  0.75005571  0.55630324  1
  Se  Se121  1  0.41501525  0.08021952  0.05657147  1
  Se  Se122  1  0.41265830  0.07826515  0.56444525  1
  Se  Se123  1  0.41557216  0.42035457  0.05182435  1
  Se  Se124  1  0.43175010  0.41707614  0.55304847  1
  Se  Se125  1  0.41398963  0.75448892  0.05182277  1
  Se  Se126  1  0.42195523  0.74948831  0.55107962  1
  Se  Se127  1  0.74745475  0.08984259  0.04638841  1
  Se  Se128  1  0.73843400  0.07011846  0.55963014  1
  Se  Se129  1  0.74145866  0.40817796  0.04196955  1
  Se  Se130  1  0.74955791  0.40866376  0.56957366  1
  Se  Se131  1  0.74302773  0.74847321  0.04884073  1
  Se  Se132  1  0.74614144  0.74165488  0.56168984  1
  Se  Se133  1  0.25796161  0.25314660  0.06020798  1
  Se  Se134  1  0.25976378  0.26128858  0.55719340  1
  Se  Se135  1  0.24536402  0.58470414  0.05165613  1
  Se  Se136  1  0.25432020  0.58199168  0.55215346  1
  Se  Se137  1  0.25830292  0.92064280  0.05628563  1
  Se  Se138  1  0.24778690  0.91542128  0.55336486  1
  Se  Se139  1  0.58882370  0.25998184  0.06212474  1
  Se  Se140  1  0.58962507  0.24949269  0.56649313  1
  Se  Se141  1  0.56648431  0.57537522  0.04487536  1
  Se  Se142  1  0.58477954  0.58058631  0.55477613  1
  Se  Se143  1  0.58238100  0.92065730  0.05057354  1
  Se  Se144  1  0.58224891  0.90668350  0.55160593  1
  Se  Se145  1  0.91569922  0.24671221  0.04932481  1
  Se  Se146  1  0.92255254  0.26235472  0.56105445  1
  Se  Se147  1  0.91103143  0.57958097  0.05380652  1
  Se  Se148  1  0.91924174  0.59081004  0.56483592  1
  Se  Se149  1  0.91199479  0.90887313  0.04555319  1
  Se  Se150  1  0.92063955  0.92108990  0.56007393  1
  Se  Se151  1  0.08088417  0.25581427  0.43763440  1
  Se  Se152  1  0.07701715  0.25508462  0.93464215  1
  Se  Se153  1  0.08531463  0.57645825  0.45256889  1
  Se  Se154  1  0.08415118  0.57925091  0.94918999  1
  Se  Se155  1  0.07956840  0.90924114  0.45445661  1
  Se  Se156  1  0.07691461  0.92105112  0.93776004  1
  Se  Se157  1  0.40972360  0.26171032  0.44609155  1
  Se  Se158  1  0.41034997  0.25889312  0.93898775  1
  Se  Se159  1  0.42080734  0.58563709  0.44115972  1
  Se  Se160  1  0.41096414  0.57996099  0.95017399  1
  Se  Se161  1  0.41825088  0.91423731  0.44956830  1
  Se  Se162  1  0.42328442  0.91486622  0.94442324  1
  Se  Se163  1  0.74562986  0.25829073  0.44823455  1
  Se  Se164  1  0.75130400  0.24273119  0.93948998  1
  Se  Se165  1  0.74743607  0.58876642  0.44362108  1
  Se  Se166  1  0.73796780  0.59660695  0.95643676  1
  Se  Se167  1  0.74274546  0.91862880  0.43609247  1
  Se  Se168  1  0.75017261  0.91452699  0.94556951  1
  Se  Se169  1  0.25688557  0.07855060  0.44260353  1
  Se  Se170  1  0.25525260  0.08137086  0.94082303  1
  Se  Se171  1  0.24931443  0.42227853  0.44319931  1
  Se  Se172  1  0.24371989  0.42065215  0.94696984  1
  Se  Se173  1  0.24840246  0.74952409  0.44976674  1
  Se  Se174  1  0.25631371  0.74752834  0.93479901  1
  Se  Se175  1  0.59346479  0.07572717  0.44343482  1
  Se  Se176  1  0.59433479  0.08598098  0.93056443  1
  Se  Se177  1  0.58645093  0.42255628  0.45397645  1
  Se  Se178  1  0.57959575  0.41633619  0.94876157  1
  Se  Se179  1  0.58415809  0.75201474  0.44133898  1
  Se  Se180  1  0.56631551  0.76892746  0.95066173  1
  Se  Se181  1  0.92436678  0.07204859  0.44373309  1
  Se  Se182  1  0.91199092  0.08838398  0.94618623  1
  Se  Se183  1  0.92289558  0.40923190  0.43792426  1
  Se  Se184  1  0.91249409  0.41968084  0.94586298  1
  Se  Se185  1  0.91915033  0.73453946  0.43871682  1
  Se  Se186  1  0.91627137  0.74907571  0.94868915  1
  Se  Se187  1  0.25744724  0.25916136  0.29816167  1
  Se  Se188  1  0.25310133  0.25198674  0.80082464  1
  Se  Se189  1  0.25148856  0.58355785  0.30313014  1
  Se  Se190  1  0.24847658  0.57906626  0.80964642  1
  Se  Se191  1  0.24462068  0.91049061  0.31610140  1
  Se  Se192  1  0.25749173  0.91602500  0.79682011  1
  Se  Se193  1  0.58253909  0.25357289  0.31702377  1
  Se  Se194  1  0.57207959  0.24013293  0.80400485  1
  Se  Se195  1  0.58763190  0.58903749  0.30047042  1
  Se  Se196  1  0.58585877  0.58220899  0.81230887  1
  Se  Se197  1  0.58339258  0.91925276  0.30031565  1
  Se  Se198  1  0.58771397  0.91085034  0.80395615  1
  Se  Se199  1  0.92106965  0.24841750  0.29585566  1
  Se  Se200  1  0.91251190  0.26186649  0.79739895  1
  Se  Se201  1  0.90340379  0.57112412  0.30705719  1
  Se  Se202  1  0.91699845  0.58735359  0.81216649  1
  Se  Se203  1  0.90592523  0.90272373  0.30419675  1
  Se  Se204  1  0.91036840  0.91489464  0.81603438  1
  Se  Se205  1  0.09631034  0.09315191  0.30935763  1
  Se  Se206  1  0.08702561  0.09092362  0.81274458  1
  Se  Se207  1  0.07822911  0.41751809  0.29819487  1
  Se  Se208  1  0.08358117  0.42001963  0.80408688  1
  Se  Se209  1  0.08319011  0.74224372  0.31663234  1
  Se  Se210  1  0.08669289  0.74778551  0.79950729  1
  Se  Se211  1  0.42796015  0.09554101  0.31586831  1
  Se  Se212  1  0.41233990  0.07155016  0.80165852  1
  Se  Se213  1  0.42302255  0.42361951  0.30231296  1
  Se  Se214  1  0.41317281  0.41344207  0.80156714  1
  Se  Se215  1  0.41643013  0.75211622  0.30139136  1
  Se  Se216  1  0.43215303  0.74079535  0.81547179  1
  Se  Se217  1  0.75148518  0.08380360  0.29917523  1
  Se  Se218  1  0.75078681  0.07218135  0.79260319  1
  Se  Se219  1  0.75428479  0.42318592  0.31026530  1
  Se  Se220  1  0.74494988  0.42135858  0.81082255  1
  Se  Se221  1  0.74448796  0.74951549  0.28981507  1
  Se  Se222  1  0.74828660  0.74476040  0.81081989  1
  Se  Se223  1  0.24759761  0.09093357  0.18900660  1
  Se  Se224  1  0.24580617  0.08303497  0.69930096  1
  Se  Se225  1  0.25678476  0.41844165  0.19324255  1
  Se  Se226  1  0.25255535  0.42167975  0.69465823  1
  Se  Se227  1  0.25470736  0.74505324  0.20572732  1
  Se  Se228  1  0.24848116  0.75331558  0.68562466  1
  Se  Se229  1  0.58700515  0.08787646  0.20213817  1
  Se  Se230  1  0.58230424  0.07375912  0.69802235  1
  Se  Se231  1  0.58343477  0.43731095  0.18342189  1
  Se  Se232  1  0.58716152  0.41397562  0.70354302  1
  Se  Se233  1  0.57940227  0.75369287  0.18838644  1
  Se  Se234  1  0.58667472  0.73796858  0.69909370  1
  Se  Se235  1  0.91033676  0.07997591  0.18278503  1
  Se  Se236  1  0.90745620  0.09269446  0.69088355  1
  Se  Se237  1  0.91268530  0.41065227  0.19183634  1
  Se  Se238  1  0.91562663  0.42358956  0.70399142  1
  Se  Se239  1  0.90522036  0.75708013  0.19137441  1
  Se  Se240  1  0.91869691  0.75026456  0.70640561  1
  Se  Se241  1  0.08438959  0.25395530  0.19405288  1
  Se  Se242  1  0.08141557  0.25686904  0.69867568  1
  Se  Se243  1  0.08830749  0.57481928  0.18779054  1
  Se  Se244  1  0.08214083  0.58806438  0.69742788  1
  Se  Se245  1  0.08955855  0.90311131  0.20019297  1
  Se  Se246  1  0.08792758  0.91173341  0.68925756  1
  Se  Se247  1  0.42164794  0.26083304  0.20316731  1
  Se  Se248  1  0.41523730  0.24829891  0.69801315  1
  Se  Se249  1  0.41497485  0.59126008  0.19010018  1
  Se  Se250  1  0.42474752  0.57157264  0.68942201  1
  Se  Se251  1  0.41915214  0.91920399  0.18965908  1
  Se  Se252  1  0.42044806  0.90599536  0.69752502  1
  Se  Se253  1  0.75558014  0.24869965  0.18736457  1
  Se  Se254  1  0.74200160  0.25051772  0.70779839  1
  Se  Se255  1  0.74364371  0.58188058  0.18705989  1
  Se  Se256  1  0.74637284  0.58341120  0.70359787  1
  Se  Se257  1  0.74169842  0.92429163  0.19038728  1
  Se  Se258  1  0.74755973  0.90809373  0.70009586  1
