# generated using pymatgen
data_In86Cu29Se144
_symmetry_space_group_name_H-M   'P 1'
_cell_length_a   17.57474005
_cell_length_b   17.57594489
_cell_length_c   23.43718440
_cell_angle_alpha   89.98101441
_cell_angle_beta   89.95316810
_cell_angle_gamma   90.01136078
_symmetry_Int_Tables_number   1
_chemical_formula_structural   In86Cu29Se144
_chemical_formula_sum   'In86 Cu29 Se144'
_cell_volume   7239.57133087
_cell_formula_units_Z   1
loop_
 _symmetry_equiv_pos_site_id
 _symmetry_equiv_pos_as_xyz
  1  'x, y, z'
loop_
 _atom_site_type_symbol
 _atom_site_label
 _atom_site_symmetry_multiplicity
 _atom_site_fract_x
 _atom_site_fract_y
 _atom_site_fract_z
 _atom_site_occupancy
  In  In0  1  -0.02032562  0.17142302  0.11857374  1
  In  In1  1  -0.00284934  0.16722751  0.63739862  1
  In  In2  1  0.00266902  0.50620625  0.12332803  1
  In  In3  1  -0.00352380  0.49974020  0.62081157  1
  In  In4  1  -0.00631864  0.82638900  0.11810594  1
  In  In5  1  0.00535525  0.83240251  0.62896846  1
  In  In6  1  0.33042078  0.14604696  0.12451616  1
  In  In7  1  0.34261776  0.14903040  0.62991943  1
  In  In8  1  0.34987362  0.50133091  0.13033232  1
  In  In9  1  0.34081114  0.51281225  0.60942708  1
  In  In10  1  0.33716075  0.83209157  0.12296011  1
  In  In11  1  0.35133237  0.84593234  0.60400544  1
  In  In12  1  0.66629329  0.16789296  0.12355987  1
  In  In13  1  0.65295356  0.15665984  0.62931828  1
  In  In14  1  0.65529394  0.49064579  0.12500544  1
  In  In15  1  0.66857038  0.49356864  0.61845781  1
  In  In16  1  0.67340388  0.84608116  0.11804733  1
  In  In17  1  0.65584680  0.85082505  0.63251137  1
  In  In18  1  0.16950801  -0.02098816  0.37840044  1
  In  In19  1  0.15648883  -0.00562885  0.87190305  1
  In  In20  1  0.17957915  0.33524213  0.37794461  1
  In  In21  1  0.16097522  0.34374606  0.86846330  1
  In  In22  1  0.16678765  0.67024300  0.37381763  1
  In  In23  1  0.18090035  0.67638675  0.87339582  1
  In  In24  1  0.49829811  -0.00060419  0.37286316  1
  In  In25  1  0.50550681  -0.00530916  0.86396129  1
  In  In26  1  0.50709054  0.33058476  0.38004283  1
  In  In27  1  0.50462208  0.33000195  0.87942083  1
  In  In28  1  0.48467056  0.68329838  0.39046355  1
  In  In29  1  0.50220938  0.66481784  0.88143792  1
  In  In30  1  0.82058211  0.00921725  0.37029581  1
  In  In31  1  0.83305474  -0.00154832  0.87625680  1
  In  In32  1  0.82907655  0.34168181  0.36817595  1
  In  In33  1  0.84419580  0.32506175  0.88813721  1
  In  In34  1  0.83218248  0.65125516  0.36980777  1
  In  In35  1  0.82905620  0.66959314  0.88778460  1
  In  In36  1  -0.00966348  0.17496562  0.37189584  1
  In  In37  1  -0.00818397  0.16194427  0.87256073  1
  In  In38  1  -0.01078607  0.50567561  0.37489675  1
  In  In39  1  -0.00518127  0.48910127  0.87282861  1
  In  In40  1  0.01829246  0.83201834  0.37555785  1
  In  In41  1  -0.01416200  0.85179246  0.88827855  1
  In  In42  1  0.35201715  0.17250054  0.37293639  1
  In  In43  1  0.35742782  0.15422830  0.87660110  1
  In  In44  1  0.31671891  0.52260364  0.39672920  1
  In  In45  1  0.33762891  0.50688997  0.87565420  1
  In  In46  1  0.33248535  0.83078361  0.37367257  1
  In  In47  1  0.33145605  0.83704307  0.87852353  1
  In  In48  1  0.65267381  0.15016213  0.35774003  1
  In  In49  1  0.66688849  0.16364694  0.87828309  1
  In  In50  1  0.67146367  0.49749148  0.38025833  1
  In  In51  1  0.66624453  0.50468975  0.88352308  1
  In  In52  1  0.64954772  0.83183516  0.37444421  1
  In  In53  1  0.66193709  0.84051863  0.87878332  1
  In  In54  1  0.18469514  -0.00372766  0.12308317  1
  In  In55  1  0.18027793  -0.01305942  0.63445118  1
  In  In56  1  0.15762286  0.34177729  0.12474616  1
  In  In57  1  0.15553391  0.33419821  0.62475111  1
  In  In58  1  0.16087579  0.67381003  0.13322246  1
  In  In59  1  0.18340876  0.68338811  0.60341208  1
  In  In60  1  0.50106358  -0.00059376  0.12045521  1
  In  In61  1  0.49587161  -0.00354391  0.62574029  1
  In  In62  1  0.51070615  0.33998057  0.12125950  1
  In  In63  1  0.50502863  0.33059420  0.62080557  1
  In  In64  1  0.49271470  0.66366417  0.12610903  1
  In  In65  1  0.49801146  0.66615016  0.61773456  1
  In  In66  1  0.82421207  -0.00297811  0.12038453  1
  In  In67  1  0.81969239  -0.00230864  0.64753483  1
  In  In68  1  0.81505523  0.31373361  0.10414295  1
  In  In69  1  0.83443982  0.34465081  0.62677978  1
  In  In70  1  0.84135850  0.67773080  0.11905802  1
  In  In71  1  0.84297851  0.66269143  0.62392499  1
  In  In72  1  0.67075175  0.32801738  0.75325200  1
  In  In73  1  -0.00802714  0.33558011  0.24683312  1
  In  In74  1  0.00286721  0.67172104  0.74406780  1
  In  In75  1  0.34595453  0.33423786  0.25544160  1
  In  In76  1  0.66232511  0.66717762  0.24997158  1
  In  In77  1  0.66315255  0.67194159  0.75713995  1
  In  In78  1  0.17501639  0.16447453  0.50873680  1
  In  In79  1  0.33813902  0.67307424  0.74067151  1
  In  In80  1  0.33047416  0.32803021  0.74878353  1
  In  In81  1  0.83323408  0.82906031  0.50598842  1
  In  In82  1  0.16601772  0.50312984  0.00392880  1
  In  In83  1  0.16553583  0.16646675  -0.00059497  1
  In  In84  1  -0.00010600  -0.00747304  0.24504741  1
  In  In85  1  0.82757125  0.16963219  0.49972493  1
  Cu  Cu86  1  0.17595557  0.82647948  0.25133090  1
  Cu  Cu87  1  0.16189551  0.50026342  0.74038363  1
  Cu  Cu88  1  0.34198943  0.33375637  0.49972105  1
  Cu  Cu89  1  0.33859063  0.67044563  0.00079167  1
  Cu  Cu90  1  0.50266509  0.16163949  0.24551458  1
  Cu  Cu91  1  -0.00015104  -0.00121565  0.50619755  1
  Cu  Cu92  1  -0.00060113  -0.00089337  -0.00260161  1
  Cu  Cu93  1  0.00762389  0.66776205  0.00100948  1
  Cu  Cu94  1  0.83714752  0.83178604  0.24344406  1
  Cu  Cu95  1  0.83070918  0.49990984  0.24677430  1
  Cu  Cu96  1  0.49844354  0.50361896  0.25752116  1
  Cu  Cu97  1  0.34416153  -0.00597795  -0.00227020  1
  Cu  Cu98  1  0.17066241  0.50552865  0.25503690  1
  Cu  Cu99  1  0.00220981  0.34038140  0.49807607  1
  Cu  Cu100  1  0.83661150  0.16988608  0.76000520  1
  Cu  Cu101  1  0.16310732  0.84167381  0.75246665  1
  Cu  Cu102  1  0.66497563  0.66622702  0.00716527  1
  Cu  Cu103  1  0.66342019  0.00364014  -0.00290785  1
  Cu  Cu104  1  0.16159218  0.15488913  0.24736009  1
  Cu  Cu105  1  0.66262651  0.33558607  -0.00037957  1
  Cu  Cu106  1  0.16482739  0.16713714  0.75276298  1
  Cu  Cu107  1  0.33758888  -0.00010142  0.49749239  1
  Cu  Cu108  1  0.00042545  0.66173911  0.49759552  1
  Cu  Cu109  1  0.33994842  0.32994443  0.00272977  1
  Cu  Cu110  1  0.66715588  0.66617208  0.49809470  1
  Cu  Cu111  1  0.49626297  0.84118144  0.25005100  1
  Cu  Cu112  1  0.65672163  0.00043466  0.49966935  1
  Cu  Cu113  1  0.83542749  0.49798255  0.75091811  1
  Cu  Cu114  1  0.67069290  0.32942857  0.49996938  1
  Se  Se115  1  0.07749009  0.07615223  0.06341525  1
  Se  Se116  1  0.07943212  0.07839337  0.56667622  1
  Se  Se117  1  0.06855160  0.40633069  0.04991959  1
  Se  Se118  1  0.08523367  0.42074644  0.55245256  1
  Se  Se119  1  0.09058019  0.75076077  0.05447021  1
  Se  Se120  1  0.07345328  0.75407009  0.55079291  1
  Se  Se121  1  0.41938759  0.08532756  0.04996736  1
  Se  Se122  1  0.42086514  0.08268567  0.55112125  1
  Se  Se123  1  0.41865972  0.41855440  0.05529487  1
  Se  Se124  1  0.42560159  0.41686785  0.55311725  1
  Se  Se125  1  0.42391504  0.75284826  0.05338322  1
  Se  Se126  1  0.39473516  0.72504023  0.55277405  1
  Se  Se127  1  0.74827104  0.08520241  0.05175398  1
  Se  Se128  1  0.74651816  0.07099259  0.56020265  1
  Se  Se129  1  0.74438301  0.42301158  0.05157638  1
  Se  Se130  1  0.75567565  0.41447453  0.55001663  1
  Se  Se131  1  0.75147404  0.75431202  0.05278526  1
  Se  Se132  1  0.73872520  0.74499011  0.56710770  1
  Se  Se133  1  0.25523680  0.25744505  0.06369727  1
  Se  Se134  1  0.26502137  0.25673137  0.56666013  1
  Se  Se135  1  0.25914859  0.58908657  0.06328832  1
  Se  Se136  1  0.23912447  0.57360155  0.54559190  1
  Se  Se137  1  0.25576965  0.91368419  0.04964547  1
  Se  Se138  1  0.24624427  0.92097496  0.54851522  1
  Se  Se139  1  0.58120658  0.24831671  0.05240580  1
  Se  Se140  1  0.58954277  0.24546225  0.55482209  1
  Se  Se141  1  0.57920818  0.58285016  0.05876899  1
  Se  Se142  1  0.58684244  0.58211307  0.55446377  1
  Se  Se143  1  0.58129468  0.91636900  0.04939493  1
  Se  Se144  1  0.57695452  0.91377007  0.55251974  1
  Se  Se145  1  0.91967582  0.25268711  0.04123066  1
  Se  Se146  1  0.92560423  0.25526503  0.55812307  1
  Se  Se147  1  0.92130709  0.58718115  0.05360352  1
  Se  Se148  1  0.91368722  0.58046842  0.54971255  1
  Se  Se149  1  0.91548264  0.91833010  0.05454241  1
  Se  Se150  1  0.91203118  0.92815079  0.56737964  1
  Se  Se151  1  0.08054939  0.25153458  0.44347240  1
  Se  Se152  1  0.07966774  0.25709525  0.93818201  1
  Se  Se153  1  0.08136826  0.58157859  0.43974180  1
  Se  Se154  1  0.08279639  0.59029017  0.93492468  1
  Se  Se155  1  0.08236490  0.91493555  0.45384786  1
  Se  Se156  1  0.08994993  0.91555221  0.95199688  1
  Se  Se157  1  0.42423802  0.24696329  0.45004696  1
  Se  Se158  1  0.42112689  0.24742760  0.94807084  1
  Se  Se159  1  0.43327601  0.57185590  0.45073576  1
  Se  Se160  1  0.41755867  0.58123530  0.94909705  1
  Se  Se161  1  0.41785918  0.91500445  0.44215798  1
  Se  Se162  1  0.42681564  0.91492658  0.94011683  1
  Se  Se163  1  0.74056218  0.24971957  0.43235077  1
  Se  Se164  1  0.74543963  0.24947908  0.94754075  1
  Se  Se165  1  0.75365630  0.58394434  0.44807820  1
  Se  Se166  1  0.74947345  0.58281233  0.95417568  1
  Se  Se167  1  0.74424185  0.92037427  0.44348528  1
  Se  Se168  1  0.74996515  0.91794530  0.94743742  1
  Se  Se169  1  0.25676385  0.08188008  0.43728779  1
  Se  Se170  1  0.25677449  0.07593045  0.94129015  1
  Se  Se171  1  0.24885710  0.41351269  0.45385616  1
  Se  Se172  1  0.25746213  0.40942794  0.94332740  1
  Se  Se173  1  0.24121679  0.75901888  0.44199099  1
  Se  Se174  1  0.25191283  0.75271196  0.95019547  1
  Se  Se175  1  0.58165944  0.08541539  0.44162679  1
  Se  Se176  1  0.57706302  0.07984657  0.94040868  1
  Se  Se177  1  0.58736186  0.41564484  0.44872711  1
  Se  Se178  1  0.57895419  0.41999353  0.94747839  1
  Se  Se179  1  0.58245168  0.75666221  0.45435107  1
  Se  Se180  1  0.58735149  0.74803501  0.94644744  1
  Se  Se181  1  0.92238199  0.07495404  0.44303651  1
  Se  Se182  1  0.91516523  0.08358668  0.94698175  1
  Se  Se183  1  0.91366431  0.41321036  0.44140617  1
  Se  Se184  1  0.90573920  0.43272801  0.94775464  1
  Se  Se185  1  0.91883053  0.74436009  0.43757996  1
  Se  Se186  1  0.91879517  0.75100148  0.95177798  1
  Se  Se187  1  0.24343691  0.23943511  0.30481692  1
  Se  Se188  1  0.24674320  0.24036965  0.81648875  1
  Se  Se189  1  0.25556559  0.58552104  0.30809107  1
  Se  Se190  1  0.24424276  0.57688862  0.80116442  1
  Se  Se191  1  0.25399616  0.91713827  0.30161394  1
  Se  Se192  1  0.25073336  0.91815015  0.80738530  1
  Se  Se193  1  0.57669435  0.25258729  0.30077172  1
  Se  Se194  1  0.57383591  0.23882133  0.80544033  1
  Se  Se195  1  0.57677892  0.58600065  0.31799298  1
  Se  Se196  1  0.57452080  0.57212838  0.80784322  1
  Se  Se197  1  0.58497618  0.92060781  0.30159310  1
  Se  Se198  1  0.60171464  0.92075129  0.79701907  1
  Se  Se199  1  0.89820830  0.23970118  0.29948667  1
  Se  Se200  1  0.91933230  0.25923665  0.80624961  1
  Se  Se201  1  0.91847827  0.58273689  0.29582190  1
  Se  Se202  1  0.91094853  0.58634083  0.80851511  1
  Se  Se203  1  0.91166759  0.90786575  0.31324227  1
  Se  Se204  1  0.92277291  0.92284915  0.80690808  1
  Se  Se205  1  0.08399450  0.08288511  0.31444441  1
  Se  Se206  1  0.07983522  0.08372713  0.80485187  1
  Se  Se207  1  0.09043566  0.41753073  0.30920279  1
  Se  Se208  1  0.07943503  0.42058295  0.79649822  1
  Se  Se209  1  0.08328422  0.74763015  0.29968345  1
  Se  Se210  1  0.08573143  0.75842625  0.81194657  1
  Se  Se211  1  0.41684576  0.08253663  0.30093428  1
  Se  Se212  1  0.41161115  0.07040502  0.79803805  1
  Se  Se213  1  0.41678190  0.42919774  0.32201334  1
  Se  Se214  1  0.42073723  0.41852149  0.80867375  1
  Se  Se215  1  0.42102798  0.75118190  0.30463708  1
  Se  Se216  1  0.42368694  0.75379606  0.80997130  1
  Se  Se217  1  0.75043953  0.08249828  0.29322519  1
  Se  Se218  1  0.75130578  0.08577567  0.80840656  1
  Se  Se219  1  0.74358721  0.42176111  0.30036806  1
  Se  Se220  1  0.75604855  0.42127016  0.81374888  1
  Se  Se221  1  0.75557139  0.75776101  0.30976831  1
  Se  Se222  1  0.76031655  0.75658132  0.81257084  1
  Se  Se223  1  0.25304854  0.07423426  0.20199343  1
  Se  Se224  1  0.24903773  0.08432325  0.70008393  1
  Se  Se225  1  0.24700519  0.42059734  0.19502021  1
  Se  Se226  1  0.25137025  0.42436446  0.68469536  1
  Se  Se227  1  0.25975557  0.74611628  0.19529473  1
  Se  Se228  1  0.24043031  0.76239553  0.68930304  1
  Se  Se229  1  0.58497545  0.07964514  0.19058939  1
  Se  Se230  1  0.58629416  0.06654357  0.69783777  1
  Se  Se231  1  0.57634342  0.41828772  0.20193917  1
  Se  Se232  1  0.58200837  0.41988979  0.69382718  1
  Se  Se233  1  0.57925650  0.76171648  0.18902337  1
  Se  Se234  1  0.57045607  0.75381337  0.69312588  1
  Se  Se235  1  0.90778043  0.08646591  0.19291105  1
  Se  Se236  1  0.91473701  0.08259042  0.70385505  1
  Se  Se237  1  0.90533736  0.41962660  0.18217736  1
  Se  Se238  1  0.92139795  0.41874719  0.69672196  1
  Se  Se239  1  0.92298238  0.74734539  0.19627828  1
  Se  Se240  1  0.90177363  0.76291423  0.69506576  1
  Se  Se241  1  0.08518958  0.23866628  0.18969373  1
  Se  Se242  1  0.08408329  0.25339181  0.70022889  1
  Se  Se243  1  0.08407550  0.57977889  0.19738414  1
  Se  Se244  1  0.09421759  0.58966309  0.67993516  1
  Se  Se245  1  0.09499563  0.90541853  0.18804951  1
  Se  Se246  1  0.07717374  0.92180757  0.69851091  1
  Se  Se247  1  0.41970949  0.24232625  0.18590900  1
  Se  Se248  1  0.42815234  0.24146444  0.69373839  1
  Se  Se249  1  0.41701354  0.58780857  0.20413955  1
  Se  Se250  1  0.42641781  0.57166957  0.69190153  1
  Se  Se251  1  0.41504667  0.92072282  0.19149539  1
  Se  Se252  1  0.40637022  0.91365237  0.69014642  1
  Se  Se253  1  0.74556503  0.25810982  0.18947561  1
  Se  Se254  1  0.75971152  0.23974246  0.68830322  1
  Se  Se255  1  0.75274542  0.58319076  0.18581479  1
  Se  Se256  1  0.75348106  0.57816873  0.69308013  1
  Se  Se257  1  0.75080279  0.91660998  0.19671016  1
  Se  Se258  1  0.73263808  0.91670062  0.71263937  1
