# generated using pymatgen
data_In86Cu29Se144
_symmetry_space_group_name_H-M   'P 1'
_cell_length_a   17.57570465
_cell_length_b   17.58142575
_cell_length_c   23.43955610
_cell_angle_alpha   90.00089063
_cell_angle_beta   90.02030538
_cell_angle_gamma   89.98412774
_symmetry_Int_Tables_number   1
_chemical_formula_structural   In86Cu29Se144
_chemical_formula_sum   'In86 Cu29 Se144'
_cell_volume   7242.96147836
_cell_formula_units_Z   1
loop_
 _symmetry_equiv_pos_site_id
 _symmetry_equiv_pos_as_xyz
  1  'x, y, z'
loop_
 _atom_site_type_symbol
 _atom_site_label
 _atom_site_symmetry_multiplicity
 _atom_site_fract_x
 _atom_site_fract_y
 _atom_site_fract_z
 _atom_site_occupancy
  In  In0  1  -0.00918367  0.15628611  0.12411979  1
  In  In1  1  -0.00114267  0.17288980  0.63275548  1
  In  In2  1  0.00738578  0.50774792  0.11473606  1
  In  In3  1  0.00997005  0.49192800  0.62961294  1
  In  In4  1  0.00432846  0.83723164  0.11799223  1
  In  In5  1  0.00116110  0.83124176  0.62592305  1
  In  In6  1  0.33703550  0.15624129  0.13617846  1
  In  In7  1  0.32159619  0.16164366  0.63674339  1
  In  In8  1  0.31821141  0.50886839  0.13981362  1
  In  In9  1  0.32382810  0.49098018  0.61849825  1
  In  In10  1  0.32938750  0.83452857  0.12414084  1
  In  In11  1  0.32494731  0.85443876  0.63258712  1
  In  In12  1  0.65185117  0.16416736  0.11988401  1
  In  In13  1  0.68154634  0.16051172  0.62820405  1
  In  In14  1  0.66794518  0.49267935  0.11838405  1
  In  In15  1  0.65185998  0.49971023  0.62449038  1
  In  In16  1  0.67797379  0.84297108  0.11405841  1
  In  In17  1  0.66949766  0.82415384  0.62265222  1
  In  In18  1  0.15844146  -0.00381021  0.36996324  1
  In  In19  1  0.16068045  -0.00810216  0.86704478  1
  In  In20  1  0.18010212  0.33685429  0.37359981  1
  In  In21  1  0.17613512  0.34040009  0.86863043  1
  In  In22  1  0.17849785  0.65939251  0.38255897  1
  In  In23  1  0.15872012  0.68053377  0.88260498  1
  In  In24  1  0.49231835  -0.00502831  0.36691988  1
  In  In25  1  0.49731739  0.00251996  0.88543351  1
  In  In26  1  0.49510325  0.34423867  0.38294703  1
  In  In27  1  0.48922001  0.32176263  0.86595992  1
  In  In28  1  0.48073373  0.66991641  0.37367885  1
  In  In29  1  0.51460688  0.67545980  0.88380419  1
  In  In30  1  0.83661352  -0.00413931  0.37611037  1
  In  In31  1  0.84279947  -0.00988152  0.87667773  1
  In  In32  1  0.82194013  0.32791658  0.37613786  1
  In  In33  1  0.84719980  0.34437651  0.86470152  1
  In  In34  1  0.84795912  0.67796898  0.37232685  1
  In  In35  1  0.83634270  0.65877944  0.88304173  1
  In  In36  1  0.00709974  0.14547911  0.37684014  1
  In  In37  1  0.01884095  0.17022047  0.85371495  1
  In  In38  1  0.00752711  0.51165194  0.37678388  1
  In  In39  1  0.00143653  0.50607832  0.87369918  1
  In  In40  1  -0.00552695  0.84660707  0.38177702  1
  In  In41  1  0.00030615  0.83227825  0.87171121  1
  In  In42  1  0.31420359  0.16375398  0.35690956  1
  In  In43  1  0.33707919  0.17298454  0.86908103  1
  In  In44  1  0.32955186  0.50337493  0.37692224  1
  In  In45  1  0.33273771  0.48389782  0.87431956  1
  In  In46  1  0.32869781  0.82955242  0.37259593  1
  In  In47  1  0.33318320  0.83925054  0.88279305  1
  In  In48  1  0.67915203  0.16279600  0.38054316  1
  In  In49  1  0.65092751  0.16504053  0.87575251  1
  In  In50  1  0.66301022  0.48542973  0.37548492  1
  In  In51  1  0.68247856  0.50540178  0.87322526  1
  In  In52  1  0.66921142  0.84731661  0.36924607  1
  In  In53  1  0.67153292  0.82991768  0.89391836  1
  In  In54  1  0.17857324  -0.00920350  0.13803860  1
  In  In55  1  0.17677100  -0.01361991  0.63154845  1
  In  In56  1  0.17005344  0.34287467  0.12308104  1
  In  In57  1  0.15706425  0.33713646  0.63287936  1
  In  In58  1  0.16925125  0.67021782  0.11988167  1
  In  In59  1  0.15851392  0.65759510  0.62119759  1
  In  In60  1  0.49864356  0.00138619  0.12729564  1
  In  In61  1  0.47571100  -0.00543974  0.62887536  1
  In  In62  1  0.49677036  0.32177547  0.11957900  1
  In  In63  1  0.48623611  0.33765002  0.63240538  1
  In  In64  1  0.48165969  0.66434848  0.12458459  1
  In  In65  1  0.51074039  0.66487828  0.62490043  1
  In  In66  1  0.84552807  -0.02102485  0.14051161  1
  In  In67  1  0.84235835  0.00837781  0.61721396  1
  In  In68  1  0.82299438  0.33430992  0.11886086  1
  In  In69  1  0.84418453  0.32316378  0.63212588  1
  In  In70  1  0.84059790  0.67696881  0.11106542  1
  In  In71  1  0.83420753  0.68238012  0.62165780  1
  In  In72  1  0.49735562  0.50100285  -0.00187147  1
  In  In73  1  0.83085598  0.16221935  -0.00638297  1
  In  In74  1  0.66805867  -0.00068819  0.75630044  1
  In  In75  1  0.66323255  0.67363343  0.24802514  1
  In  In76  1  0.00809281  0.67548350  0.23989544  1
  In  In77  1  0.49823127  0.82946013  0.49980360  1
  In  In78  1  0.49709435  0.16992872  0.50659321  1
  In  In79  1  0.16762158  0.16365409  -0.00627677  1
  In  In80  1  0.83608029  0.50172521  0.49697305  1
  In  In81  1  0.00807081  0.32776469  0.25442435  1
  In  In82  1  0.16587443  0.16310028  0.49953116  1
  In  In83  1  0.33560562  0.66680641  0.75926803  1
  In  In84  1  0.66082574  0.32533066  0.24506131  1
  In  In85  1  0.67147999  0.66812940  0.75054523  1
  Cu  Cu86  1  0.83877947  0.50157902  0.23720051  1
  Cu  Cu87  1  0.33472811  0.33584524  0.49992627  1
  Cu  Cu88  1  0.32740911  0.66824117  0.00225212  1
  Cu  Cu89  1  0.33345756  0.33159953  -0.00382610  1
  Cu  Cu90  1  0.83478689  0.16960141  0.74856958  1
  Cu  Cu91  1  0.83902608  0.50110963  0.75003688  1
  Cu  Cu92  1  -0.00003156  -0.00451064  0.50210266  1
  Cu  Cu93  1  0.49534446  0.49415241  0.74957319  1
  Cu  Cu94  1  0.66903588  0.34086340  -0.00665190  1
  Cu  Cu95  1  0.33426083  -0.00016339  0.00824753  1
  Cu  Cu96  1  0.66763155  -0.00314776  0.49942640  1
  Cu  Cu97  1  0.49463958  0.83784492  0.24573331  1
  Cu  Cu98  1  0.83952033  0.83607082  0.74986388  1
  Cu  Cu99  1  0.00090504  0.33038965  0.50721614  1
  Cu  Cu100  1  0.16254212  0.50112920  0.74869786  1
  Cu  Cu101  1  0.16276259  0.82731440  0.75209710  1
  Cu  Cu102  1  0.66631893  0.00494712  0.00369879  1
  Cu  Cu103  1  0.50065418  0.16499879  0.75112560  1
  Cu  Cu104  1  -0.00152396  0.34459562  -0.00560286  1
  Cu  Cu105  1  0.83417683  0.15162151  0.25337678  1
  Cu  Cu106  1  0.49957386  0.16597624  0.25016480  1
  Cu  Cu107  1  0.16662577  0.82834618  0.25114954  1
  Cu  Cu108  1  0.66913993  0.33219723  0.50227658  1
  Cu  Cu109  1  0.48944208  0.49941074  0.25430364  1
  Cu  Cu110  1  0.00628911  0.67361420  0.49942929  1
  Cu  Cu111  1  0.33411098  0.66632367  0.50125729  1
  Cu  Cu112  1  -0.00107552  0.66841692  -0.00320370  1
  Cu  Cu113  1  0.00193017  -0.00418409  -0.00346481  1
  Cu  Cu114  1  0.66759784  0.66533183  0.49939162  1
  Se  Se115  1  0.08203595  0.07415636  0.05825452  1
  Se  Se116  1  0.07872033  0.07633349  0.56391940  1
  Se  Se117  1  0.08765653  0.41797360  0.05004861  1
  Se  Se118  1  0.08690416  0.41568312  0.55385556  1
  Se  Se119  1  0.08383235  0.74976391  0.05149685  1
  Se  Se120  1  0.08881093  0.75467522  0.55537859  1
  Se  Se121  1  0.41622801  0.08781556  0.05807602  1
  Se  Se122  1  0.39911628  0.07975872  0.55705747  1
  Se  Se123  1  0.40706122  0.41522798  0.06054509  1
  Se  Se124  1  0.42037747  0.41756231  0.55309789  1
  Se  Se125  1  0.41205409  0.75219513  0.05293397  1
  Se  Se126  1  0.40958211  0.74584271  0.56590523  1
  Se  Se127  1  0.75300984  0.07809939  0.06488949  1
  Se  Se128  1  0.75060558  0.08393779  0.54974534  1
  Se  Se129  1  0.75429661  0.42126077  0.04584173  1
  Se  Se130  1  0.75045284  0.41412913  0.56239071  1
  Se  Se131  1  0.74740961  0.74985044  0.04735204  1
  Se  Se132  1  0.75028781  0.75315141  0.54690810  1
  Se  Se133  1  0.25637488  0.24900946  0.05809415  1
  Se  Se134  1  0.25397081  0.25608192  0.56069294  1
  Se  Se135  1  0.25124864  0.57852216  0.05562102  1
  Se  Se136  1  0.24828784  0.58219835  0.55290869  1
  Se  Se137  1  0.24391365  0.91790728  0.05535773  1
  Se  Se138  1  0.25001431  0.91694627  0.55176200  1
  Se  Se139  1  0.58787671  0.25629689  0.04740792  1
  Se  Se140  1  0.59047388  0.25567119  0.56650333  1
  Se  Se141  1  0.58453860  0.59013478  0.06007609  1
  Se  Se142  1  0.58183356  0.58325944  0.54928989  1
  Se  Se143  1  0.58016988  0.92177691  0.05494856  1
  Se  Se144  1  0.58464710  0.92464853  0.56272512  1
  Se  Se145  1  0.92276544  0.25710904  0.05290308  1
  Se  Se146  1  0.91720814  0.24464344  0.55551532  1
  Se  Se147  1  0.91571847  0.58138565  0.04837766  1
  Se  Se148  1  0.92464939  0.58966297  0.55922700  1
  Se  Se149  1  0.91454191  0.91976969  0.05270595  1
  Se  Se150  1  0.91550954  0.91099471  0.55482010  1
  Se  Se151  1  0.07797205  0.25620041  0.43830965  1
  Se  Se152  1  0.07594564  0.25744880  0.93762604  1
  Se  Se153  1  0.08727273  0.58332482  0.45141238  1
  Se  Se154  1  0.08459409  0.58404582  0.94613922  1
  Se  Se155  1  0.08906854  0.91788586  0.44901845  1
  Se  Se156  1  0.08542545  0.91353421  0.94224249  1
  Se  Se157  1  0.40451949  0.24754009  0.43886242  1
  Se  Se158  1  0.41742419  0.24731063  0.94540867  1
  Se  Se159  1  0.41730229  0.58251237  0.44804677  1
  Se  Se160  1  0.40572183  0.59100916  0.93719534  1
  Se  Se161  1  0.40964463  0.92257939  0.44351204  1
  Se  Se162  1  0.41827539  0.91605093  0.95404439  1
  Se  Se163  1  0.75343705  0.24760188  0.45285862  1
  Se  Se164  1  0.74792661  0.25839149  0.93288919  1
  Se  Se165  1  0.74639948  0.59051033  0.43321384  1
  Se  Se166  1  0.73352920  0.59781393  0.94771073  1
  Se  Se167  1  0.75081106  0.91381878  0.44637170  1
  Se  Se168  1  0.75483085  0.92611904  0.95092645  1
  Se  Se169  1  0.25617281  0.07776293  0.43801155  1
  Se  Se170  1  0.25873644  0.07177676  0.93758163  1
  Se  Se171  1  0.24912673  0.41937814  0.44871182  1
  Se  Se172  1  0.24664705  0.41656998  0.94875485  1
  Se  Se173  1  0.25283839  0.75292204  0.44911084  1
  Se  Se174  1  0.24806423  0.75610057  0.94982735  1
  Se  Se175  1  0.58181563  0.07592859  0.44250048  1
  Se  Se176  1  0.58068644  0.08837154  0.95311776  1
  Se  Se177  1  0.58426302  0.41709862  0.45314135  1
  Se  Se178  1  0.58281451  0.41373802  0.93209286  1
  Se  Se179  1  0.58919888  0.74449940  0.43450333  1
  Se  Se180  1  0.58074857  0.75519894  0.95993300  1
  Se  Se181  1  0.91669834  0.07973355  0.44842617  1
  Se  Se182  1  0.93504933  0.08625278  0.93484390  1
  Se  Se183  1  0.92573949  0.40742818  0.43831116  1
  Se  Se184  1  0.91236327  0.42565279  0.94283448  1
  Se  Se185  1  0.91758628  0.75436553  0.44973140  1
  Se  Se186  1  0.91677713  0.75387295  0.94356326  1
  Se  Se187  1  0.24703755  0.26293004  0.29387994  1
  Se  Se188  1  0.24114321  0.24167613  0.80444710  1
  Se  Se189  1  0.25652980  0.59129039  0.30604810  1
  Se  Se190  1  0.24058223  0.57719577  0.81448758  1
  Se  Se191  1  0.24817137  0.91489907  0.30422442  1
  Se  Se192  1  0.25107578  0.90624078  0.80499123  1
  Se  Se193  1  0.57707345  0.24378166  0.31595790  1
  Se  Se194  1  0.58630932  0.25050030  0.79965847  1
  Se  Se195  1  0.57845352  0.57631666  0.31004921  1
  Se  Se196  1  0.57483388  0.57690918  0.80760504  1
  Se  Se197  1  0.58046068  0.91825295  0.29902865  1
  Se  Se198  1  0.58542487  0.91001611  0.81976601  1
  Se  Se199  1  0.90893432  0.24076395  0.31121651  1
  Se  Se200  1  0.92186841  0.25348951  0.79773254  1
  Se  Se201  1  0.91402671  0.57916770  0.30069593  1
  Se  Se202  1  0.91477555  0.58876068  0.80519208  1
  Se  Se203  1  0.92239484  0.92032741  0.30523358  1
  Se  Se204  1  0.92353355  0.92119645  0.80056439  1
  Se  Se205  1  0.09556737  0.09335363  0.30033548  1
  Se  Se206  1  0.09450609  0.07790983  0.79181123  1
  Se  Se207  1  0.09151107  0.42980691  0.30726329  1
  Se  Se208  1  0.08130457  0.41858536  0.80563588  1
  Se  Se209  1  0.08707269  0.75289971  0.31585715  1
  Se  Se210  1  0.07853558  0.74319867  0.80256749  1
  Se  Se211  1  0.41260487  0.08246888  0.30037505  1
  Se  Se212  1  0.42322763  0.08097949  0.80884357  1
  Se  Se213  1  0.41215014  0.41399759  0.30933840  1
  Se  Se214  1  0.40927122  0.40960906  0.79829131  1
  Se  Se215  1  0.41291069  0.75323394  0.29938316  1
  Se  Se216  1  0.42862095  0.75692360  0.81408745  1
  Se  Se217  1  0.74588509  0.07605442  0.30762561  1
  Se  Se218  1  0.75968422  0.09210518  0.81452468  1
  Se  Se219  1  0.75811140  0.42214005  0.29849460  1
  Se  Se220  1  0.75082401  0.41923716  0.79975039  1
  Se  Se221  1  0.76063619  0.76006861  0.30372442  1
  Se  Se222  1  0.75681588  0.76037661  0.81177915  1
  Se  Se223  1  0.23937655  0.09205607  0.20226996  1
  Se  Se224  1  0.24711869  0.07402204  0.70376869  1
  Se  Se225  1  0.25719873  0.40191622  0.19980160  1
  Se  Se226  1  0.24919134  0.41891640  0.69686457  1
  Se  Se227  1  0.24844428  0.74822884  0.19352790  1
  Se  Se228  1  0.24563071  0.74764308  0.69181944  1
  Se  Se229  1  0.58418531  0.08441227  0.19700729  1
  Se  Se230  1  0.57662118  0.08282786  0.68927940  1
  Se  Se231  1  0.57139367  0.42439576  0.19101974  1
  Se  Se232  1  0.58243812  0.41367014  0.69702862  1
  Se  Se233  1  0.57369712  0.75735038  0.18456717  1
  Se  Se234  1  0.57544272  0.76169669  0.69750758  1
  Se  Se235  1  0.92412060  0.07526449  0.20130734  1
  Se  Se236  1  0.91436762  0.08179305  0.69603462  1
  Se  Se237  1  0.91832471  0.41448564  0.18485985  1
  Se  Se238  1  0.92082134  0.41523955  0.69689548  1
  Se  Se239  1  0.90703536  0.76152528  0.18977256  1
  Se  Se240  1  0.91815673  0.74772984  0.69713230  1
  Se  Se241  1  0.08548707  0.24304581  0.18328254  1
  Se  Se242  1  0.08850038  0.24532125  0.70031517  1
  Se  Se243  1  0.09510956  0.57306968  0.19206737  1
  Se  Se244  1  0.07913663  0.58646115  0.69818578  1
  Se  Se245  1  0.08186610  0.90932764  0.19610069  1
  Se  Se246  1  0.08212438  0.91218477  0.69706803  1
  Se  Se247  1  0.41944941  0.25185841  0.19687180  1
  Se  Se248  1  0.41278581  0.24517507  0.69824504  1
  Se  Se249  1  0.41111145  0.58842825  0.20279885  1
  Se  Se250  1  0.41899412  0.57905539  0.69000032  1
  Se  Se251  1  0.40922058  0.92109291  0.19346433  1
  Se  Se252  1  0.41951703  0.90939686  0.70572245  1
  Se  Se253  1  0.75881177  0.23493763  0.19075473  1
  Se  Se254  1  0.74755402  0.25226615  0.69882517  1
  Se  Se255  1  0.75349248  0.58308004  0.18468289  1
  Se  Se256  1  0.75803775  0.57749262  0.68581335  1
  Se  Se257  1  0.73627484  0.91881409  0.19739532  1
  Se  Se258  1  0.75537116  0.91278696  0.68986199  1
