# generated using pymatgen
data_In86Cu29Se144
_symmetry_space_group_name_H-M   'P 1'
_cell_length_a   17.58956274
_cell_length_b   17.58889987
_cell_length_c   23.45034811
_cell_angle_alpha   89.99413221
_cell_angle_beta   89.95637864
_cell_angle_gamma   89.98276900
_symmetry_Int_Tables_number   1
_chemical_formula_structural   In86Cu29Se144
_chemical_formula_sum   'In86 Cu29 Se144'
_cell_volume   7255.09103484
_cell_formula_units_Z   1
loop_
 _symmetry_equiv_pos_site_id
 _symmetry_equiv_pos_as_xyz
  1  'x, y, z'
loop_
 _atom_site_type_symbol
 _atom_site_label
 _atom_site_symmetry_multiplicity
 _atom_site_fract_x
 _atom_site_fract_y
 _atom_site_fract_z
 _atom_site_occupancy
  In  In0  1  -0.03152782  0.13015813  0.09364761  1
  In  In1  1  -0.00658284  0.17288331  0.62061141  1
  In  In2  1  -0.00395936  0.49371110  0.12181076  1
  In  In3  1  0.02118201  0.51295135  0.61429428  1
  In  In4  1  -0.00461312  0.84932448  0.13172927  1
  In  In5  1  -0.01566371  0.82399155  0.61715603  1
  In  In6  1  0.33159140  0.16549630  0.10982028  1
  In  In7  1  0.33506226  0.17151373  0.63837701  1
  In  In8  1  0.33289165  0.51197969  0.12497820  1
  In  In9  1  0.32983355  0.50480479  0.62857382  1
  In  In10  1  0.32168907  0.82173331  0.12776162  1
  In  In11  1  0.33138079  0.83425650  0.62441496  1
  In  In12  1  0.66065934  0.15072106  0.11191758  1
  In  In13  1  0.67403546  0.14958780  0.63021680  1
  In  In14  1  0.67410987  0.50040839  0.12899398  1
  In  In15  1  0.68135325  0.52518356  0.60548555  1
  In  In16  1  0.67437164  0.82569278  0.13173948  1
  In  In17  1  0.68030048  0.83953183  0.61100409  1
  In  In18  1  0.15274498  0.00043704  0.37491390  1
  In  In19  1  0.16838894  -0.00547361  0.87550792  1
  In  In20  1  0.16912383  0.33996982  0.37862715  1
  In  In21  1  0.17067137  0.33052420  0.87577167  1
  In  In22  1  0.16792770  0.66829561  0.38030277  1
  In  In23  1  0.15911647  0.65528206  0.85959567  1
  In  In24  1  0.50058980  -0.01778878  0.37447416  1
  In  In25  1  0.51145011  0.00923659  0.87138232  1
  In  In26  1  0.51352681  0.33739633  0.37951369  1
  In  In27  1  0.49136710  0.32619505  0.86985085  1
  In  In28  1  0.49537048  0.67184261  0.37808773  1
  In  In29  1  0.49231767  0.67574804  0.87114356  1
  In  In30  1  0.82954325  0.00050821  0.37211189  1
  In  In31  1  0.83059033  -0.00051529  0.88259301  1
  In  In32  1  0.82986007  0.34075617  0.38649959  1
  In  In33  1  0.83951108  0.33279756  0.87932483  1
  In  In34  1  0.80930288  0.68522185  0.39742920  1
  In  In35  1  0.83984947  0.66175536  0.88059788  1
  In  In36  1  -0.00777586  0.14957308  0.36757231  1
  In  In37  1  -0.00321449  0.16381436  0.88782034  1
  In  In38  1  -0.01087010  0.50552616  0.38796925  1
  In  In39  1  0.00153107  0.50512453  0.87597466  1
  In  In40  1  -0.01924976  0.86100162  0.39818522  1
  In  In41  1  0.00170230  0.82542923  0.87628503  1
  In  In42  1  0.33041613  0.17347088  0.37223126  1
  In  In43  1  0.33429123  0.16441904  0.87508190  1
  In  In44  1  0.31493495  0.51146152  0.38803864  1
  In  In45  1  0.31848052  0.48322879  0.85292056  1
  In  In46  1  0.34608811  0.82266358  0.38773247  1
  In  In47  1  0.32646363  0.82844448  0.86107735  1
  In  In48  1  0.68271254  0.16533615  0.37012691  1
  In  In49  1  0.68563810  0.14398402  0.89226586  1
  In  In50  1  0.64420951  0.52939264  0.40475352  1
  In  In51  1  0.68007504  0.50835539  0.87573918  1
  In  In52  1  0.66136753  0.83330607  0.37404180  1
  In  In53  1  0.67070915  0.84875321  0.87187804  1
  In  In54  1  0.15590399  -0.00294008  0.12043670  1
  In  In55  1  0.17684770  0.00592183  0.62654767  1
  In  In56  1  0.16020707  0.32791858  0.11632010  1
  In  In57  1  0.16939524  0.36326673  0.62994088  1
  In  In58  1  0.17790551  0.66608434  0.12638136  1
  In  In59  1  0.16198891  0.66444686  0.63016048  1
  In  In60  1  0.50295977  0.00738369  0.11908237  1
  In  In61  1  0.51137281  -0.00869782  0.63146931  1
  In  In62  1  0.51181242  0.32803321  0.12253502  1
  In  In63  1  0.48847951  0.34222935  0.62855362  1
  In  In64  1  0.49714152  0.66945014  0.13353124  1
  In  In65  1  0.49947301  0.66126080  0.61080424  1
  In  In66  1  0.83170004  -0.00903065  0.12489434  1
  In  In67  1  0.82222084  -0.01979736  0.61043474  1
  In  In68  1  0.83328620  0.33605936  0.12182318  1
  In  In69  1  0.85036576  0.33472793  0.61130606  1
  In  In70  1  0.82780443  0.65601684  0.12560222  1
  In  In71  1  0.84767062  0.68136721  0.61776952  1
  In  In72  1  0.66336452  0.67455111  0.74536220  1
  In  In73  1  0.16168240  0.16705606  0.50320616  1
  In  In74  1  0.00275397  0.67254491  0.26092751  1
  In  In75  1  0.00418630  0.33545592  0.75133082  1
  In  In76  1  0.50507763  0.83417281  0.00058978  1
  In  In77  1  0.33769489  -0.00967454  0.24619169  1
  In  In78  1  0.67182157  0.33660718  0.24848138  1
  In  In79  1  0.33432573  0.33897828  0.25209964  1
  In  In80  1  0.65688309  0.33040566  0.74325444  1
  In  In81  1  0.50239919  0.17018721  0.50429174  1
  In  In82  1  -0.00295727  -0.00363178  0.75126691  1
  In  In83  1  0.15573280  0.83432203  -0.00374648  1
  In  In84  1  0.49846253  0.49626785  -0.00314217  1
  In  In85  1  -0.00031414  0.32940201  0.24675557  1
  Cu  Cu86  1  0.83307515  0.83227691  0.25956330  1
  Cu  Cu87  1  0.83681709  0.15692320  0.24343861  1
  Cu  Cu88  1  0.67461175  0.66695985  0.00288004  1
  Cu  Cu89  1  0.82765701  0.15798471  0.75102317  1
  Cu  Cu90  1  0.32983162  0.34366877  0.50701528  1
  Cu  Cu91  1  0.00009997  0.66394288  -0.00062836  1
  Cu  Cu92  1  0.50628913  0.82650118  0.25407679  1
  Cu  Cu93  1  0.49333768  0.51024685  0.25999653  1
  Cu  Cu94  1  0.15588025  0.15937151  0.24203927  1
  Cu  Cu95  1  0.66664981  0.33490537  0.50458497  1
  Cu  Cu96  1  0.32778423  0.66717271  0.50594172  1
  Cu  Cu97  1  0.84059282  0.50283220  0.75118221  1
  Cu  Cu98  1  0.33141322  0.33509054  -0.00949186  1
  Cu  Cu99  1  0.16914581  0.82926654  0.25676166  1
  Cu  Cu100  1  0.00707990  0.66495302  0.50225725  1
  Cu  Cu101  1  0.16836979  0.50661474  0.25533816  1
  Cu  Cu102  1  0.50082909  0.50477545  0.73995880  1
  Cu  Cu103  1  0.82142199  0.51031219  0.25993092  1
  Cu  Cu104  1  0.32524655  0.65840684  -0.00538655  1
  Cu  Cu105  1  0.17166939  0.17152237  0.75266008  1
  Cu  Cu106  1  0.16443702  0.83280491  0.74691262  1
  Cu  Cu107  1  0.49442978  0.83571541  0.74425206  1
  Cu  Cu108  1  0.50429003  0.16119976  0.75502955  1
  Cu  Cu109  1  0.00801691  0.34396295  -0.00355237  1
  Cu  Cu110  1  0.66719175  0.00076972  0.49669665  1
  Cu  Cu111  1  0.66841902  0.33098301  0.00059145  1
  Cu  Cu112  1  0.33499700  -0.00159408  0.50392754  1
  Cu  Cu113  1  0.50303716  0.15923812  0.24173095  1
  Cu  Cu114  1  0.33714418  -0.00155979  -0.00842899  1
  Se  Se115  1  0.09859750  0.09320388  0.05133966  1
  Se  Se116  1  0.07406034  0.07240916  0.55911417  1
  Se  Se117  1  0.08942563  0.42611735  0.05271591  1
  Se  Se118  1  0.06483462  0.39306282  0.55828827  1
  Se  Se119  1  0.07532970  0.74373190  0.06526279  1
  Se  Se120  1  0.08570743  0.74971997  0.55807910  1
  Se  Se121  1  0.41888831  0.08065628  0.04724228  1
  Se  Se122  1  0.41196901  0.08240070  0.56410571  1
  Se  Se123  1  0.40830017  0.40701993  0.06059700  1
  Se  Se124  1  0.41715341  0.42619490  0.55595103  1
  Se  Se125  1  0.40716878  0.73898234  0.05429653  1
  Se  Se126  1  0.41360838  0.75429478  0.55260842  1
  Se  Se127  1  0.77408622  0.09658636  0.05752336  1
  Se  Se128  1  0.75028497  0.08387582  0.55011898  1
  Se  Se129  1  0.74639096  0.41796495  0.05545197  1
  Se  Se130  1  0.75459894  0.41704743  0.55338318  1
  Se  Se131  1  0.75544996  0.74926593  0.05790575  1
  Se  Se132  1  0.74067696  0.73173341  0.55218247  1
  Se  Se133  1  0.24870816  0.25279066  0.04732106  1
  Se  Se134  1  0.25415831  0.25574723  0.56424506  1
  Se  Se135  1  0.24417086  0.57852244  0.05161015  1
  Se  Se136  1  0.24482372  0.58259526  0.55824024  1
  Se  Se137  1  0.25919894  0.91828655  0.05458776  1
  Se  Se138  1  0.24789464  0.91825293  0.55488333  1
  Se  Se139  1  0.58213995  0.24637036  0.04905549  1
  Se  Se140  1  0.59109799  0.25496754  0.56910420  1
  Se  Se141  1  0.58487972  0.58900372  0.05890657  1
  Se  Se142  1  0.58969721  0.59463807  0.53826569  1
  Se  Se143  1  0.59709148  0.91981372  0.05944359  1
  Se  Se144  1  0.58249884  0.91983523  0.55089282  1
  Se  Se145  1  0.92816031  0.26442434  0.05662995  1
  Se  Se146  1  0.90697780  0.23242320  0.54486224  1
  Se  Se147  1  0.91673150  0.58186771  0.05599326  1
  Se  Se148  1  0.91912613  0.58223513  0.55377381  1
  Se  Se149  1  0.92077150  0.91648873  0.05446091  1
  Se  Se150  1  0.91872222  0.91418972  0.54508442  1
  Se  Se151  1  0.07754053  0.24601635  0.43211684  1
  Se  Se152  1  0.08536562  0.25339422  0.94543074  1
  Se  Se153  1  0.08793399  0.58092485  0.44773020  1
  Se  Se154  1  0.08733315  0.58860095  0.94332905  1
  Se  Se155  1  0.09738451  0.91447508  0.45205637  1
  Se  Se156  1  0.06568559  0.93122229  0.94402950  1
  Se  Se157  1  0.40717745  0.26151777  0.44481013  1
  Se  Se158  1  0.41797043  0.24816872  0.94524343  1
  Se  Se159  1  0.41156416  0.58734379  0.44809783  1
  Se  Se160  1  0.40917627  0.58258648  0.93485701  1
  Se  Se161  1  0.42172197  0.91679264  0.45296795  1
  Se  Se162  1  0.41183940  0.91197946  0.93379670  1
  Se  Se163  1  0.74319622  0.25085451  0.44687681  1
  Se  Se164  1  0.75575591  0.25170202  0.94751484  1
  Se  Se165  1  0.77846507  0.55489838  0.44232393  1
  Se  Se166  1  0.75693861  0.57960931  0.95188427  1
  Se  Se167  1  0.74747214  0.91654817  0.44147358  1
  Se  Se168  1  0.74472159  0.91717128  0.94943725  1
  Se  Se169  1  0.25928280  0.08058488  0.44163036  1
  Se  Se170  1  0.24870581  0.08063022  0.94266221  1
  Se  Se171  1  0.23922127  0.41985295  0.45463514  1
  Se  Se172  1  0.25150472  0.42340751  0.94042551  1
  Se  Se173  1  0.24725079  0.75212306  0.45074453  1
  Se  Se174  1  0.24886374  0.74578636  0.93794962  1
  Se  Se175  1  0.58574574  0.08241290  0.43718334  1
  Se  Se176  1  0.58003745  0.08029201  0.95194153  1
  Se  Se177  1  0.57647157  0.41717212  0.45781861  1
  Se  Se178  1  0.59201112  0.40969124  0.93546498  1
  Se  Se179  1  0.58069077  0.75319059  0.44430348  1
  Se  Se180  1  0.59286891  0.74029228  0.93996848  1
  Se  Se181  1  0.90742478  0.08641621  0.44198395  1
  Se  Se182  1  0.90537711  0.08954077  0.95134413  1
  Se  Se183  1  0.93519449  0.39729900  0.44891521  1
  Se  Se184  1  0.91856738  0.42212408  0.94421835  1
  Se  Se185  1  0.91931816  0.74882908  0.45342094  1
  Se  Se186  1  0.91819515  0.75017079  0.94875741  1
  Se  Se187  1  0.23360781  0.24310241  0.30143486  1
  Se  Se188  1  0.25576242  0.25285705  0.80591726  1
  Se  Se189  1  0.25084314  0.58963651  0.30721922  1
  Se  Se190  1  0.27193930  0.60298498  0.80163449  1
  Se  Se191  1  0.25172974  0.91113738  0.31524612  1
  Se  Se192  1  0.24470858  0.92027790  0.79916055  1
  Se  Se193  1  0.57676270  0.24209240  0.30485689  1
  Se  Se194  1  0.59033164  0.23715790  0.81480230  1
  Se  Se195  1  0.58364277  0.58496396  0.31308390  1
  Se  Se196  1  0.57829817  0.57667824  0.80803694  1
  Se  Se197  1  0.58640776  0.91893966  0.29934368  1
  Se  Se198  1  0.57784081  0.91373640  0.80161701  1
  Se  Se199  1  0.90246028  0.24712551  0.30635822  1
  Se  Se200  1  0.91256113  0.23862269  0.80687315  1
  Se  Se201  1  0.90594397  0.58810157  0.31757600  1
  Se  Se202  1  0.92006934  0.58667849  0.80559540  1
  Se  Se203  1  0.92006811  0.91733811  0.30675706  1
  Se  Se204  1  0.90793402  0.90803827  0.81081856  1
  Se  Se205  1  0.07847456  0.07437018  0.29695415  1
  Se  Se206  1  0.08540359  0.09346260  0.80956617  1
  Se  Se207  1  0.08323763  0.42536725  0.30945685  1
  Se  Se208  1  0.09522639  0.42655431  0.80656352  1
  Se  Se209  1  0.08160640  0.76787221  0.32243189  1
  Se  Se210  1  0.07910280  0.75144578  0.80031835  1
  Se  Se211  1  0.42174546  0.08837957  0.30786187  1
  Se  Se212  1  0.41538665  0.07986744  0.80542917  1
  Se  Se213  1  0.41899096  0.42447388  0.31876401  1
  Se  Se214  1  0.42741416  0.41619767  0.79693147  1
  Se  Se215  1  0.41357724  0.75155207  0.30492518  1
  Se  Se216  1  0.41436785  0.74732305  0.79505528  1
  Se  Se217  1  0.74855997  0.07845448  0.29663268  1
  Se  Se218  1  0.74877433  0.07555812  0.80683960  1
  Se  Se219  1  0.74441663  0.42548455  0.31818808  1
  Se  Se220  1  0.75655321  0.41754582  0.80346678  1
  Se  Se221  1  0.74826046  0.74669410  0.30820898  1
  Se  Se222  1  0.75447721  0.75157945  0.81176448  1
  Se  Se223  1  0.25126337  0.08708870  0.18844006  1
  Se  Se224  1  0.25242440  0.08300954  0.70217210  1
  Se  Se225  1  0.24020906  0.42258289  0.19121430  1
  Se  Se226  1  0.26860994  0.40835448  0.70035276  1
  Se  Se227  1  0.25005651  0.74366227  0.20421175  1
  Se  Se228  1  0.24977232  0.75093630  0.69410972  1
  Se  Se229  1  0.58898335  0.07723191  0.19260284  1
  Se  Se230  1  0.58778742  0.07832977  0.70149691  1
  Se  Se231  1  0.56941993  0.42813511  0.19665138  1
  Se  Se232  1  0.58997246  0.43513328  0.68022558  1
  Se  Se233  1  0.58860401  0.74334102  0.19906603  1
  Se  Se234  1  0.57588082  0.75958768  0.68167746  1
  Se  Se235  1  0.92241517  0.07648098  0.19063070  1
  Se  Se236  1  0.90992917  0.08469126  0.68835327  1
  Se  Se237  1  0.90199934  0.42924401  0.19944512  1
  Se  Se238  1  0.91595229  0.42241231  0.68885809  1
  Se  Se239  1  0.91088793  0.75306694  0.19494814  1
  Se  Se240  1  0.91272869  0.75574067  0.69777298  1
  Se  Se241  1  0.07808901  0.23833582  0.18173403  1
  Se  Se242  1  0.09261853  0.24524490  0.68838415  1
  Se  Se243  1  0.08346261  0.57989898  0.19335226  1
  Se  Se244  1  0.08947510  0.57226984  0.69864070  1
  Se  Se245  1  0.09297246  0.91410965  0.19916600  1
  Se  Se246  1  0.08515591  0.91237707  0.68610387  1
  Se  Se247  1  0.41937087  0.24357446  0.18928520  1
  Se  Se248  1  0.42706515  0.25043413  0.70210791  1
  Se  Se249  1  0.41122763  0.58636942  0.19987220  1
  Se  Se250  1  0.42097423  0.59208812  0.68937385  1
  Se  Se251  1  0.42901122  0.90094387  0.18480150  1
  Se  Se252  1  0.41053963  0.92214126  0.69409709  1
  Se  Se253  1  0.75341696  0.24112719  0.18732574  1
  Se  Se254  1  0.76129240  0.24886663  0.68905500  1
  Se  Se255  1  0.74111974  0.58917201  0.20145258  1
  Se  Se256  1  0.75931942  0.58310027  0.69166445  1
  Se  Se257  1  0.75307871  0.91325458  0.19963020  1
  Se  Se258  1  0.74544919  0.91733791  0.69044407  1
