# generated using pymatgen
data_In86Cu29Se144
_symmetry_space_group_name_H-M   'P 1'
_cell_length_a   17.58854629
_cell_length_b   17.58924759
_cell_length_c   23.44619859
_cell_angle_alpha   90.01519177
_cell_angle_beta   89.96477299
_cell_angle_gamma   90.03598081
_symmetry_Int_Tables_number   1
_chemical_formula_structural   In86Cu29Se144
_chemical_formula_sum   'In86 Cu29 Se144'
_cell_volume   7253.53088390
_cell_formula_units_Z   1
loop_
 _symmetry_equiv_pos_site_id
 _symmetry_equiv_pos_as_xyz
  1  'x, y, z'
loop_
 _atom_site_type_symbol
 _atom_site_label
 _atom_site_symmetry_multiplicity
 _atom_site_fract_x
 _atom_site_fract_y
 _atom_site_fract_z
 _atom_site_occupancy
  In  In0  1  0.00206423  0.17911855  0.13207120  1
  In  In1  1  -0.00886108  0.16355573  0.61469217  1
  In  In2  1  -0.01323647  0.50343824  0.12713100  1
  In  In3  1  0.00872251  0.50410178  0.61240240  1
  In  In4  1  -0.01042320  0.84031027  0.12436182  1
  In  In5  1  0.00001619  0.83507970  0.62765430  1
  In  In6  1  0.33168968  0.17061125  0.12252087  1
  In  In7  1  0.33234796  0.16273971  0.62677624  1
  In  In8  1  0.34598747  0.49618531  0.12353641  1
  In  In9  1  0.31812839  0.51250151  0.63348518  1
  In  In10  1  0.31934510  0.82770452  0.12311193  1
  In  In11  1  0.32946545  0.83366348  0.62977900  1
  In  In12  1  0.68036414  0.15491035  0.13473419  1
  In  In13  1  0.66516841  0.15833863  0.62133555  1
  In  In14  1  0.65954488  0.49354526  0.12082400  1
  In  In15  1  0.67334644  0.49544345  0.62912039  1
  In  In16  1  0.67972050  0.82878427  0.12189587  1
  In  In17  1  0.67240570  0.82917916  0.63326697  1
  In  In18  1  0.16188900  0.00456161  0.38860938  1
  In  In19  1  0.16406067  0.00429536  0.85852550  1
  In  In20  1  0.14366906  0.35028615  0.40415048  1
  In  In21  1  0.17904498  0.32672240  0.86600070  1
  In  In22  1  0.18511958  0.65089351  0.39784174  1
  In  In23  1  0.16777385  0.67100921  0.86189288  1
  In  In24  1  0.51565468  0.00150631  0.37546142  1
  In  In25  1  0.49698282  -0.00673992  0.86635257  1
  In  In26  1  0.49857351  0.31953640  0.37633310  1
  In  In27  1  0.50360237  0.35595887  0.86850435  1
  In  In28  1  0.49116767  0.67590005  0.37716452  1
  In  In29  1  0.50383717  0.65974525  0.86781011  1
  In  In30  1  0.82939678  0.00512414  0.37993399  1
  In  In31  1  0.83394526  0.00332319  0.86991657  1
  In  In32  1  0.83064060  0.33685065  0.37228066  1
  In  In33  1  0.82496244  0.34021003  0.88546341  1
  In  In34  1  0.83984663  0.66061010  0.38806688  1
  In  In35  1  0.83124718  0.66725827  0.87014524  1
  In  In36  1  -0.02791059  0.20107615  0.41259226  1
  In  In37  1  -0.00318226  0.15902715  0.86722222  1
  In  In38  1  0.00558905  0.48810290  0.38633097  1
  In  In39  1  -0.01701278  0.50106235  0.87304469  1
  In  In40  1  -0.00024713  0.83457947  0.38623430  1
  In  In41  1  -0.00766039  0.82922689  0.86312236  1
  In  In42  1  0.33416058  0.16978022  0.38817979  1
  In  In43  1  0.32519892  0.16634849  0.85847641  1
  In  In44  1  0.31742308  0.50369013  0.37766664  1
  In  In45  1  0.35573911  0.51733584  0.85066304  1
  In  In46  1  0.32766459  0.82216015  0.37923003  1
  In  In47  1  0.33650183  0.83289910  0.86653129  1
  In  In48  1  0.66923550  0.16630352  0.37521312  1
  In  In49  1  0.68334288  0.17070476  0.87409929  1
  In  In50  1  0.68348577  0.50006952  0.37581153  1
  In  In51  1  0.65845844  0.51238851  0.89103852  1
  In  In52  1  0.66620277  0.84492675  0.37515973  1
  In  In53  1  0.67546934  0.83801722  0.86894428  1
  In  In54  1  0.16077066  -0.00351374  0.12600347  1
  In  In55  1  0.17157559  0.00085071  0.62868080  1
  In  In56  1  0.16712531  0.32307267  0.13408865  1
  In  In57  1  0.16511314  0.34067593  0.61250765  1
  In  In58  1  0.16780902  0.66915581  0.13156149  1
  In  In59  1  0.16527009  0.66356643  0.62135487  1
  In  In60  1  0.50211783  0.01524716  0.12131523  1
  In  In61  1  0.49362521  0.00786128  0.63462046  1
  In  In62  1  0.49860753  0.34981380  0.12324386  1
  In  In63  1  0.50871962  0.32158021  0.62468052  1
  In  In64  1  0.50403130  0.65121611  0.12130600  1
  In  In65  1  0.49075938  0.66870010  0.63768059  1
  In  In66  1  0.82636729  -0.01176592  0.11683748  1
  In  In67  1  0.83434300  0.00063743  0.62630328  1
  In  In68  1  0.83393467  0.32880253  0.12923498  1
  In  In69  1  0.85006389  0.33637482  0.60622602  1
  In  In70  1  0.81857549  0.66002765  0.10553160  1
  In  In71  1  0.83242436  0.67039046  0.62796579  1
  In  In72  1  0.49545584  0.83698269  0.51255088  1
  In  In73  1  0.50128641  0.17243742  -0.00347937  1
  In  In74  1  0.00277742  0.66566164  0.25186805  1
  In  In75  1  0.15939550  0.16707858  -0.01152965  1
  In  In76  1  0.33429361  0.33621557  0.25397428  1
  In  In77  1  0.66671480  0.66561015  0.24513566  1
  In  In78  1  0.16080424  0.83754334  0.00035110  1
  In  In79  1  0.00384290  0.33516808  0.74159419  1
  In  In80  1  0.16361786  0.49597849  -0.00281890  1
  In  In81  1  0.66787247  0.33307946  0.74503757  1
  In  In82  1  -0.00095267  0.00520887  0.25425596  1
  In  In83  1  0.50270531  0.83006065  -0.01302799  1
  In  In84  1  0.33502334  0.00201441  0.24503274  1
  In  In85  1  0.49903360  0.49772724  0.50255598  1
  Cu  Cu86  1  0.49607918  0.83508176  0.25463495  1
  Cu  Cu87  1  0.17275911  0.82377975  0.25857426  1
  Cu  Cu88  1  0.67320076  0.00486566  0.50040347  1
  Cu  Cu89  1  -0.00602253  0.67350161  0.50706214  1
  Cu  Cu90  1  0.16468458  0.83121117  0.74216960  1
  Cu  Cu91  1  0.33807718  0.66055451  -0.00775535  1
  Cu  Cu92  1  0.67300677  0.32838149  0.50042415  1
  Cu  Cu93  1  0.33989690  -0.00269898  0.51002988  1
  Cu  Cu94  1  0.83778282  0.48851648  0.25069445  1
  Cu  Cu95  1  0.83465479  0.16772916  0.25864499  1
  Cu  Cu96  1  0.50106098  0.16346160  0.74732957  1
  Cu  Cu97  1  0.83649264  0.83825868  0.74872476  1
  Cu  Cu98  1  -0.00899614  0.00142579  -0.00602349  1
  Cu  Cu99  1  0.66911828  -0.00160675  -0.00375697  1
  Cu  Cu100  1  0.50983177  0.16558644  0.25185216  1
  Cu  Cu101  1  0.67061636  0.32906190  0.00485222  1
  Cu  Cu102  1  0.50229846  0.50367387  0.24791064  1
  Cu  Cu103  1  0.33699414  0.34002888  -0.00829617  1
  Cu  Cu104  1  0.33762060  0.32931680  0.50475828  1
  Cu  Cu105  1  0.82950542  0.82932106  0.24672270  1
  Cu  Cu106  1  0.66884045  0.67076336  0.50733120  1
  Cu  Cu107  1  -0.00806983  0.66960267  -0.00777729  1
  Cu  Cu108  1  0.16295250  0.50026500  0.74040499  1
  Cu  Cu109  1  -0.00874681  0.33208915  0.00472213  1
  Cu  Cu110  1  0.00331941  -0.00727590  0.50939183  1
  Cu  Cu111  1  0.83592464  0.16888856  0.74510023  1
  Cu  Cu112  1  0.83076544  0.50914110  0.74929318  1
  Cu  Cu113  1  0.50602548  0.82952961  0.75137575  1
  Cu  Cu114  1  0.16043458  0.17227732  0.26284886  1
  Se  Se115  1  0.07306151  0.07771928  0.05683197  1
  Se  Se116  1  0.08740115  0.07967574  0.55697801  1
  Se  Se117  1  0.07966786  0.40617597  0.06273210  1
  Se  Se118  1  0.06555388  0.40205951  0.54551677  1
  Se  Se119  1  0.07230313  0.74104224  0.05899886  1
  Se  Se120  1  0.08256475  0.75350840  0.55733523  1
  Se  Se121  1  0.40322834  0.08043368  0.05087114  1
  Se  Se122  1  0.42385906  0.08544719  0.55674959  1
  Se  Se123  1  0.42008752  0.42130532  0.04633285  1
  Se  Se124  1  0.41254852  0.41198799  0.56672230  1
  Se  Se125  1  0.41130963  0.74538686  0.05506675  1
  Se  Se126  1  0.40569855  0.73692554  0.55911761  1
  Se  Se127  1  0.74883722  0.08223380  0.05290719  1
  Se  Se128  1  0.75849548  0.08728937  0.55345208  1
  Se  Se129  1  0.75292704  0.41252715  0.05946385  1
  Se  Se130  1  0.74818847  0.41835352  0.55345163  1
  Se  Se131  1  0.75108782  0.75859100  0.04339802  1
  Se  Se132  1  0.75200355  0.75639303  0.55729658  1
  Se  Se133  1  0.25378386  0.26072221  0.05064180  1
  Se  Se134  1  0.25249194  0.24629757  0.55573641  1
  Se  Se135  1  0.25380260  0.58950989  0.05676408  1
  Se  Se136  1  0.23963193  0.57269380  0.55287865  1
  Se  Se137  1  0.25643698  0.93097511  0.05445599  1
  Se  Se138  1  0.25194523  0.91453738  0.55753114  1
  Se  Se139  1  0.58838450  0.25140288  0.06618070  1
  Se  Se140  1  0.58796230  0.24540859  0.55143287  1
  Se  Se141  1  0.59856335  0.59193374  0.05260059  1
  Se  Se142  1  0.58507859  0.59107850  0.56401143  1
  Se  Se143  1  0.58461173  0.92212353  0.05579302  1
  Se  Se144  1  0.59238196  0.92725554  0.56391648  1
  Se  Se145  1  0.91500313  0.24385069  0.05794409  1
  Se  Se146  1  0.92389183  0.24783038  0.53760777  1
  Se  Se147  1  0.91853028  0.58090538  0.04907702  1
  Se  Se148  1  0.91041843  0.58609285  0.55611516  1
  Se  Se149  1  0.91416832  0.91182967  0.04723690  1
  Se  Se150  1  0.91260552  0.91284204  0.55772495  1
  Se  Se151  1  0.11092285  0.21942090  0.44492819  1
  Se  Se152  1  0.07135160  0.26541723  0.93547822  1
  Se  Se153  1  0.07387177  0.58753847  0.45190371  1
  Se  Se154  1  0.07997484  0.59261599  0.93695559  1
  Se  Se155  1  0.08729684  0.91187505  0.45385156  1
  Se  Se156  1  0.07650713  0.92512561  0.93524050  1
  Se  Se157  1  0.42497907  0.24728654  0.45450338  1
  Se  Se158  1  0.41025678  0.25365516  0.93181639  1
  Se  Se159  1  0.40901586  0.59058373  0.44560981  1
  Se  Se160  1  0.42038477  0.57844795  0.93923209  1
  Se  Se161  1  0.41545558  0.92276423  0.44005621  1
  Se  Se162  1  0.40488943  0.92545710  0.94155846  1
  Se  Se163  1  0.75410925  0.24759984  0.44304068  1
  Se  Se164  1  0.75402121  0.24539839  0.95294477  1
  Se  Se165  1  0.74732591  0.58371370  0.45317763  1
  Se  Se166  1  0.77327183  0.56962021  0.94167291  1
  Se  Se167  1  0.75099576  0.91528720  0.44780535  1
  Se  Se168  1  0.75359762  0.91943824  0.94108662  1
  Se  Se169  1  0.25768250  0.07805210  0.45274284  1
  Se  Se170  1  0.25309479  0.07692353  0.93533882  1
  Se  Se171  1  0.25631980  0.41796405  0.45480388  1
  Se  Se172  1  0.25762162  0.42024834  0.93181085  1
  Se  Se173  1  0.24309867  0.76182155  0.45529924  1
  Se  Se174  1  0.25356976  0.74517432  0.94069904  1
  Se  Se175  1  0.58619941  0.08592864  0.44791567  1
  Se  Se176  1  0.58818172  0.07819693  0.93671591  1
  Se  Se177  1  0.59125206  0.41044163  0.44059063  1
  Se  Se178  1  0.58518018  0.41020063  0.95106714  1
  Se  Se179  1  0.58774982  0.74900156  0.44613150  1
  Se  Se180  1  0.59717937  0.73997841  0.93560036  1
  Se  Se181  1  0.92153791  0.07150337  0.45022085  1
  Se  Se182  1  0.91287593  0.08984194  0.94167842  1
  Se  Se183  1  0.89259012  0.43377891  0.44223351  1
  Se  Se184  1  0.91514840  0.42049954  0.95050502  1
  Se  Se185  1  0.91049438  0.75651214  0.45266975  1
  Se  Se186  1  0.91388553  0.75533032  0.93867516  1
  Se  Se187  1  0.24880111  0.24935264  0.31729400  1
  Se  Se188  1  0.23521462  0.23884940  0.79083331  1
  Se  Se189  1  0.24517555  0.59008620  0.30859705  1
  Se  Se190  1  0.24655644  0.58379324  0.79540719  1
  Se  Se191  1  0.24555852  0.91912264  0.31106504  1
  Se  Se192  1  0.24824890  0.91093596  0.80010523  1
  Se  Se193  1  0.58817376  0.25232612  0.30485768  1
  Se  Se194  1  0.57849058  0.24439467  0.81053856  1
  Se  Se195  1  0.57866756  0.58175221  0.31317428  1
  Se  Se196  1  0.58420772  0.56660826  0.80641386  1
  Se  Se197  1  0.58519592  0.91768411  0.30029563  1
  Se  Se198  1  0.58809456  0.91747740  0.80129767  1
  Se  Se199  1  0.92074402  0.24568382  0.31369002  1
  Se  Se200  1  0.90619939  0.25690898  0.80705442  1
  Se  Se201  1  0.91057859  0.57652597  0.31035363  1
  Se  Se202  1  0.92036034  0.58937210  0.79917066  1
  Se  Se203  1  0.91074474  0.90652123  0.30828129  1
  Se  Se204  1  0.91972957  0.92581910  0.79931347  1
  Se  Se205  1  0.08046818  0.09116806  0.32002728  1
  Se  Se206  1  0.08827355  0.09800655  0.79671331  1
  Se  Se207  1  0.09059104  0.41579746  0.31495775  1
  Se  Se208  1  0.08756310  0.42562888  0.80947068  1
  Se  Se209  1  0.08773472  0.75045045  0.31810628  1
  Se  Se210  1  0.07963377  0.74940051  0.79644323  1
  Se  Se211  1  0.42121170  0.09028784  0.30958349  1
  Se  Se212  1  0.41663304  0.07962051  0.79982273  1
  Se  Se213  1  0.42502219  0.42712800  0.31453728  1
  Se  Se214  1  0.39657217  0.39394682  0.80028366  1
  Se  Se215  1  0.41143849  0.75147634  0.30371418  1
  Se  Se216  1  0.41976120  0.74646905  0.80302965  1
  Se  Se217  1  0.74963787  0.07967139  0.30536370  1
  Se  Se218  1  0.75127967  0.08726751  0.79924414  1
  Se  Se219  1  0.74409749  0.41306667  0.29960850  1
  Se  Se220  1  0.75412641  0.42272284  0.80788797  1
  Se  Se221  1  0.75559943  0.74889479  0.31184327  1
  Se  Se222  1  0.75234858  0.75130087  0.79942276  1
  Se  Se223  1  0.23485077  0.09689438  0.19435985  1
  Se  Se224  1  0.26872141  0.06691573  0.69613757  1
  Se  Se225  1  0.24643518  0.42568799  0.19163544  1
  Se  Se226  1  0.24276826  0.41044711  0.69166366  1
  Se  Se227  1  0.25460351  0.74545010  0.20082790  1
  Se  Se228  1  0.24851503  0.74338921  0.69407693  1
  Se  Se229  1  0.58599043  0.07655521  0.19859560  1
  Se  Se230  1  0.59109886  0.08250936  0.69872844  1
  Se  Se231  1  0.58419643  0.41671354  0.19800669  1
  Se  Se232  1  0.57098989  0.42499164  0.69427215  1
  Se  Se233  1  0.57418548  0.75796101  0.18839768  1
  Se  Se234  1  0.58764603  0.74449784  0.69901893  1
  Se  Se235  1  0.90672531  0.08684306  0.19025600  1
  Se  Se236  1  0.92007914  0.08587303  0.69335129  1
  Se  Se237  1  0.92344496  0.40916040  0.19727755  1
  Se  Se238  1  0.90875561  0.42662809  0.68756272  1
  Se  Se239  1  0.90552993  0.74585118  0.18666490  1
  Se  Se240  1  0.91752085  0.75097647  0.69688495  1
  Se  Se241  1  0.07982847  0.25466239  0.20691991  1
  Se  Se242  1  0.08695936  0.24387824  0.68134030  1
  Se  Se243  1  0.09081084  0.57096357  0.19351610  1
  Se  Se244  1  0.07691411  0.58319321  0.69081758  1
  Se  Se245  1  0.08983720  0.90232685  0.19847867  1
  Se  Se246  1  0.08161725  0.92033620  0.69575246  1
  Se  Se247  1  0.42609181  0.24388912  0.19160889  1
  Se  Se248  1  0.42047607  0.24718432  0.69357768  1
  Se  Se249  1  0.41666147  0.58436809  0.19563239  1
  Se  Se250  1  0.41339658  0.57823275  0.70120802  1
  Se  Se251  1  0.42269898  0.90987390  0.18444285  1
  Se  Se252  1  0.42062361  0.90993089  0.69683539  1
  Se  Se253  1  0.75146932  0.24855006  0.20133363  1
  Se  Se254  1  0.76356177  0.25266618  0.68194875  1
  Se  Se255  1  0.76090017  0.57471952  0.19040767  1
  Se  Se256  1  0.74446471  0.58862616  0.69623645  1
  Se  Se257  1  0.74865468  0.91625626  0.19514564  1
  Se  Se258  1  0.75028804  0.92166929  0.69784051  1
