# generated using pymatgen
data_In86Cu29Se144
_symmetry_space_group_name_H-M   'P 1'
_cell_length_a   17.59067823
_cell_length_b   17.58832790
_cell_length_c   23.45740029
_cell_angle_alpha   89.98993597
_cell_angle_beta   90.01619905
_cell_angle_gamma   90.00234883
_symmetry_Int_Tables_number   1
_chemical_formula_structural   In86Cu29Se144
_chemical_formula_sum   'In86 Cu29 Se144'
_cell_volume   7257.49913581
_cell_formula_units_Z   1
loop_
 _symmetry_equiv_pos_site_id
 _symmetry_equiv_pos_as_xyz
  1  'x, y, z'
loop_
 _atom_site_type_symbol
 _atom_site_label
 _atom_site_symmetry_multiplicity
 _atom_site_fract_x
 _atom_site_fract_y
 _atom_site_fract_z
 _atom_site_occupancy
  In  In0  1  -0.00948798  0.16921908  0.13168719  1
  In  In1  1  -0.01457017  0.15710024  0.62298809  1
  In  In2  1  -0.01120617  0.48973968  0.13202733  1
  In  In3  1  -0.00067075  0.50039951  0.61255610  1
  In  In4  1  0.00686219  0.84154238  0.12210116  1
  In  In5  1  -0.00684657  0.85111812  0.62842076  1
  In  In6  1  0.34904863  0.15648909  0.14045477  1
  In  In7  1  0.34705750  0.15874475  0.63446278  1
  In  In8  1  0.34148353  0.48988436  0.13130890  1
  In  In9  1  0.32615086  0.49572751  0.61884564  1
  In  In10  1  0.33565687  0.83693617  0.12285412  1
  In  In11  1  0.34064886  0.83900493  0.62645355  1
  In  In12  1  0.65738660  0.15031116  0.10408961  1
  In  In13  1  0.71126597  0.13734899  0.66763189  1
  In  In14  1  0.66401149  0.51362553  0.12591275  1
  In  In15  1  0.67179865  0.49191817  0.63110558  1
  In  In16  1  0.65708978  0.83913478  0.10978224  1
  In  In17  1  0.66743103  0.82853303  0.63480746  1
  In  In18  1  0.16997335  0.00499843  0.36885220  1
  In  In19  1  0.15784286  -0.00519302  0.87137928  1
  In  In20  1  0.17032535  0.33821864  0.37185761  1
  In  In21  1  0.16868936  0.31729961  0.87527758  1
  In  In22  1  0.16649915  0.65748220  0.37277081  1
  In  In23  1  0.18119214  0.67405097  0.87661454  1
  In  In24  1  0.49596646  0.00669905  0.37180735  1
  In  In25  1  0.50440773  -0.00027891  0.87804414  1
  In  In26  1  0.49683331  0.33444246  0.36999250  1
  In  In27  1  0.49981284  0.33517726  0.88076926  1
  In  In28  1  0.50842625  0.67453086  0.36147208  1
  In  In29  1  0.50751109  0.66503408  0.88169256  1
  In  In30  1  0.83781283  -0.01375574  0.38853831  1
  In  In31  1  0.82513422  0.00262518  0.87107947  1
  In  In32  1  0.84275732  0.32386295  0.38257473  1
  In  In33  1  0.81505551  0.32334988  0.86582781  1
  In  In34  1  0.82125340  0.67823261  0.38050047  1
  In  In35  1  0.82220004  0.68834176  0.87912835  1
  In  In36  1  -0.01502772  0.15178674  0.36710732  1
  In  In37  1  -0.00610420  0.14918258  0.87016160  1
  In  In38  1  0.00899070  0.49309461  0.38186853  1
  In  In39  1  -0.00784870  0.49459232  0.87525957  1
  In  In40  1  -0.02162851  0.83961426  0.36943194  1
  In  In41  1  -0.02811046  0.86003456  0.89207364  1
  In  In42  1  0.33215136  0.16080269  0.36358460  1
  In  In43  1  0.34421625  0.17681447  0.87156556  1
  In  In44  1  0.32371020  0.49418343  0.36713738  1
  In  In45  1  0.34983519  0.50864130  0.87590309  1
  In  In46  1  0.34329326  0.83701929  0.36412929  1
  In  In47  1  0.32924508  0.84358987  0.88191513  1
  In  In48  1  0.66891216  0.17130856  0.37880536  1
  In  In49  1  0.66362011  0.15619097  0.87875346  1
  In  In50  1  0.66131269  0.51366946  0.37572119  1
  In  In51  1  0.65313248  0.49174537  0.86665964  1
  In  In52  1  0.69460105  0.83734604  0.36222782  1
  In  In53  1  0.66533328  0.83956747  0.87202516  1
  In  In54  1  0.17681426  -0.00656717  0.12968916  1
  In  In55  1  0.17027457  -0.00444193  0.63205979  1
  In  In56  1  0.16666426  0.32844146  0.13242577  1
  In  In57  1  0.16929000  0.33936345  0.62124796  1
  In  In58  1  0.16907677  0.68600087  0.12586590  1
  In  In59  1  0.17516124  0.65681896  0.61857159  1
  In  In60  1  0.49878884  -0.00365291  0.11376110  1
  In  In61  1  0.50186446  -0.00857240  0.64041923  1
  In  In62  1  0.48828766  0.32278731  0.11505641  1
  In  In63  1  0.51242968  0.31957864  0.63699406  1
  In  In64  1  0.49887151  0.66856365  0.12126365  1
  In  In65  1  0.51308822  0.67974744  0.62969062  1
  In  In66  1  0.83093316  0.00419369  0.11775676  1
  In  In67  1  0.83545073  -0.00100257  0.62433167  1
  In  In68  1  0.83807536  0.32776521  0.13109059  1
  In  In69  1  0.82234992  0.32503313  0.61970911  1
  In  In70  1  0.82053534  0.67353088  0.13005672  1
  In  In71  1  0.82634048  0.66187464  0.61883903  1
  In  In72  1  0.16116810  0.83025762  0.50415403  1
  In  In73  1  0.83027702  0.50273233  0.00686761  1
  In  In74  1  0.17104973  0.50358316  0.00636122  1
  In  In75  1  0.00002983  0.67029730  0.75545567  1
  In  In76  1  0.49911203  0.49746711  0.49719041  1
  In  In77  1  0.50656648  0.83576609  0.50407672  1
  In  In78  1  0.66125495  -0.00190627  0.24045475  1
  In  In79  1  0.16773051  0.16876983  0.49009176  1
  In  In80  1  0.33829469  0.66876394  0.74523710  1
  In  In81  1  0.16844379  0.16293980  0.00403621  1
  In  In82  1  0.51123643  0.16148820  0.50754861  1
  In  In83  1  0.66348846  0.33030245  0.25100574  1
  In  In84  1  -0.00102600  0.32803821  0.74069779  1
  In  In85  1  -0.00002184  0.66595232  0.25219895  1
  Cu  Cu86  1  0.82964358  0.83847212  0.75474142  1
  Cu  Cu87  1  0.66459386  0.33338446  -0.00707137  1
  Cu  Cu88  1  0.33479364  0.32960694  0.49600561  1
  Cu  Cu89  1  -0.00065754  0.33532765  0.50021294  1
  Cu  Cu90  1  0.82625119  0.15950714  0.24822279  1
  Cu  Cu91  1  -0.00409113  -0.00067166  -0.00150506  1
  Cu  Cu92  1  0.67124784  0.67014221  0.50010835  1
  Cu  Cu93  1  0.66521189  0.66995253  -0.00046251  1
  Cu  Cu94  1  0.49907660  0.17057793  0.76179901  1
  Cu  Cu95  1  0.49885257  0.50266404  0.24778639  1
  Cu  Cu96  1  -0.01141260  0.32512366  0.00519988  1
  Cu  Cu97  1  0.33504024  0.00252976  0.00117094  1
  Cu  Cu98  1  0.16045002  0.83500387  0.75612442  1
  Cu  Cu99  1  0.16873291  0.50188554  0.25207478  1
  Cu  Cu100  1  0.15817952  0.17234545  0.25139594  1
  Cu  Cu101  1  0.00811568  0.67016573  0.00199025  1
  Cu  Cu102  1  0.50107978  0.83407942  0.23824638  1
  Cu  Cu103  1  -0.00443294  0.66904257  0.49328702  1
  Cu  Cu104  1  0.16935754  0.49062682  0.74380092  1
  Cu  Cu105  1  0.33148810  0.66061041  0.49311835  1
  Cu  Cu106  1  0.67915947  0.33165248  0.50491296  1
  Cu  Cu107  1  0.17084440  0.83801677  0.24837985  1
  Cu  Cu108  1  -0.00398378  0.00056606  0.49900378  1
  Cu  Cu109  1  0.34047917  0.67662918  0.00073340  1
  Cu  Cu110  1  0.82604004  0.50845837  0.74452464  1
  Cu  Cu111  1  0.49939336  0.49831843  0.75472059  1
  Cu  Cu112  1  0.83699708  0.49481675  0.25615825  1
  Cu  Cu113  1  0.17706897  0.16279322  0.75021999  1
  Cu  Cu114  1  0.33653145  0.33712395  0.00049705  1
  Se  Se115  1  0.07540357  0.07645393  0.06277284  1
  Se  Se116  1  0.08439650  0.07665043  0.55599482  1
  Se  Se117  1  0.07315707  0.40848109  0.05765565  1
  Se  Se118  1  0.08810057  0.41664168  0.54950276  1
  Se  Se119  1  0.08884855  0.75787643  0.05164428  1
  Se  Se120  1  0.06960589  0.74107980  0.56487216  1
  Se  Se121  1  0.41289184  0.09090201  0.05431895  1
  Se  Se122  1  0.41681415  0.06935503  0.56102643  1
  Se  Se123  1  0.41908337  0.42430221  0.05100233  1
  Se  Se124  1  0.41885917  0.40166223  0.55974635  1
  Se  Se125  1  0.42407590  0.76044707  0.05323079  1
  Se  Se126  1  0.40931216  0.73804666  0.55646363  1
  Se  Se127  1  0.75160331  0.07711812  0.04213794  1
  Se  Se128  1  0.75128346  0.09479391  0.56721462  1
  Se  Se129  1  0.74044887  0.40724991  0.06278689  1
  Se  Se130  1  0.75516338  0.42549240  0.55417994  1
  Se  Se131  1  0.75124719  0.75043866  0.05215745  1
  Se  Se132  1  0.74674189  0.75620643  0.55720752  1
  Se  Se133  1  0.25731999  0.25636425  0.06049846  1
  Se  Se134  1  0.26046381  0.24681386  0.55885380  1
  Se  Se135  1  0.26084604  0.59535118  0.06290689  1
  Se  Se136  1  0.24919636  0.57578297  0.54492360  1
  Se  Se137  1  0.25043481  0.91824892  0.05270285  1
  Se  Se138  1  0.25677767  0.92230305  0.55511710  1
  Se  Se139  1  0.58024150  0.25116453  0.04733711  1
  Se  Se140  1  0.60136925  0.25074216  0.56460236  1
  Se  Se141  1  0.58260349  0.58476782  0.05149358  1
  Se  Se142  1  0.58756200  0.58925429  0.55767441  1
  Se  Se143  1  0.60148109  0.94494325  0.04380263  1
  Se  Se144  1  0.59281339  0.92654966  0.56399177  1
  Se  Se145  1  0.90644257  0.24182848  0.05682377  1
  Se  Se146  1  0.91893517  0.25229064  0.55542645  1
  Se  Se147  1  0.92667128  0.59295697  0.06372680  1
  Se  Se148  1  0.91380734  0.58585492  0.54950229  1
  Se  Se149  1  0.91591127  0.91456533  0.05388861  1
  Se  Se150  1  0.91320125  0.91464851  0.55001445  1
  Se  Se151  1  0.07083732  0.25392778  0.43394848  1
  Se  Se152  1  0.07059043  0.24932277  0.94366166  1
  Se  Se153  1  0.08577409  0.58638626  0.44772909  1
  Se  Se154  1  0.07857389  0.58626499  0.93946599  1
  Se  Se155  1  0.07822025  0.92133198  0.43878714  1
  Se  Se156  1  0.08573304  0.91766414  0.94904392  1
  Se  Se157  1  0.41663879  0.24682472  0.44109708  1
  Se  Se158  1  0.41806148  0.24973161  0.94979728  1
  Se  Se159  1  0.41763243  0.58943669  0.43230464  1
  Se  Se160  1  0.42052052  0.58639611  0.95162571  1
  Se  Se161  1  0.41241370  0.92076041  0.44322600  1
  Se  Se162  1  0.41913186  0.91860319  0.94920061  1
  Se  Se163  1  0.75522064  0.24395942  0.44954601  1
  Se  Se164  1  0.74857535  0.24729346  0.94479876  1
  Se  Se165  1  0.75011069  0.58193484  0.44741211  1
  Se  Se166  1  0.74297020  0.58452520  0.93942292  1
  Se  Se167  1  0.73860773  0.91411379  0.44831471  1
  Se  Se168  1  0.77662732  0.89141934  0.93454195  1
  Se  Se169  1  0.26346360  0.07387005  0.44270491  1
  Se  Se170  1  0.25486453  0.08005270  0.93750451  1
  Se  Se171  1  0.25277888  0.41524665  0.44480097  1
  Se  Se172  1  0.25276807  0.41302620  0.93959207  1
  Se  Se173  1  0.25617207  0.75022927  0.43772838  1
  Se  Se174  1  0.24987927  0.75538911  0.95135876  1
  Se  Se175  1  0.59410208  0.06978587  0.44259983  1
  Se  Se176  1  0.58522392  0.07691088  0.95227719  1
  Se  Se177  1  0.59417344  0.40418881  0.44200849  1
  Se  Se178  1  0.58107842  0.42394771  0.94827331  1
  Se  Se179  1  0.59117286  0.74786668  0.43834571  1
  Se  Se180  1  0.58561905  0.75697089  0.94573500  1
  Se  Se181  1  0.91147600  0.08700569  0.44984229  1
  Se  Se182  1  0.91160350  0.08117378  0.94477714  1
  Se  Se183  1  0.91495915  0.41954134  0.44806741  1
  Se  Se184  1  0.91194203  0.40572624  0.94263032  1
  Se  Se185  1  0.91237679  0.75672223  0.44621043  1
  Se  Se186  1  0.91717965  0.74713852  0.95089099  1
  Se  Se187  1  0.24768719  0.25135631  0.30358922  1
  Se  Se188  1  0.25435625  0.25268134  0.80135104  1
  Se  Se189  1  0.25323795  0.58937961  0.29952539  1
  Se  Se190  1  0.24514628  0.57496412  0.80475829  1
  Se  Se191  1  0.25413094  0.92146504  0.30218542  1
  Se  Se192  1  0.24934974  0.91636202  0.80571855  1
  Se  Se193  1  0.57231588  0.23538117  0.30610565  1
  Se  Se194  1  0.58445403  0.25174754  0.81437954  1
  Se  Se195  1  0.58827765  0.58454076  0.29627513  1
  Se  Se196  1  0.58044606  0.58906389  0.80276840  1
  Se  Se197  1  0.57752432  0.90641131  0.30809362  1
  Se  Se198  1  0.58789107  0.92648541  0.80449981  1
  Se  Se199  1  0.90816522  0.24537820  0.30209984  1
  Se  Se200  1  0.91166980  0.24113965  0.80312430  1
  Se  Se201  1  0.91377639  0.57834182  0.31622052  1
  Se  Se202  1  0.90311693  0.58061785  0.81191513  1
  Se  Se203  1  0.90793195  0.92936771  0.30230116  1
  Se  Se204  1  0.91789741  0.92321213  0.80228493  1
  Se  Se205  1  0.08014052  0.08071510  0.30185393  1
  Se  Se206  1  0.08671180  0.08407175  0.80016467  1
  Se  Se207  1  0.08328893  0.41915405  0.30381500  1
  Se  Se208  1  0.08781658  0.41761249  0.80795757  1
  Se  Se209  1  0.08881211  0.76159393  0.31170554  1
  Se  Se210  1  0.08322433  0.75892405  0.81984030  1
  Se  Se211  1  0.41683716  0.07901475  0.29854684  1
  Se  Se212  1  0.41631535  0.08019847  0.80865923  1
  Se  Se213  1  0.41733027  0.41823316  0.30240717  1
  Se  Se214  1  0.41603283  0.41544320  0.80735014  1
  Se  Se215  1  0.41867560  0.75057056  0.29461597  1
  Se  Se216  1  0.41579801  0.75155529  0.81588024  1
  Se  Se217  1  0.74745131  0.08173737  0.30965179  1
  Se  Se218  1  0.74605841  0.08726405  0.80152997  1
  Se  Se219  1  0.75151091  0.41783559  0.31509274  1
  Se  Se220  1  0.74941479  0.42188827  0.80072195  1
  Se  Se221  1  0.74996101  0.73678811  0.29541924  1
  Se  Se222  1  0.74344735  0.75052042  0.79969603  1
  Se  Se223  1  0.24281495  0.08963074  0.19793478  1
  Se  Se224  1  0.25769108  0.07624148  0.69786565  1
  Se  Se225  1  0.24822801  0.41619277  0.19709905  1
  Se  Se226  1  0.25676167  0.41084580  0.69363678  1
  Se  Se227  1  0.25600838  0.75488226  0.19740199  1
  Se  Se228  1  0.23613252  0.75653804  0.69075198  1
  Se  Se229  1  0.57229328  0.09344817  0.18660548  1
  Se  Se230  1  0.57573991  0.09363166  0.69855490  1
  Se  Se231  1  0.57737227  0.41974179  0.18770653  1
  Se  Se232  1  0.58450165  0.41707383  0.70016140  1
  Se  Se233  1  0.58700776  0.75458363  0.18517424  1
  Se  Se234  1  0.56708722  0.76951665  0.70378249  1
  Se  Se235  1  0.91059605  0.07701036  0.19485213  1
  Se  Se236  1  0.92252783  0.07315756  0.69708496  1
  Se  Se237  1  0.91631138  0.40708358  0.20498564  1
  Se  Se238  1  0.91170738  0.42846780  0.68802895  1
  Se  Se239  1  0.91579277  0.75756115  0.19168153  1
  Se  Se240  1  0.90940427  0.75570631  0.69294965  1
  Se  Se241  1  0.07404252  0.25450070  0.19809919  1
  Se  Se242  1  0.09471619  0.23678041  0.68512360  1
  Se  Se243  1  0.08998161  0.57827189  0.18739520  1
  Se  Se244  1  0.08687813  0.57656535  0.69152690  1
  Se  Se245  1  0.08397862  0.91934757  0.19704749  1
  Se  Se246  1  0.08125611  0.91930730  0.69998983  1
  Se  Se247  1  0.40990109  0.26613640  0.19721134  1
  Se  Se248  1  0.41610371  0.25141474  0.70326987  1
  Se  Se249  1  0.41729588  0.58687359  0.19305585  1
  Se  Se250  1  0.42608046  0.57371363  0.68490589  1
  Se  Se251  1  0.41916765  0.92297525  0.18996438  1
  Se  Se252  1  0.41477527  0.90735827  0.70365578  1
  Se  Se253  1  0.74289373  0.23519269  0.18698058  1
  Se  Se254  1  0.74836208  0.27032308  0.70412493  1
  Se  Se255  1  0.75733451  0.57560916  0.19820978  1
  Se  Se256  1  0.74228281  0.59310327  0.69414432  1
  Se  Se257  1  0.75251868  0.90787586  0.18472696  1
  Se  Se258  1  0.75100608  0.91959004  0.69612984  1
