# generated using pymatgen
data_In86Cu29Se144
_symmetry_space_group_name_H-M   'P 1'
_cell_length_a   17.57555653
_cell_length_b   17.58404781
_cell_length_c   23.43784007
_cell_angle_alpha   90.01124580
_cell_angle_beta   90.00448215
_cell_angle_gamma   89.97642361
_symmetry_Int_Tables_number   1
_chemical_formula_structural   In86Cu29Se144
_chemical_formula_sum   'In86 Cu29 Se144'
_cell_volume   7243.45025064
_cell_formula_units_Z   1
loop_
 _symmetry_equiv_pos_site_id
 _symmetry_equiv_pos_as_xyz
  1  'x, y, z'
loop_
 _atom_site_type_symbol
 _atom_site_label
 _atom_site_symmetry_multiplicity
 _atom_site_fract_x
 _atom_site_fract_y
 _atom_site_fract_z
 _atom_site_occupancy
  In  In0  1  0.00535869  0.17640688  0.12594993  1
  In  In1  1  0.00484146  0.15268513  0.62050388  1
  In  In2  1  -0.01929454  0.49418433  0.13105769  1
  In  In3  1  -0.01667126  0.50897945  0.62219232  1
  In  In4  1  -0.00450465  0.82743260  0.11287655  1
  In  In5  1  -0.00224017  0.83901964  0.62002254  1
  In  In6  1  0.33949069  0.17001339  0.12263450  1
  In  In7  1  0.33142311  0.15444074  0.60789607  1
  In  In8  1  0.33678486  0.48292070  0.13204749  1
  In  In9  1  0.35128274  0.50124742  0.61999484  1
  In  In10  1  0.34074928  0.84759990  0.12449112  1
  In  In11  1  0.33412797  0.83448666  0.63070586  1
  In  In12  1  0.66028426  0.16547763  0.12089380  1
  In  In13  1  0.65350353  0.16417964  0.62073092  1
  In  In14  1  0.67401466  0.50016289  0.12879646  1
  In  In15  1  0.67151851  0.50054604  0.61464627  1
  In  In16  1  0.66844799  0.82321282  0.13790167  1
  In  In17  1  0.66974734  0.82483138  0.63163856  1
  In  In18  1  0.18620374  0.00459207  0.37535963  1
  In  In19  1  0.17177204  -0.00498947  0.88009593  1
  In  In20  1  0.16111386  0.31922534  0.37058364  1
  In  In21  1  0.15936501  0.32898940  0.88260682  1
  In  In22  1  0.16014875  0.67114144  0.37505537  1
  In  In23  1  0.18715352  0.66755195  0.87769003  1
  In  In24  1  0.51199931  0.01207030  0.37021671  1
  In  In25  1  0.50342548  0.00457335  0.86666661  1
  In  In26  1  0.49674046  0.33626313  0.36244085  1
  In  In27  1  0.51611670  0.32807417  0.89939087  1
  In  In28  1  0.50992812  0.64379352  0.37388258  1
  In  In29  1  0.49838168  0.66289396  0.87335494  1
  In  In30  1  0.81304546  -0.00389935  0.37815192  1
  In  In31  1  0.82433803  0.00364877  0.88533165  1
  In  In32  1  0.83156002  0.34867490  0.35047423  1
  In  In33  1  0.81118654  0.34401381  0.90654724  1
  In  In34  1  0.82446251  0.67470810  0.38128937  1
  In  In35  1  0.82630438  0.67781484  0.88009488  1
  In  In36  1  -0.00291405  0.18385245  0.37209132  1
  In  In37  1  -0.00223969  0.16786846  0.88635471  1
  In  In38  1  -0.00441413  0.49318961  0.37434415  1
  In  In39  1  -0.00925334  0.49038399  0.87815608  1
  In  In40  1  -0.01726606  0.82092072  0.37637612  1
  In  In41  1  -0.00241864  0.84176325  0.88467361  1
  In  In42  1  0.33801235  0.16632480  0.37461606  1
  In  In43  1  0.34519218  0.15800494  0.88069273  1
  In  In44  1  0.35879508  0.49340304  0.37149721  1
  In  In45  1  0.34573139  0.50994982  0.87660870  1
  In  In46  1  0.33584457  0.85155924  0.36925501  1
  In  In47  1  0.33216224  0.83157764  0.87417040  1
  In  In48  1  0.65333009  0.15602203  0.36823578  1
  In  In49  1  0.66930852  0.15925752  0.88806946  1
  In  In50  1  0.65973105  0.50461609  0.35997197  1
  In  In51  1  0.65919552  0.50933741  0.88679210  1
  In  In52  1  0.67461660  0.84778118  0.36458856  1
  In  In53  1  0.67022854  0.83664203  0.87019290  1
  In  In54  1  0.17834803  0.01508675  0.11716863  1
  In  In55  1  0.16864863  0.00816364  0.61945022  1
  In  In56  1  0.17525238  0.32004297  0.13503517  1
  In  In57  1  0.17906045  0.32809386  0.61781067  1
  In  In58  1  0.15741060  0.66658592  0.11820763  1
  In  In59  1  0.17324122  0.68180975  0.62468719  1
  In  In60  1  0.48576018  0.00154541  0.13947437  1
  In  In61  1  0.49963903  0.00392769  0.62885576  1
  In  In62  1  0.51356677  0.33359892  0.12415323  1
  In  In63  1  0.50314976  0.33078307  0.61042185  1
  In  In64  1  0.53110190  0.66410942  0.14153504  1
  In  In65  1  0.50704275  0.66315827  0.62904616  1
  In  In66  1  0.82017901  -0.01050371  0.11884459  1
  In  In67  1  0.83312544  -0.01051360  0.62260734  1
  In  In68  1  0.83217924  0.33869235  0.13018260  1
  In  In69  1  0.81421448  0.34004805  0.61834313  1
  In  In70  1  0.81254767  0.64982932  0.11704341  1
  In  In71  1  0.82324351  0.64688568  0.61238324  1
  In  In72  1  0.50137648  0.83179431  0.00885646  1
  In  In73  1  0.00208697  -0.00212020  0.74690427  1
  In  In74  1  -0.00676470  0.66264917  0.25426628  1
  In  In75  1  0.83031513  0.17425410  0.49318949  1
  In  In76  1  0.66324100  0.33498810  0.75914798  1
  In  In77  1  -0.00303855  0.32560621  0.76189671  1
  In  In78  1  0.34110497  0.33272784  0.75513609  1
  In  In79  1  0.16101373  0.83620512  0.50322002  1
  In  In80  1  0.16570294  0.49979739  -0.00086866  1
  In  In81  1  0.16290479  0.49566176  0.49080664  1
  In  In82  1  0.50469222  0.83968538  0.49397981  1
  In  In83  1  0.00223726  0.67307523  0.74675028  1
  In  In84  1  0.33251235  0.66685774  0.25212650  1
  In  In85  1  0.00136256  0.00519754  0.24494795  1
  Cu  Cu86  1  -0.00555073  0.33598020  0.49358627  1
  Cu  Cu87  1  0.17795182  0.50966512  0.75024495  1
  Cu  Cu88  1  0.17799104  0.16388040  0.24867078  1
  Cu  Cu89  1  0.17351503  0.16227774  0.74553594  1
  Cu  Cu90  1  0.83385677  0.83106724  0.24591779  1
  Cu  Cu91  1  0.66448994  0.34069190  0.48462440  1
  Cu  Cu92  1  -0.00368700  0.00659534  0.00632887  1
  Cu  Cu93  1  0.49775300  0.83315242  0.75046838  1
  Cu  Cu94  1  0.66048975  0.66161126  0.49890242  1
  Cu  Cu95  1  0.82740278  0.50381401  0.74729422  1
  Cu  Cu96  1  0.82611309  0.83239051  0.74836221  1
  Cu  Cu97  1  0.50332343  0.50100386  0.74981392  1
  Cu  Cu98  1  0.82373741  0.16524129  0.76160287  1
  Cu  Cu99  1  0.00189923  -0.00091872  0.49549417  1
  Cu  Cu100  1  0.34441337  0.66636665  0.00093441  1
  Cu  Cu101  1  0.67125344  0.66597251  0.00607929  1
  Cu  Cu102  1  0.82339280  0.16398819  0.24858791  1
  Cu  Cu103  1  0.49604559  0.17012579  0.24510682  1
  Cu  Cu104  1  0.33315122  0.00299006  0.00280735  1
  Cu  Cu105  1  0.65989387  -0.00199261  0.00241271  1
  Cu  Cu106  1  0.16795106  0.84349348  0.24217099  1
  Cu  Cu107  1  0.49534953  0.16427949  0.74786940  1
  Cu  Cu108  1  0.33901760  0.32680185  0.49399124  1
  Cu  Cu109  1  0.16531192  0.49352722  0.25532039  1
  Cu  Cu110  1  -0.00055884  0.33404005  0.00613493  1
  Cu  Cu111  1  0.17955163  0.83049201  0.75525444  1
  Cu  Cu112  1  0.33382954  0.66764746  0.49663634  1
  Cu  Cu113  1  -0.00185220  0.67128654  0.00118314  1
  Cu  Cu114  1  0.33700673  0.32980291  0.00989489  1
  Se  Se115  1  0.08215111  0.09044965  0.05540652  1
  Se  Se116  1  0.08689802  0.08292054  0.54550296  1
  Se  Se117  1  0.08346303  0.41378749  0.06641786  1
  Se  Se118  1  0.07522723  0.41087038  0.56009913  1
  Se  Se119  1  0.08950785  0.75358835  0.04591370  1
  Se  Se120  1  0.07052389  0.73707094  0.55435936  1
  Se  Se121  1  0.42064994  0.07841480  0.05804387  1
  Se  Se122  1  0.44455544  0.09824391  0.55398709  1
  Se  Se123  1  0.42119253  0.41665338  0.05736826  1
  Se  Se124  1  0.41835854  0.41638568  0.54558159  1
  Se  Se125  1  0.41865187  0.73747283  0.07109269  1
  Se  Se126  1  0.41429146  0.74769990  0.55737255  1
  Se  Se127  1  0.74637505  0.08204926  0.05214381  1
  Se  Se128  1  0.74962223  0.08158618  0.55682768  1
  Se  Se129  1  0.76156176  0.42733862  0.05845051  1
  Se  Se130  1  0.74943435  0.42008597  0.54067697  1
  Se  Se131  1  0.74845189  0.75810670  0.05761475  1
  Se  Se132  1  0.74166681  0.74378040  0.55545797  1
  Se  Se133  1  0.24643846  0.24720561  0.05507471  1
  Se  Se134  1  0.25009308  0.24663723  0.54456658  1
  Se  Se135  1  0.26057532  0.58525759  0.06069399  1
  Se  Se136  1  0.25190868  0.58686772  0.55586910  1
  Se  Se137  1  0.25054700  0.91568701  0.05333201  1
  Se  Se138  1  0.26106611  0.92272318  0.55508865  1
  Se  Se139  1  0.57886768  0.24499445  0.04961395  1
  Se  Se140  1  0.59353270  0.25390359  0.54473443  1
  Se  Se141  1  0.58660819  0.58443694  0.05912939  1
  Se  Se142  1  0.57628412  0.58032297  0.55334145  1
  Se  Se143  1  0.58669391  0.92218645  0.07004325  1
  Se  Se144  1  0.59150781  0.91843987  0.56313635  1
  Se  Se145  1  0.91472885  0.25293956  0.05974631  1
  Se  Se146  1  0.92171925  0.25729469  0.56282164  1
  Se  Se147  1  0.92072601  0.58616329  0.05729784  1
  Se  Se148  1  0.90731786  0.57037040  0.54269144  1
  Se  Se149  1  0.91241125  0.91634836  0.05064104  1
  Se  Se150  1  0.91808968  0.91835741  0.54878293  1
  Se  Se151  1  0.08179108  0.24940565  0.44897557  1
  Se  Se152  1  0.08303074  0.24938388  0.95456804  1
  Se  Se153  1  0.06921287  0.59329325  0.44191804  1
  Se  Se154  1  0.07684976  0.59219496  0.93673324  1
  Se  Se155  1  0.07756876  0.91970131  0.43091371  1
  Se  Se156  1  0.08113592  0.92477994  0.95042037  1
  Se  Se157  1  0.42620824  0.25112354  0.43899283  1
  Se  Se158  1  0.41629780  0.24606249  0.95217280  1
  Se  Se159  1  0.41903528  0.58103634  0.44872412  1
  Se  Se160  1  0.42818927  0.58123184  0.95109139  1
  Se  Se161  1  0.41169551  0.93407736  0.44239658  1
  Se  Se162  1  0.41584860  0.92099229  0.94340306  1
  Se  Se163  1  0.74683584  0.25849229  0.42610443  1
  Se  Se164  1  0.73409564  0.24721857  0.96167848  1
  Se  Se165  1  0.73846874  0.58003047  0.43803012  1
  Se  Se166  1  0.75596251  0.58636716  0.94922868  1
  Se  Se167  1  0.74936947  0.90599861  0.44895093  1
  Se  Se168  1  0.74261604  0.91263967  0.94848476  1
  Se  Se169  1  0.25072058  0.09203161  0.44708024  1
  Se  Se170  1  0.25021468  0.08469514  0.94666599  1
  Se  Se171  1  0.25843667  0.40958960  0.43428124  1
  Se  Se172  1  0.26290113  0.41013869  0.94183518  1
  Se  Se173  1  0.25641505  0.75099066  0.43882686  1
  Se  Se174  1  0.25891634  0.75066853  0.95105251  1
  Se  Se175  1  0.59334818  0.07611814  0.44851947  1
  Se  Se176  1  0.57370026  0.07660405  0.94748093  1
  Se  Se177  1  0.57874563  0.42199926  0.43221235  1
  Se  Se178  1  0.60185886  0.41389347  0.95825262  1
  Se  Se179  1  0.58919460  0.74464603  0.43515521  1
  Se  Se180  1  0.58939685  0.74560648  0.94433759  1
  Se  Se181  1  0.92167152  0.07902506  0.43417593  1
  Se  Se182  1  0.91037334  0.08653343  0.95099175  1
  Se  Se183  1  0.90695613  0.40894753  0.43718208  1
  Se  Se184  1  0.91656062  0.42314364  0.95772053  1
  Se  Se185  1  0.91385245  0.74525135  0.45247270  1
  Se  Se186  1  0.91423984  0.75493868  0.94823256  1
  Se  Se187  1  0.25614597  0.25049218  0.30362723  1
  Se  Se188  1  0.24301613  0.24449875  0.81136957  1
  Se  Se189  1  0.24293652  0.57479001  0.31515268  1
  Se  Se190  1  0.26281207  0.58725351  0.80466190  1
  Se  Se191  1  0.25151081  0.92416364  0.29596085  1
  Se  Se192  1  0.25517222  0.92236377  0.80648261  1
  Se  Se193  1  0.58285316  0.24734509  0.29968816  1
  Se  Se194  1  0.57263246  0.24076420  0.81408999  1
  Se  Se195  1  0.58852490  0.59593046  0.28881483  1
  Se  Se196  1  0.58702254  0.58143992  0.80673343  1
  Se  Se197  1  0.57368316  0.91245021  0.30157933  1
  Se  Se198  1  0.58405006  0.91548646  0.80239838  1
  Se  Se199  1  0.91331756  0.24773187  0.29568415  1
  Se  Se200  1  0.89734307  0.24965899  0.82364499  1
  Se  Se201  1  0.90087085  0.57596643  0.31080614  1
  Se  Se202  1  0.91287572  0.58013228  0.80706969  1
  Se  Se203  1  0.91149781  0.91390790  0.30532496  1
  Se  Se204  1  0.90900317  0.91263477  0.80792331  1
  Se  Se205  1  0.09021172  0.09008175  0.30990756  1
  Se  Se206  1  0.08592337  0.09183289  0.80894888  1
  Se  Se207  1  0.08028449  0.41159908  0.30755752  1
  Se  Se208  1  0.09569905  0.42803217  0.80805325  1
  Se  Se209  1  0.08779049  0.76470558  0.30307392  1
  Se  Se210  1  0.09002165  0.75797302  0.81401335  1
  Se  Se211  1  0.41794313  0.08459944  0.30264538  1
  Se  Se212  1  0.41055718  0.08086080  0.79979722  1
  Se  Se213  1  0.41699851  0.41746823  0.29024041  1
  Se  Se214  1  0.43634578  0.41574061  0.81590000  1
  Se  Se215  1  0.41868724  0.74755034  0.31941732  1
  Se  Se216  1  0.41766317  0.74990756  0.80746521  1
  Se  Se217  1  0.74535532  0.07735904  0.30169606  1
  Se  Se218  1  0.74151880  0.07861356  0.81153876  1
  Se  Se219  1  0.71982218  0.40313889  0.28933329  1
  Se  Se220  1  0.75840178  0.42394413  0.81599123  1
  Se  Se221  1  0.75210381  0.75076350  0.30302705  1
  Se  Se222  1  0.74684022  0.74565761  0.80191389  1
  Se  Se223  1  0.25945612  0.08285808  0.19368210  1
  Se  Se224  1  0.25541614  0.08371859  0.68904592  1
  Se  Se225  1  0.24977086  0.41137899  0.20273861  1
  Se  Se226  1  0.25014352  0.42147704  0.69023404  1
  Se  Se227  1  0.24134765  0.75224956  0.18763276  1
  Se  Se228  1  0.25866303  0.74489890  0.70027377  1
  Se  Se229  1  0.58268865  0.08440637  0.19567593  1
  Se  Se230  1  0.58691800  0.08421209  0.69901167  1
  Se  Se231  1  0.60142141  0.40630288  0.19775795  1
  Se  Se232  1  0.57880290  0.41735269  0.68820089  1
  Se  Se233  1  0.56721001  0.77266799  0.20950695  1
  Se  Se234  1  0.58222883  0.74746424  0.70017823  1
  Se  Se235  1  0.90555899  0.08688766  0.18548439  1
  Se  Se236  1  0.90577002  0.09408149  0.69491104  1
  Se  Se237  1  0.91451587  0.41334227  0.20597292  1
  Se  Se238  1  0.90877305  0.41494064  0.69418079  1
  Se  Se239  1  0.91110910  0.74889065  0.18607975  1
  Se  Se240  1  0.90660480  0.75495319  0.68542718  1
  Se  Se241  1  0.08420484  0.24627056  0.20391210  1
  Se  Se242  1  0.08810048  0.24557434  0.69054510  1
  Se  Se243  1  0.08919059  0.57549965  0.19343991  1
  Se  Se244  1  0.09154998  0.57738004  0.68672543  1
  Se  Se245  1  0.08480159  0.91535491  0.18039448  1
  Se  Se246  1  0.09870716  0.90560845  0.69089724  1
  Se  Se247  1  0.41846042  0.25690926  0.19042629  1
  Se  Se248  1  0.42157767  0.24757540  0.68526647  1
  Se  Se249  1  0.42174047  0.57869841  0.19203131  1
  Se  Se250  1  0.41770333  0.58263741  0.69729598  1
  Se  Se251  1  0.41573714  0.90683865  0.20630806  1
  Se  Se252  1  0.41778010  0.91816091  0.69633003  1
  Se  Se253  1  0.74604338  0.24608714  0.19050017  1
  Se  Se254  1  0.75178381  0.24503403  0.69412817  1
  Se  Se255  1  0.73736351  0.59708335  0.20100102  1
  Se  Se256  1  0.74300725  0.58149451  0.69175896  1
  Se  Se257  1  0.74881368  0.91931859  0.19967941  1
  Se  Se258  1  0.74759914  0.92097421  0.69590510  1
