# generated using pymatgen
data_In86Cu29Se144
_symmetry_space_group_name_H-M   'P 1'
_cell_length_a   17.58044406
_cell_length_b   17.57337587
_cell_length_c   23.44709970
_cell_angle_alpha   90.00817671
_cell_angle_beta   90.01140379
_cell_angle_gamma   89.98603506
_symmetry_Int_Tables_number   1
_chemical_formula_structural   In86Cu29Se144
_chemical_formula_sum   'In86 Cu29 Se144'
_cell_volume   7243.92829648
_cell_formula_units_Z   1
loop_
 _symmetry_equiv_pos_site_id
 _symmetry_equiv_pos_as_xyz
  1  'x, y, z'
loop_
 _atom_site_type_symbol
 _atom_site_label
 _atom_site_symmetry_multiplicity
 _atom_site_fract_x
 _atom_site_fract_y
 _atom_site_fract_z
 _atom_site_occupancy
  In  In0  1  -0.00547713  0.15843363  0.11998244  1
  In  In1  1  -0.00265208  0.15949592  0.62287665  1
  In  In2  1  0.02392397  0.53017160  0.09738205  1
  In  In3  1  0.01660495  0.50615417  0.62577748  1
  In  In4  1  0.01856604  0.83619336  0.11190579  1
  In  In5  1  -0.00790841  0.82813508  0.61966282  1
  In  In6  1  0.32833931  0.16633832  0.13542285  1
  In  In7  1  0.34439329  0.17496007  0.61459476  1
  In  In8  1  0.31253985  0.52692117  0.15242074  1
  In  In9  1  0.32157296  0.49967794  0.61369933  1
  In  In10  1  0.33598265  0.82777169  0.12954243  1
  In  In11  1  0.32984712  0.81948327  0.60195006  1
  In  In12  1  0.67266265  0.16085112  0.12234597  1
  In  In13  1  0.66254696  0.17664343  0.63145626  1
  In  In14  1  0.66917907  0.50275822  0.12107566  1
  In  In15  1  0.66496433  0.50781681  0.63162717  1
  In  In16  1  0.65216773  0.82309522  0.11730051  1
  In  In17  1  0.66530468  0.82470859  0.62011178  1
  In  In18  1  0.16650475  -0.00416225  0.37168805  1
  In  In19  1  0.15764301  -0.00798915  0.87582690  1
  In  In20  1  0.18046294  0.32242178  0.38230056  1
  In  In21  1  0.17685852  0.34783620  0.86421489  1
  In  In22  1  0.18284268  0.65990398  0.38799689  1
  In  In23  1  0.14895229  0.68025598  0.89703585  1
  In  In24  1  0.48701287  0.01179346  0.38380375  1
  In  In25  1  0.49208615  -0.01194918  0.87475613  1
  In  In26  1  0.47319072  0.35427047  0.39097663  1
  In  In27  1  0.49868862  0.34079149  0.86393726  1
  In  In28  1  0.50118891  0.66431457  0.37523985  1
  In  In29  1  0.50669868  0.66118898  0.87548475  1
  In  In30  1  0.82530533  -0.01763293  0.37279267  1
  In  In31  1  0.84129754  -0.00684197  0.88527018  1
  In  In32  1  0.82916850  0.33624270  0.37449743  1
  In  In33  1  0.82586256  0.33745720  0.87627852  1
  In  In34  1  0.83713922  0.67990552  0.37041498  1
  In  In35  1  0.82704758  0.66978238  0.87175294  1
  In  In36  1  0.01433259  0.16598298  0.37810130  1
  In  In37  1  -0.00536600  0.15849669  0.87586700  1
  In  In38  1  0.00959090  0.51956721  0.37342458  1
  In  In39  1  -0.02802501  0.53285481  0.90334498  1
  In  In40  1  -0.00440792  0.83572912  0.37605885  1
  In  In41  1  -0.00051552  0.82591726  0.88026093  1
  In  In42  1  0.32922323  0.16455530  0.37411171  1
  In  In43  1  0.32050183  0.17873668  0.87176147  1
  In  In44  1  0.33967882  0.50224640  0.37453907  1
  In  In45  1  0.33411665  0.50155004  0.87606275  1
  In  In46  1  0.32877501  0.83563005  0.37787543  1
  In  In47  1  0.33367236  0.82140735  0.89400832  1
  In  In48  1  0.66031240  0.15158285  0.37633382  1
  In  In49  1  0.66842306  0.17900069  0.86871361  1
  In  In50  1  0.63785676  0.50169396  0.37214001  1
  In  In51  1  0.66802875  0.51074072  0.86381488  1
  In  In52  1  0.67566947  0.82189501  0.37796003  1
  In  In53  1  0.68422807  0.81591681  0.88386817  1
  In  In54  1  0.18240602  -0.03265656  0.15572963  1
  In  In55  1  0.16076280  0.00197195  0.61364602  1
  In  In56  1  0.17559686  0.34388348  0.12527351  1
  In  In57  1  0.17975377  0.34587079  0.61850577  1
  In  In58  1  0.19356142  0.68870631  0.09433110  1
  In  In59  1  0.16297871  0.66590188  0.61892362  1
  In  In60  1  0.49693822  -0.01337476  0.13167584  1
  In  In61  1  0.49189246  -0.01185345  0.61300577  1
  In  In62  1  0.49579113  0.33523351  0.13201477  1
  In  In63  1  0.49825207  0.33695936  0.62257033  1
  In  In64  1  0.48033222  0.68452989  0.14788042  1
  In  In65  1  0.50715924  0.67174280  0.60847734  1
  In  In66  1  0.84255678  0.00305071  0.11956141  1
  In  In67  1  0.84319217  -0.00734651  0.62878021  1
  In  In68  1  0.84174633  0.34213959  0.11259390  1
  In  In69  1  0.81854978  0.32290402  0.63644522  1
  In  In70  1  0.82945325  0.66119139  0.11367037  1
  In  In71  1  0.82968274  0.67990974  0.64013273  1
  In  In72  1  0.51065180  0.16271715  -0.00000476  1
  In  In73  1  -0.00058909  -0.00386708  0.75340380  1
  In  In74  1  0.01532009  0.68099772  0.24000535  1
  In  In75  1  0.49271616  0.50714306  0.00359708  1
  In  In76  1  0.00229013  0.33511843  0.23911754  1
  In  In77  1  -0.00041216  0.34099991  0.75417229  1
  In  In78  1  0.15750400  0.15749323  -0.00273066  1
  In  In79  1  0.66278401  0.33374565  0.25108347  1
  In  In80  1  0.66879953  -0.00193300  0.74864830  1
  In  In81  1  0.83542242  0.50512272  0.50326512  1
  In  In82  1  0.33349893  0.65977249  0.74607101  1
  In  In83  1  0.83116203  0.16115743  0.51300787  1
  In  In84  1  0.66142167  -0.00651023  0.24862026  1
  In  In85  1  0.33526041  0.00213151  0.74522000  1
  Cu  Cu86  1  0.17261120  0.17938736  0.74221933  1
  Cu  Cu87  1  0.16870515  0.83110057  0.75561439  1
  Cu  Cu88  1  0.00450808  0.67344598  0.49914544  1
  Cu  Cu89  1  0.00057674  0.32650260  -0.00217509  1
  Cu  Cu90  1  0.67233769  -0.00133600  0.00344419  1
  Cu  Cu91  1  0.83545203  0.50081198  0.75694043  1
  Cu  Cu92  1  0.32738670  0.00191445  0.49342272  1
  Cu  Cu93  1  0.84281366  0.16558719  0.24295751  1
  Cu  Cu94  1  0.66132467  0.32796712  0.50298823  1
  Cu  Cu95  1  0.66103751  0.66620048  -0.00265171  1
  Cu  Cu96  1  0.66178143  -0.01029471  0.49863301  1
  Cu  Cu97  1  0.49394847  0.83357314  0.25853512  1
  Cu  Cu98  1  0.33403581  -0.00556419  0.00760113  1
  Cu  Cu99  1  -0.00201148  0.00094451  0.49665777  1
  Cu  Cu100  1  0.49696902  0.17351932  0.74463848  1
  Cu  Cu101  1  0.16606897  0.16036738  0.25543817  1
  Cu  Cu102  1  0.49518081  0.17589087  0.25689898  1
  Cu  Cu103  1  0.83498626  0.83562931  0.24573359  1
  Cu  Cu104  1  0.00799935  0.34160163  0.50047920  1
  Cu  Cu105  1  0.83212818  0.50686359  0.24021272  1
  Cu  Cu106  1  0.16885364  0.49368823  0.25515491  1
  Cu  Cu107  1  0.33220609  0.33025907  0.49876057  1
  Cu  Cu108  1  0.33641919  0.33356634  -0.00093867  1
  Cu  Cu109  1  0.67276726  0.66157563  0.49936794  1
  Cu  Cu110  1  0.00514514  -0.00647152  0.00333172  1
  Cu  Cu111  1  0.67113247  0.33913854  -0.00717146  1
  Cu  Cu112  1  0.16621229  0.51065532  0.74980537  1
  Cu  Cu113  1  0.49792189  0.49478540  0.74366854  1
  Cu  Cu114  1  0.50203975  0.82543586  0.74361964  1
  Se  Se115  1  0.08980653  0.06428513  0.06690871  1
  Se  Se116  1  0.07865803  0.08941188  0.54772476  1
  Se  Se117  1  0.08397771  0.40643140  0.05325702  1
  Se  Se118  1  0.09125006  0.42615440  0.55187455  1
  Se  Se119  1  0.05620250  0.71091092  0.06042997  1
  Se  Se120  1  0.08644014  0.75890291  0.55227549  1
  Se  Se121  1  0.41231880  0.08233705  0.06156886  1
  Se  Se122  1  0.41539501  0.08017139  0.54866281  1
  Se  Se123  1  0.40823494  0.41357291  0.06319673  1
  Se  Se124  1  0.41335951  0.41546560  0.55262039  1
  Se  Se125  1  0.42536600  0.75241004  0.06087376  1
  Se  Se126  1  0.41274215  0.73512370  0.53870767  1
  Se  Se127  1  0.75550397  0.08590896  0.05178733  1
  Se  Se128  1  0.73654901  0.06813686  0.56665321  1
  Se  Se129  1  0.74966323  0.42266592  0.04992767  1
  Se  Se130  1  0.74694702  0.40707375  0.55947903  1
  Se  Se131  1  0.74531931  0.75094504  0.05007941  1
  Se  Se132  1  0.75592193  0.74178564  0.55559332  1
  Se  Se133  1  0.25490595  0.24729030  0.05398571  1
  Se  Se134  1  0.24591484  0.24783665  0.55180873  1
  Se  Se135  1  0.25524528  0.56560995  0.05649873  1
  Se  Se136  1  0.25890117  0.60163139  0.55104392  1
  Se  Se137  1  0.24959682  0.91783263  0.06438221  1
  Se  Se138  1  0.24629291  0.91904712  0.54866073  1
  Se  Se139  1  0.59353372  0.26303336  0.05891036  1
  Se  Se140  1  0.57901861  0.24468158  0.55644233  1
  Se  Se141  1  0.57886087  0.59790464  0.06426764  1
  Se  Se142  1  0.59094420  0.57513587  0.55057932  1
  Se  Se143  1  0.58106692  0.92361658  0.05455716  1
  Se  Se144  1  0.57949371  0.90323169  0.55071586  1
  Se  Se145  1  0.91719711  0.24415919  0.05116874  1
  Se  Se146  1  0.92223453  0.26601667  0.56067594  1
  Se  Se147  1  0.90363965  0.57155619  0.04468875  1
  Se  Se148  1  0.92438479  0.59435749  0.56280333  1
  Se  Se149  1  0.91680885  0.91048909  0.05258427  1
  Se  Se150  1  0.91549420  0.91878247  0.55121282  1
  Se  Se151  1  0.08553853  0.25108096  0.44989215  1
  Se  Se152  1  0.08340491  0.25651925  0.93236511  1
  Se  Se153  1  0.08704928  0.58283492  0.45321231  1
  Se  Se154  1  0.10617072  0.55419609  0.94326301  1
  Se  Se155  1  0.08087128  0.91798730  0.44350671  1
  Se  Se156  1  0.08610292  0.90977547  0.94837906  1
  Se  Se157  1  0.41412570  0.24206883  0.44690142  1
  Se  Se158  1  0.41715958  0.25412582  0.94057285  1
  Se  Se159  1  0.42428293  0.57916471  0.44517252  1
  Se  Se160  1  0.40355976  0.59965026  0.94426199  1
  Se  Se161  1  0.41662120  0.91542412  0.44837147  1
  Se  Se162  1  0.41963261  0.91438944  0.95249303  1
  Se  Se163  1  0.74575444  0.24952525  0.44443975  1
  Se  Se164  1  0.75041269  0.24592194  0.94572345  1
  Se  Se165  1  0.74933309  0.58358149  0.43318811  1
  Se  Se166  1  0.74217363  0.58405506  0.94132755  1
  Se  Se167  1  0.75129241  0.90935208  0.45003775  1
  Se  Se168  1  0.75364322  0.91220437  0.95049490  1
  Se  Se169  1  0.24197289  0.08537285  0.44230671  1
  Se  Se170  1  0.26002876  0.07209124  0.93984365  1
  Se  Se171  1  0.25364418  0.41887742  0.44474811  1
  Se  Se172  1  0.25389041  0.41456809  0.94435065  1
  Se  Se173  1  0.25053751  0.75703100  0.45232549  1
  Se  Se174  1  0.23956776  0.75694680  0.96214438  1
  Se  Se175  1  0.58194521  0.08269856  0.45296612  1
  Se  Se176  1  0.59400558  0.07263939  0.93525277  1
  Se  Se177  1  0.58189536  0.41585959  0.45129485  1
  Se  Se178  1  0.58302698  0.41768984  0.93867007  1
  Se  Se179  1  0.58844266  0.74511009  0.44600958  1
  Se  Se180  1  0.57803238  0.75183382  0.94496031  1
  Se  Se181  1  0.91224132  0.08041314  0.43800394  1
  Se  Se182  1  0.92289369  0.08055859  0.95207937  1
  Se  Se183  1  0.92611650  0.41597623  0.43807377  1
  Se  Se184  1  0.91436071  0.40962733  0.94723312  1
  Se  Se185  1  0.91536113  0.75158982  0.44711366  1
  Se  Se186  1  0.91943154  0.73661836  0.94308470  1
  Se  Se187  1  0.24966231  0.24912892  0.30245813  1
  Se  Se188  1  0.25625524  0.26167613  0.79494665  1
  Se  Se189  1  0.24826700  0.58196633  0.30719853  1
  Se  Se190  1  0.24003906  0.59048443  0.81503560  1
  Se  Se191  1  0.25798562  0.92255135  0.30468367  1
  Se  Se192  1  0.25343126  0.90992434  0.81266280  1
  Se  Se193  1  0.57768491  0.24985239  0.31812107  1
  Se  Se194  1  0.58183502  0.25365228  0.79925489  1
  Se  Se195  1  0.59655019  0.60263175  0.30171040  1
  Se  Se196  1  0.57484449  0.58420773  0.79682530  1
  Se  Se197  1  0.57650182  0.91476537  0.31835742  1
  Se  Se198  1  0.57751355  0.90654884  0.80612712  1
  Se  Se199  1  0.91446839  0.24855647  0.30706928  1
  Se  Se200  1  0.91122308  0.24428431  0.80850737  1
  Se  Se201  1  0.91645712  0.58587412  0.29998223  1
  Se  Se202  1  0.91938952  0.58423459  0.80841405  1
  Se  Se203  1  0.91612362  0.91634975  0.30153491  1
  Se  Se204  1  0.90807920  0.90454833  0.80834260  1
  Se  Se205  1  0.07713652  0.07937436  0.30353561  1
  Se  Se206  1  0.09685546  0.09540687  0.80387125  1
  Se  Se207  1  0.08442570  0.41519780  0.31322059  1
  Se  Se208  1  0.08082887  0.43780334  0.81159790  1
  Se  Se209  1  0.09440781  0.75036474  0.31889147  1
  Se  Se210  1  0.08738093  0.74871570  0.81014355  1
  Se  Se211  1  0.41534658  0.08396590  0.30421499  1
  Se  Se212  1  0.42143308  0.09458871  0.80987599  1
  Se  Se213  1  0.41907338  0.41850404  0.30305192  1
  Se  Se214  1  0.40903800  0.42215463  0.80052950  1
  Se  Se215  1  0.41187859  0.74873736  0.31006601  1
  Se  Se216  1  0.41686972  0.75598737  0.80955988  1
  Se  Se217  1  0.75828061  0.08843073  0.30331087  1
  Se  Se218  1  0.75886107  0.08099340  0.81388622  1
  Se  Se219  1  0.75625370  0.43037424  0.30656716  1
  Se  Se220  1  0.74746202  0.41496781  0.80227955  1
  Se  Se221  1  0.75146187  0.75204630  0.29775391  1
  Se  Se222  1  0.74018975  0.74348989  0.80006515  1
  Se  Se223  1  0.25445224  0.07835155  0.20470796  1
  Se  Se224  1  0.24468289  0.09029136  0.68460009  1
  Se  Se225  1  0.25419079  0.40882683  0.20433788  1
  Se  Se226  1  0.24869044  0.42775987  0.69519064  1
  Se  Se227  1  0.24236097  0.74274423  0.18794940  1
  Se  Se228  1  0.24904048  0.75989859  0.68971881  1
  Se  Se229  1  0.57339610  0.09559428  0.19345405  1
  Se  Se230  1  0.56697297  0.07945111  0.68919217  1
  Se  Se231  1  0.57699405  0.43006143  0.19447315  1
  Se  Se232  1  0.58586433  0.41270275  0.69348789  1
  Se  Se233  1  0.58552566  0.75945367  0.20373352  1
  Se  Se234  1  0.58220243  0.74168536  0.68912841  1
  Se  Se235  1  0.92352466  0.07636815  0.19546133  1
  Se  Se236  1  0.90787453  0.09348259  0.69833115  1
  Se  Se237  1  0.91790146  0.43183525  0.18239558  1
  Se  Se238  1  0.90940604  0.42684957  0.68701105  1
  Se  Se239  1  0.90975528  0.75433033  0.18285370  1
  Se  Se240  1  0.93000676  0.75218107  0.69999752  1
  Se  Se241  1  0.09436058  0.23776239  0.18575773  1
  Se  Se242  1  0.08388434  0.25300270  0.68524752  1
  Se  Se243  1  0.09369268  0.57264888  0.19097506  1
  Se  Se244  1  0.08417703  0.59581864  0.69752260  1
  Se  Se245  1  0.07145626  0.89739900  0.20309833  1
  Se  Se246  1  0.09359176  0.91358223  0.69186047  1
  Se  Se247  1  0.41242289  0.25381788  0.19929726  1
  Se  Se248  1  0.41187714  0.25519347  0.69227954  1
  Se  Se249  1  0.42565439  0.57643447  0.20912750  1
  Se  Se250  1  0.42358849  0.57852974  0.68124362  1
  Se  Se251  1  0.41218287  0.91573418  0.20301611  1
  Se  Se252  1  0.41408217  0.89984616  0.68615858  1
  Se  Se253  1  0.75979435  0.24926171  0.18886529  1
  Se  Se254  1  0.74889774  0.23718301  0.70720654  1
  Se  Se255  1  0.74686363  0.58974965  0.19002527  1
  Se  Se256  1  0.75251500  0.58282368  0.70054185  1
  Se  Se257  1  0.75159008  0.91203595  0.18404896  1
  Se  Se258  1  0.75773980  0.90340052  0.69270169  1
