# generated using pymatgen
data_In86Cu29Se144
_symmetry_space_group_name_H-M   'P 1'
_cell_length_a   17.58130293
_cell_length_b   17.58463743
_cell_length_c   23.44393210
_cell_angle_alpha   90.00724971
_cell_angle_beta   90.01751098
_cell_angle_gamma   89.98869672
_symmetry_Int_Tables_number   1
_chemical_formula_structural   In86Cu29Se144
_chemical_formula_sum   'In86 Cu29 Se144'
_cell_volume   7247.94514556
_cell_formula_units_Z   1
loop_
 _symmetry_equiv_pos_site_id
 _symmetry_equiv_pos_as_xyz
  1  'x, y, z'
loop_
 _atom_site_type_symbol
 _atom_site_label
 _atom_site_symmetry_multiplicity
 _atom_site_fract_x
 _atom_site_fract_y
 _atom_site_fract_z
 _atom_site_occupancy
  In  In0  1  0.02048619  0.16683627  0.11822836  1
  In  In1  1  0.00371706  0.16399195  0.62305894  1
  In  In2  1  0.00175113  0.49975039  0.12451436  1
  In  In3  1  -0.00228357  0.50647082  0.64153893  1
  In  In4  1  -0.01028557  0.83308543  0.12636348  1
  In  In5  1  0.01027126  0.82408557  0.62724743  1
  In  In6  1  0.32882821  0.17305473  0.13299244  1
  In  In7  1  0.30109750  0.16077731  0.61451723  1
  In  In8  1  0.32214010  0.49421027  0.11298486  1
  In  In9  1  0.33608474  0.49313571  0.62093407  1
  In  In10  1  0.35942074  0.82898608  0.13064179  1
  In  In11  1  0.34125660  0.84147045  0.61949146  1
  In  In12  1  0.66793125  0.16928229  0.13535796  1
  In  In13  1  0.66856964  0.15149847  0.61507542  1
  In  In14  1  0.66949017  0.50453524  0.12724880  1
  In  In15  1  0.66986819  0.51228445  0.62620294  1
  In  In16  1  0.65369439  0.83530154  0.13942824  1
  In  In17  1  0.65518180  0.82922069  0.61885138  1
  In  In18  1  0.16652345  -0.00685755  0.38628190  1
  In  In19  1  0.16579937  0.00011797  0.87173289  1
  In  In20  1  0.15660273  0.32601177  0.36676627  1
  In  In21  1  0.14897117  0.34384535  0.88408176  1
  In  In22  1  0.16534693  0.67578448  0.37722087  1
  In  In23  1  0.15771342  0.66042644  0.87497840  1
  In  In24  1  0.48649111  -0.01497960  0.36185751  1
  In  In25  1  0.48603225  -0.00128685  0.87736112  1
  In  In26  1  0.50831125  0.34277195  0.36434183  1
  In  In27  1  0.50417839  0.34381749  0.88200314  1
  In  In28  1  0.50129410  0.66183567  0.37857164  1
  In  In29  1  0.50490895  0.66017068  0.88610317  1
  In  In30  1  0.83819644  0.01253367  0.37817581  1
  In  In31  1  0.84250926  -0.01467029  0.87078953  1
  In  In32  1  0.83243244  0.32903814  0.36922616  1
  In  In33  1  0.85399898  0.33704217  0.87299927  1
  In  In34  1  0.83267112  0.66828366  0.36832199  1
  In  In35  1  0.82549082  0.66713154  0.86819447  1
  In  In36  1  -0.00735116  0.16876672  0.38588605  1
  In  In37  1  0.00867348  0.17131575  0.87072472  1
  In  In38  1  0.00488220  0.50089914  0.36779064  1
  In  In39  1  0.00159549  0.49658139  0.87822341  1
  In  In40  1  0.01065529  0.83022940  0.37972129  1
  In  In41  1  -0.00095613  0.83252808  0.85660321  1
  In  In42  1  0.32095043  0.15816110  0.36816205  1
  In  In43  1  0.32282929  0.14536869  0.87157693  1
  In  In44  1  0.34744314  0.50629192  0.37086449  1
  In  In45  1  0.32935591  0.50592597  0.89235005  1
  In  In46  1  0.32701946  0.84003669  0.38055792  1
  In  In47  1  0.32915879  0.84554410  0.87786225  1
  In  In48  1  0.67485755  0.17101883  0.36736582  1
  In  In49  1  0.66032917  0.16997634  0.87669432  1
  In  In50  1  0.66121285  0.49485488  0.36645805  1
  In  In51  1  0.65824761  0.51704313  0.88727057  1
  In  In52  1  0.65185103  0.82200909  0.36264914  1
  In  In53  1  0.67333935  0.81753996  0.87641197  1
  In  In54  1  0.16827081  0.01406766  0.12133285  1
  In  In55  1  0.16785505  -0.00001241  0.62580411  1
  In  In56  1  0.16734262  0.33171788  0.12555524  1
  In  In57  1  0.16439793  0.32405763  0.62418390  1
  In  In58  1  0.17557838  0.65053605  0.12275481  1
  In  In59  1  0.14162105  0.67609681  0.62674557  1
  In  In60  1  0.50269645  -0.01104792  0.14009008  1
  In  In61  1  0.50490642  -0.01424705  0.62286585  1
  In  In62  1  0.49524974  0.34227315  0.13211885  1
  In  In63  1  0.48753907  0.33824061  0.61977609  1
  In  In64  1  0.50778549  0.68018661  0.11741619  1
  In  In65  1  0.50383141  0.66995457  0.61993141  1
  In  In66  1  0.82991142  -0.01095004  0.12613544  1
  In  In67  1  0.83185458  0.01312375  0.61772796  1
  In  In68  1  0.82587309  0.34381942  0.13190901  1
  In  In69  1  0.84711205  0.33114962  0.62578100  1
  In  In70  1  0.84379987  0.65772469  0.13225182  1
  In  In71  1  0.83838565  0.66885347  0.63779492  1
  In  In72  1  0.66906840  0.33638688  0.75163787  1
  In  In73  1  0.33469079  0.66479424  0.24510575  1
  In  In74  1  0.32653468  0.33051961  0.75060975  1
  In  In75  1  -0.00192280  0.00184777  0.25351511  1
  In  In76  1  0.17056914  0.82795431  -0.00524184  1
  In  In77  1  0.83921216  0.83587060  0.49993800  1
  In  In78  1  0.67565028  -0.00924601  0.74761241  1
  In  In79  1  0.16963230  0.50364555  0.50299637  1
  In  In80  1  0.83469360  0.17175101  -0.00867073  1
  In  In81  1  0.49055453  0.17367403  0.00662405  1
  In  In82  1  0.49946018  0.16614903  0.49012733  1
  In  In83  1  0.83259470  0.83043051  -0.00095821  1
  In  In84  1  0.83520249  0.49999424  0.50984111  1
  In  In85  1  0.32961879  0.66725136  0.76001982  1
  Cu  Cu86  1  -0.00011034  0.33052910  0.50052832  1
  Cu  Cu87  1  0.66844711  -0.00309615  0.49185674  1
  Cu  Cu88  1  0.65868954  -0.00294569  0.01162155  1
  Cu  Cu89  1  0.84254828  0.17020512  0.25168160  1
  Cu  Cu90  1  0.33459655  0.67432165  0.50019707  1
  Cu  Cu91  1  0.67055429  0.66799941  0.00529229  1
  Cu  Cu92  1  0.33498363  0.00180235  0.49735361  1
  Cu  Cu93  1  0.32662061  0.32365358  0.00509588  1
  Cu  Cu94  1  0.50232072  0.16701588  0.25233436  1
  Cu  Cu95  1  0.48780095  0.16307755  0.74708763  1
  Cu  Cu96  1  0.16688442  0.16971460  0.24929030  1
  Cu  Cu97  1  0.66357629  0.66239116  0.49695098  1
  Cu  Cu98  1  0.66880163  0.34859895  0.00580158  1
  Cu  Cu99  1  0.15989337  0.16205366  0.74719966  1
  Cu  Cu100  1  0.16518819  0.49484175  0.24282499  1
  Cu  Cu101  1  0.50184593  0.50724088  0.75752257  1
  Cu  Cu102  1  0.83814055  0.16471466  0.74755256  1
  Cu  Cu103  1  0.50135058  0.50216421  0.24527089  1
  Cu  Cu104  1  0.83495083  0.50066080  0.24968343  1
  Cu  Cu105  1  0.50435079  0.82965409  0.74634201  1
  Cu  Cu106  1  0.17334001  0.83629245  0.74836264  1
  Cu  Cu107  1  0.33296581  -0.00465526  0.00201264  1
  Cu  Cu108  1  0.33903924  0.34366566  0.49291645  1
  Cu  Cu109  1  0.00185303  0.33477588  0.00270230  1
  Cu  Cu110  1  0.66688253  0.33278091  0.48839268  1
  Cu  Cu111  1  0.16772748  0.83589612  0.25623065  1
  Cu  Cu112  1  -0.00129140  0.66253600  -0.00000569  1
  Cu  Cu113  1  0.83346794  0.50363021  0.75579775  1
  Cu  Cu114  1  0.82770854  0.82874091  0.24886412  1
  Se  Se115  1  0.07950242  0.07379670  0.04708792  1
  Se  Se116  1  0.11178667  0.10646601  0.56113631  1
  Se  Se117  1  0.08626750  0.41672582  0.05657774  1
  Se  Se118  1  0.07275977  0.41664396  0.56139911  1
  Se  Se119  1  0.07721916  0.74485977  0.06003131  1
  Se  Se120  1  0.09135245  0.76124592  0.54720874  1
  Se  Se121  1  0.41134607  0.07505247  0.06511405  1
  Se  Se122  1  0.41493361  0.08224059  0.55991843  1
  Se  Se123  1  0.41499702  0.40711789  0.05329874  1
  Se  Se124  1  0.42202679  0.42562731  0.54578795  1
  Se  Se125  1  0.40435829  0.73966625  0.05226477  1
  Se  Se126  1  0.42258846  0.75481434  0.55263276  1
  Se  Se127  1  0.74576277  0.08298250  0.05862103  1
  Se  Se128  1  0.75167688  0.08430600  0.54023783  1
  Se  Se129  1  0.75751827  0.42697295  0.05619842  1
  Se  Se130  1  0.73994811  0.40404671  0.56178077  1
  Se  Se131  1  0.74707137  0.74959722  0.06811353  1
  Se  Se132  1  0.74853341  0.73801611  0.55712498  1
  Se  Se133  1  0.24444088  0.23985332  0.05686376  1
  Se  Se134  1  0.25181147  0.26472532  0.54602368  1
  Se  Se135  1  0.24824782  0.58238600  0.04400022  1
  Se  Se136  1  0.25559095  0.59694508  0.56447230  1
  Se  Se137  1  0.25462885  0.91366238  0.06323425  1
  Se  Se138  1  0.25231946  0.92012249  0.55378239  1
  Se  Se139  1  0.59259321  0.25787950  0.06020734  1
  Se  Se140  1  0.58763356  0.25637019  0.55563070  1
  Se  Se141  1  0.58586898  0.58406565  0.05643954  1
  Se  Se142  1  0.58261415  0.57889326  0.55300123  1
  Se  Se143  1  0.57782497  0.91272658  0.06254034  1
  Se  Se144  1  0.58438323  0.91574694  0.54613263  1
  Se  Se145  1  0.91785873  0.25482370  0.06147951  1
  Se  Se146  1  0.91627298  0.24587202  0.55315250  1
  Se  Se147  1  0.91558234  0.58115833  0.05474232  1
  Se  Se148  1  0.92713515  0.59243708  0.56310051  1
  Se  Se149  1  0.92564889  0.92715709  0.05229288  1
  Se  Se150  1  0.92653965  0.92217153  0.56219957  1
  Se  Se151  1  0.08688090  0.25196871  0.44675708  1
  Se  Se152  1  0.08119955  0.24515888  0.95046533  1
  Se  Se153  1  0.07572808  0.58885090  0.44379382  1
  Se  Se154  1  0.08453093  0.57903204  0.94918674  1
  Se  Se155  1  0.07080373  0.92325467  0.45042986  1
  Se  Se156  1  0.07451089  0.91231143  0.93639229  1
  Se  Se157  1  0.41138997  0.25822696  0.43119406  1
  Se  Se158  1  0.40351592  0.25196301  0.93516053  1
  Se  Se159  1  0.41446317  0.58531401  0.44919926  1
  Se  Se160  1  0.42682496  0.57556193  0.95363597  1
  Se  Se161  1  0.41992068  0.91760589  0.44669579  1
  Se  Se162  1  0.41926499  0.91245097  0.95156301  1
  Se  Se163  1  0.75397501  0.24844661  0.44238277  1
  Se  Se164  1  0.73929530  0.26814799  0.93849403  1
  Se  Se165  1  0.74783991  0.58206881  0.44061612  1
  Se  Se166  1  0.75722025  0.59101584  0.94895806  1
  Se  Se167  1  0.74593647  0.91272582  0.43290231  1
  Se  Se168  1  0.73976739  0.92695766  0.94377334  1
  Se  Se169  1  0.24953910  0.08672566  0.44835033  1
  Se  Se170  1  0.24573358  0.07505487  0.94918387  1
  Se  Se171  1  0.25179700  0.41835992  0.43340386  1
  Se  Se172  1  0.24726672  0.41044318  0.95048401  1
  Se  Se173  1  0.24683054  0.75352886  0.44825758  1
  Se  Se174  1  0.26080425  0.73650590  0.93712117  1
  Se  Se175  1  0.58708048  0.07594611  0.43071164  1
  Se  Se176  1  0.58390614  0.07947626  0.94725665  1
  Se  Se177  1  0.58214384  0.41935546  0.44224020  1
  Se  Se178  1  0.57939450  0.42591299  0.95299870  1
  Se  Se179  1  0.58341072  0.74992528  0.44526768  1
  Se  Se180  1  0.58767835  0.75124661  0.95054304  1
  Se  Se181  1  0.92953982  0.06908218  0.45155722  1
  Se  Se182  1  0.92234763  0.07603893  0.93741687  1
  Se  Se183  1  0.92152015  0.41474913  0.44201301  1
  Se  Se184  1  0.91662811  0.41811828  0.95115884  1
  Se  Se185  1  0.92238642  0.73711194  0.44301663  1
  Se  Se186  1  0.92632979  0.74659557  0.93794106  1
  Se  Se187  1  0.25228566  0.25438902  0.30072251  1
  Se  Se188  1  0.23737251  0.24233534  0.81200852  1
  Se  Se189  1  0.24080818  0.57711353  0.30724984  1
  Se  Se190  1  0.24345119  0.56607497  0.81042710  1
  Se  Se191  1  0.24684338  0.92180575  0.30922641  1
  Se  Se192  1  0.25368253  0.92112087  0.80245304  1
  Se  Se193  1  0.58870757  0.25248123  0.30061663  1
  Se  Se194  1  0.56711323  0.24486534  0.80575406  1
  Se  Se195  1  0.57967056  0.58559949  0.30303397  1
  Se  Se196  1  0.58603271  0.59097411  0.80789104  1
  Se  Se197  1  0.59201369  0.92619292  0.29982528  1
  Se  Se198  1  0.57946507  0.91210689  0.81135502  1
  Se  Se199  1  0.92667067  0.24949065  0.30671513  1
  Se  Se200  1  0.92001988  0.24841177  0.80101445  1
  Se  Se201  1  0.91839604  0.58426457  0.30304126  1
  Se  Se202  1  0.91950757  0.58337809  0.80947008  1
  Se  Se203  1  0.90933692  0.90685466  0.31136939  1
  Se  Se204  1  0.91131314  0.91390374  0.79219012  1
  Se  Se205  1  0.08921600  0.08954089  0.31287708  1
  Se  Se206  1  0.07850990  0.07721499  0.80216881  1
  Se  Se207  1  0.08051433  0.41461786  0.29830502  1
  Se  Se208  1  0.07390183  0.40953306  0.80566019  1
  Se  Se209  1  0.08258417  0.74958377  0.30315134  1
  Se  Se210  1  0.09336583  0.74769145  0.79995121  1
  Se  Se211  1  0.41378735  0.08523000  0.30146681  1
  Se  Se212  1  0.41205075  0.07503319  0.80055515  1
  Se  Se213  1  0.41586123  0.41961893  0.29784084  1
  Se  Se214  1  0.41772654  0.42373608  0.81110066  1
  Se  Se215  1  0.41475656  0.75258078  0.31242999  1
  Se  Se216  1  0.42564922  0.75786949  0.81381688  1
  Se  Se217  1  0.75875822  0.08383630  0.30155665  1
  Se  Se218  1  0.75460881  0.09151442  0.81063694  1
  Se  Se219  1  0.75190713  0.41533521  0.30244153  1
  Se  Se220  1  0.75125568  0.42530579  0.81669090  1
  Se  Se221  1  0.74437450  0.74236021  0.29945221  1
  Se  Se222  1  0.76131297  0.76433696  0.80033807  1
  Se  Se223  1  0.24834914  0.08235297  0.19846986  1
  Se  Se224  1  0.25137731  0.08191981  0.69898047  1
  Se  Se225  1  0.25432959  0.41527271  0.19235686  1
  Se  Se226  1  0.24092775  0.42378006  0.69042585  1
  Se  Se227  1  0.24186575  0.75837889  0.18839720  1
  Se  Se228  1  0.25223038  0.75379177  0.68843264  1
  Se  Se229  1  0.58596836  0.08290083  0.19982116  1
  Se  Se230  1  0.57892013  0.08645497  0.69280151  1
  Se  Se231  1  0.58943696  0.41714118  0.19639637  1
  Se  Se232  1  0.57232354  0.42254972  0.69293006  1
  Se  Se233  1  0.56783275  0.75010091  0.20197665  1
  Se  Se234  1  0.58584895  0.74513334  0.69424897  1
  Se  Se235  1  0.91422605  0.09004871  0.18540023  1
  Se  Se236  1  0.91742221  0.08182900  0.69172594  1
  Se  Se237  1  0.92043286  0.41834711  0.19654176  1
  Se  Se238  1  0.91120688  0.41633656  0.70130565  1
  Se  Se239  1  0.91947462  0.74997737  0.19987028  1
  Se  Se240  1  0.93131872  0.74450072  0.69927031  1
  Se  Se241  1  0.08190322  0.25061875  0.19591676  1
  Se  Se242  1  0.07983931  0.25091564  0.69607090  1
  Se  Se243  1  0.08430810  0.58522557  0.19424109  1
  Se  Se244  1  0.09520886  0.58038813  0.70110451  1
  Se  Se245  1  0.08845565  0.91369201  0.19097520  1
  Se  Se246  1  0.08693168  0.91612425  0.69461171  1
  Se  Se247  1  0.41925673  0.25093645  0.19817610  1
  Se  Se248  1  0.41160900  0.24060799  0.68405493  1
  Se  Se249  1  0.41942366  0.57551926  0.18168417  1
  Se  Se250  1  0.41834768  0.57982741  0.69369062  1
  Se  Se251  1  0.40145651  0.92628033  0.20483097  1
  Se  Se252  1  0.42053832  0.91587409  0.69667966  1
  Se  Se253  1  0.75373719  0.25206727  0.20028480  1
  Se  Se254  1  0.74951489  0.23849060  0.68905553  1
  Se  Se255  1  0.74987227  0.58597539  0.19904793  1
  Se  Se256  1  0.74890528  0.58442838  0.70090321  1
  Se  Se257  1  0.74780663  0.91865650  0.19960029  1
  Se  Se258  1  0.75769552  0.90692510  0.67961076  1
