# generated using pymatgen
data_In86Cu29Se144
_symmetry_space_group_name_H-M   'P 1'
_cell_length_a   17.56773292
_cell_length_b   17.56930245
_cell_length_c   23.42787728
_cell_angle_alpha   90.01337514
_cell_angle_beta   90.00186355
_cell_angle_gamma   89.97781102
_symmetry_Int_Tables_number   1
_chemical_formula_structural   In86Cu29Se144
_chemical_formula_sum   'In86 Cu29 Se144'
_cell_volume   7231.07948345
_cell_formula_units_Z   1
loop_
 _symmetry_equiv_pos_site_id
 _symmetry_equiv_pos_as_xyz
  1  'x, y, z'
loop_
 _atom_site_type_symbol
 _atom_site_label
 _atom_site_symmetry_multiplicity
 _atom_site_fract_x
 _atom_site_fract_y
 _atom_site_fract_z
 _atom_site_occupancy
  In  In0  1  0.01668594  0.17677774  0.10938428  1
  In  In1  1  0.01332379  0.15752952  0.63755099  1
  In  In2  1  0.00575057  0.48352829  0.12285845  1
  In  In3  1  -0.00053909  0.50133574  0.63328933  1
  In  In4  1  0.01574849  0.85967570  0.09010279  1
  In  In5  1  0.01150777  0.82871025  0.63024337  1
  In  In6  1  0.32814280  0.16694693  0.12267737  1
  In  In7  1  0.32193929  0.17995399  0.63391777  1
  In  In8  1  0.32955212  0.50674596  0.13728819  1
  In  In9  1  0.34485728  0.49536402  0.63294611  1
  In  In10  1  0.33121295  0.84023240  0.13150214  1
  In  In11  1  0.33236415  0.83213920  0.63046562  1
  In  In12  1  0.66957934  0.18425907  0.12358184  1
  In  In13  1  0.67142283  0.16413397  0.62720311  1
  In  In14  1  0.65638342  0.49058801  0.12473269  1
  In  In15  1  0.66978577  0.50842634  0.62324352  1
  In  In16  1  0.67373124  0.82753755  0.11941751  1
  In  In17  1  0.64832486  0.82610764  0.62222901  1
  In  In18  1  0.17886306  -0.00422535  0.38434323  1
  In  In19  1  0.16242290  -0.00341403  0.87769530  1
  In  In20  1  0.15912256  0.32410221  0.37036636  1
  In  In21  1  0.16785960  0.33011961  0.88298405  1
  In  In22  1  0.18248226  0.66231324  0.37841511  1
  In  In23  1  0.16597575  0.66623443  0.87426318  1
  In  In24  1  0.47704565  0.00281106  0.37613786  1
  In  In25  1  0.50566148  0.01733837  0.88158360  1
  In  In26  1  0.50904259  0.34982495  0.35944106  1
  In  In27  1  0.48116848  0.33296760  0.87408081  1
  In  In28  1  0.49212875  0.67467502  0.38789132  1
  In  In29  1  0.49188710  0.64672106  0.85316449  1
  In  In30  1  0.84606570  0.00185866  0.37466445  1
  In  In31  1  0.83592390  -0.02024294  0.88263132  1
  In  In32  1  0.84480070  0.34712859  0.36867769  1
  In  In33  1  0.84749903  0.33115446  0.87248895  1
  In  In34  1  0.82009719  0.65971023  0.37786275  1
  In  In35  1  0.85494131  0.67660685  0.85210393  1
  In  In36  1  0.00979667  0.18926292  0.37502379  1
  In  In37  1  0.02133547  0.17931591  0.87195390  1
  In  In38  1  0.00122744  0.47607164  0.38786547  1
  In  In39  1  0.00824972  0.50505336  0.86548840  1
  In  In40  1  0.00871227  0.84905980  0.37671996  1
  In  In41  1  0.00331921  0.83331742  0.87649836  1
  In  In42  1  0.32454403  0.16374092  0.36993307  1
  In  In43  1  0.32963205  0.16292639  0.87951810  1
  In  In44  1  0.34127398  0.51172213  0.36510216  1
  In  In45  1  0.32367069  0.48140163  0.85686077  1
  In  In46  1  0.33139751  0.83379863  0.37892309  1
  In  In47  1  0.31941638  0.82372831  0.87061691  1
  In  In48  1  0.64981206  0.17495530  0.37318030  1
  In  In49  1  0.66100966  0.14756035  0.88538063  1
  In  In50  1  0.67433316  0.49493976  0.38642187  1
  In  In51  1  0.65731329  0.50656416  0.86688114  1
  In  In52  1  0.66488160  0.80911595  0.37459505  1
  In  In53  1  0.67965093  0.83146413  0.87891736  1
  In  In54  1  0.17429869  0.00944479  0.10890107  1
  In  In55  1  0.17241728  -0.00066570  0.63191760  1
  In  In56  1  0.16483022  0.33463072  0.12110856  1
  In  In57  1  0.17271378  0.33103092  0.62737156  1
  In  In58  1  0.17494844  0.67485288  0.11894531  1
  In  In59  1  0.15656168  0.67579735  0.63185064  1
  In  In60  1  0.47947424  -0.00411334  0.12428109  1
  In  In61  1  0.49893636  -0.01672285  0.62546499  1
  In  In62  1  0.50331299  0.33490881  0.13480284  1
  In  In63  1  0.48212408  0.32946207  0.62241675  1
  In  In64  1  0.49008714  0.65419504  0.12504141  1
  In  In65  1  0.49562800  0.66671604  0.63017847  1
  In  In66  1  0.85435925  0.00300692  0.11094228  1
  In  In67  1  0.84317320  0.00883285  0.63261877  1
  In  In68  1  0.83362166  0.33327900  0.13224375  1
  In  In69  1  0.84054174  0.35109166  0.62421619  1
  In  In70  1  0.82812655  0.67975096  0.11582644  1
  In  In71  1  0.84300125  0.64227880  0.64532347  1
  In  In72  1  0.66082910  0.65788656  0.24387821  1
  In  In73  1  0.48826022  0.16750178  0.49648864  1
  In  In74  1  0.83509533  0.17272384  0.50270264  1
  In  In75  1  0.66603460  -0.00557219  0.75175770  1
  In  In76  1  0.83440694  0.16507351  -0.00301521  1
  In  In77  1  0.49378594  0.49898717  0.00193235  1
  In  In78  1  0.66928253  0.32957945  0.74869956  1
  In  In79  1  0.50258701  0.83804279  -0.00319442  1
  In  In80  1  0.83540693  0.82170433  0.50759241  1
  In  In81  1  0.01383867  0.01419317  0.23066595  1
  In  In82  1  0.17021956  0.50195357  0.50410318  1
  In  In83  1  -0.00362104  0.66659127  0.24811511  1
  In  In84  1  0.84025311  0.50768247  -0.01344862  1
  In  In85  1  0.66036220  0.00416674  0.25024262  1
  Cu  Cu86  1  0.83510187  0.49651303  0.25344535  1
  Cu  Cu87  1  0.16525227  0.16498580  0.24252703  1
  Cu  Cu88  1  0.17551325  0.82866218  0.24962497  1
  Cu  Cu89  1  0.00032513  0.66593245  -0.01042596  1
  Cu  Cu90  1  0.17114091  0.49755892  0.74941134  1
  Cu  Cu91  1  0.33542738  0.67216345  0.50465974  1
  Cu  Cu92  1  0.49250062  0.83356519  0.75173576  1
  Cu  Cu93  1  0.83576417  0.83046622  0.74997307  1
  Cu  Cu94  1  0.16316320  0.49447403  0.25241319  1
  Cu  Cu95  1  0.66748652  -0.01589592  0.49696279  1
  Cu  Cu96  1  0.32819311  0.32703566  -0.00107255  1
  Cu  Cu97  1  0.32973489  -0.00267199  0.50557646  1
  Cu  Cu98  1  0.49260246  0.83168992  0.25586041  1
  Cu  Cu99  1  0.32772312  0.00011420  -0.00104117  1
  Cu  Cu100  1  0.84731851  0.16285633  0.75746056  1
  Cu  Cu101  1  0.66188318  0.66048321  0.50559522  1
  Cu  Cu102  1  0.01706522  0.00178194  0.50640729  1
  Cu  Cu103  1  0.66482983  0.33410576  0.00327415  1
  Cu  Cu104  1  0.17469088  0.16909855  0.75562209  1
  Cu  Cu105  1  0.32834095  0.33796743  0.49686094  1
  Cu  Cu106  1  0.82738508  0.17968227  0.25023912  1
  Cu  Cu107  1  -0.00497582  0.66472293  0.50927172  1
  Cu  Cu108  1  0.66850954  0.67600361  -0.01003339  1
  Cu  Cu109  1  0.49177637  0.16921493  0.24897327  1
  Cu  Cu110  1  0.66324381  0.33960689  0.50025524  1
  Cu  Cu111  1  0.49299300  0.16899839  0.75468525  1
  Cu  Cu112  1  0.84264928  0.83920135  0.23654915  1
  Cu  Cu113  1  0.32984181  0.66324113  -0.00218855  1
  Cu  Cu114  1  0.16227400  0.83708095  0.75361536  1
  Se  Se115  1  0.04825719  0.04943612  0.06028082  1
  Se  Se116  1  0.09445557  0.08755320  0.56072384  1
  Se  Se117  1  0.09162576  0.42133555  0.04875968  1
  Se  Se118  1  0.07915276  0.41289464  0.56137105  1
  Se  Se119  1  0.08549654  0.74439875  0.04667783  1
  Se  Se120  1  0.08320896  0.75094003  0.55259583  1
  Se  Se121  1  0.41096998  0.08301526  0.05203379  1
  Se  Se122  1  0.40951134  0.07991762  0.56588552  1
  Se  Se123  1  0.40570049  0.40909160  0.06199535  1
  Se  Se124  1  0.41273288  0.41822774  0.55110684  1
  Se  Se125  1  0.41258488  0.74385918  0.05612273  1
  Se  Se126  1  0.41835668  0.75434220  0.55957078  1
  Se  Se127  1  0.74274643  0.08158690  0.06127466  1
  Se  Se128  1  0.74409553  0.06876877  0.55614310  1
  Se  Se129  1  0.75097740  0.41752808  0.05482928  1
  Se  Se130  1  0.74735395  0.41838422  0.55557276  1
  Se  Se131  1  0.75315817  0.76006063  0.04074630  1
  Se  Se132  1  0.74666135  0.73463162  0.56881891  1
  Se  Se133  1  0.24299323  0.24468845  0.05203678  1
  Se  Se134  1  0.25225935  0.25209133  0.55251555  1
  Se  Se135  1  0.25475190  0.57902395  0.05783216  1
  Se  Se136  1  0.25555280  0.59158244  0.56682039  1
  Se  Se137  1  0.25324531  0.90849723  0.05260508  1
  Se  Se138  1  0.24834500  0.91402035  0.55999807  1
  Se  Se139  1  0.57686982  0.25716035  0.05651830  1
  Se  Se140  1  0.58841214  0.25047059  0.55764637  1
  Se  Se141  1  0.59440365  0.59404443  0.05328248  1
  Se  Se142  1  0.57385885  0.58116394  0.55808025  1
  Se  Se143  1  0.58701290  0.92486121  0.06323342  1
  Se  Se144  1  0.57650851  0.90976036  0.54853667  1
  Se  Se145  1  0.91803283  0.26497215  0.05391169  1
  Se  Se146  1  0.92531314  0.24908934  0.56909538  1
  Se  Se147  1  0.92406331  0.59080742  0.05830822  1
  Se  Se148  1  0.91489313  0.57949562  0.56057888  1
  Se  Se149  1  0.89510907  0.90319616  0.03744035  1
  Se  Se150  1  0.92347311  0.92477044  0.55912437  1
  Se  Se151  1  0.08433466  0.25872384  0.45259687  1
  Se  Se152  1  0.09312028  0.24308869  0.95429550  1
  Se  Se153  1  0.07522296  0.59038287  0.44188189  1
  Se  Se154  1  0.08464417  0.57933996  0.94234321  1
  Se  Se155  1  0.09354304  0.91279306  0.45234236  1
  Se  Se156  1  0.09004584  0.90607523  0.94708987  1
  Se  Se157  1  0.41046264  0.26109866  0.43341729  1
  Se  Se158  1  0.41687300  0.24605025  0.94827807  1
  Se  Se159  1  0.40881190  0.58177254  0.44881743  1
  Se  Se160  1  0.40941665  0.58553103  0.93640350  1
  Se  Se161  1  0.41437390  0.91590447  0.45086392  1
  Se  Se162  1  0.40739432  0.92087147  0.93611637  1
  Se  Se163  1  0.74081138  0.25628098  0.43917276  1
  Se  Se164  1  0.74263622  0.25905772  0.93819729  1
  Se  Se165  1  0.75301662  0.58078986  0.45607519  1
  Se  Se166  1  0.74565676  0.59465091  0.93006561  1
  Se  Se167  1  0.75334425  0.91182048  0.43650398  1
  Se  Se168  1  0.71858524  0.94391106  0.94252189  1
  Se  Se169  1  0.25513737  0.08763458  0.45056035  1
  Se  Se170  1  0.24252703  0.08336802  0.94764894  1
  Se  Se171  1  0.25172540  0.41813766  0.43435584  1
  Se  Se172  1  0.25798316  0.42016752  0.94407139  1
  Se  Se173  1  0.24886981  0.75148586  0.45029876  1
  Se  Se174  1  0.24538410  0.74849353  0.94787718  1
  Se  Se175  1  0.58651682  0.07278851  0.44269585  1
  Se  Se176  1  0.57609079  0.08729997  0.96199102  1
  Se  Se177  1  0.57478776  0.41615253  0.44572864  1
  Se  Se178  1  0.58736598  0.41341653  0.94025166  1
  Se  Se179  1  0.58382572  0.75130232  0.45522377  1
  Se  Se180  1  0.57617049  0.74055588  0.93082559  1
  Se  Se181  1  0.93221332  0.08044228  0.44524975  1
  Se  Se182  1  0.92250076  0.08404618  0.93177926  1
  Se  Se183  1  0.90792064  0.40984778  0.45524323  1
  Se  Se184  1  0.93452059  0.40996238  0.94181499  1
  Se  Se185  1  0.92495238  0.74331151  0.43668801  1
  Se  Se186  1  0.91190505  0.74630890  0.93916215  1
  Se  Se187  1  0.24514389  0.24804886  0.30023984  1
  Se  Se188  1  0.25485828  0.25360068  0.81089691  1
  Se  Se189  1  0.24627384  0.58548129  0.29807374  1
  Se  Se190  1  0.25002912  0.58648220  0.80253475  1
  Se  Se191  1  0.24963965  0.91615569  0.30717333  1
  Se  Se192  1  0.24859350  0.91981360  0.80529980  1
  Se  Se193  1  0.58230899  0.25198550  0.29522392  1
  Se  Se194  1  0.58208979  0.24006247  0.81411931  1
  Se  Se195  1  0.58362573  0.58539012  0.32127390  1
  Se  Se196  1  0.59380896  0.58503722  0.78802852  1
  Se  Se197  1  0.57887335  0.90851216  0.31512856  1
  Se  Se198  1  0.57399847  0.91033400  0.81457751  1
  Se  Se199  1  0.91949191  0.25420848  0.30222223  1
  Se  Se200  1  0.93001804  0.25330159  0.80228516  1
  Se  Se201  1  0.91341831  0.57634948  0.31461607  1
  Se  Se202  1  0.91060498  0.56601200  0.79607908  1
  Se  Se203  1  0.92248395  0.92019524  0.29641955  1
  Se  Se204  1  0.91669878  0.91330178  0.80510058  1
  Se  Se205  1  0.08989383  0.08734407  0.31106981  1
  Se  Se206  1  0.08836117  0.08298760  0.80408355  1
  Se  Se207  1  0.07724488  0.41480816  0.30505692  1
  Se  Se208  1  0.09331847  0.41251932  0.80666415  1
  Se  Se209  1  0.08932050  0.75562892  0.31032761  1
  Se  Se210  1  0.08099318  0.74843499  0.80539404  1
  Se  Se211  1  0.40921667  0.08288526  0.29956715  1
  Se  Se212  1  0.41560374  0.08156263  0.80883153  1
  Se  Se213  1  0.39633222  0.40326931  0.30342590  1
  Se  Se214  1  0.44084392  0.43297889  0.80139627  1
  Se  Se215  1  0.41337524  0.74716594  0.31068141  1
  Se  Se216  1  0.40926557  0.74809303  0.80208091  1
  Se  Se217  1  0.75661209  0.09233348  0.31118670  1
  Se  Se218  1  0.75658757  0.08521410  0.81047541  1
  Se  Se219  1  0.74500181  0.41901728  0.30601901  1
  Se  Se220  1  0.75666878  0.41826531  0.81040056  1
  Se  Se221  1  0.76269943  0.75411925  0.29637226  1
  Se  Se222  1  0.74594282  0.75104265  0.80074929  1
  Se  Se223  1  0.24561121  0.07809887  0.19020785  1
  Se  Se224  1  0.25520358  0.08342989  0.70112564  1
  Se  Se225  1  0.24535554  0.41279793  0.19544572  1
  Se  Se226  1  0.25466122  0.41368422  0.69661501  1
  Se  Se227  1  0.25695871  0.74409297  0.19616492  1
  Se  Se228  1  0.24526979  0.75331691  0.69967555  1
  Se  Se229  1  0.57356954  0.09097361  0.18602115  1
  Se  Se230  1  0.57421059  0.08929078  0.69319114  1
  Se  Se231  1  0.57320201  0.43131679  0.20127977  1
  Se  Se232  1  0.58067954  0.41058714  0.68338385  1
  Se  Se233  1  0.57298906  0.75927239  0.18874385  1
  Se  Se234  1  0.57954387  0.75145053  0.70070722  1
  Se  Se235  1  0.90762358  0.10338472  0.18538838  1
  Se  Se236  1  0.92841616  0.07484733  0.70658922  1
  Se  Se237  1  0.91938264  0.41654399  0.19785211  1
  Se  Se238  1  0.91762952  0.41726994  0.70188231  1
  Se  Se239  1  0.92464626  0.76097780  0.17858308  1
  Se  Se240  1  0.92040718  0.74899006  0.69551715  1
  Se  Se241  1  0.08128747  0.24985819  0.19192645  1
  Se  Se242  1  0.09137528  0.25184284  0.70026426  1
  Se  Se243  1  0.08859119  0.57890469  0.18877080  1
  Se  Se244  1  0.08524954  0.58326696  0.69995551  1
  Se  Se245  1  0.09473246  0.90464096  0.18327503  1
  Se  Se246  1  0.08075081  0.92147115  0.69884024  1
  Se  Se247  1  0.40926976  0.25019104  0.19296371  1
  Se  Se248  1  0.41259736  0.25539592  0.70250296  1
  Se  Se249  1  0.43070400  0.57257838  0.20215385  1
  Se  Se250  1  0.40922463  0.59090878  0.70017812  1
  Se  Se251  1  0.41214144  0.91955963  0.20407170  1
  Se  Se252  1  0.41198551  0.92086561  0.70054720  1
  Se  Se253  1  0.73989618  0.26310840  0.20093576  1
  Se  Se254  1  0.76712382  0.23836354  0.69253966  1
  Se  Se255  1  0.76255050  0.57569027  0.18460519  1
  Se  Se256  1  0.73415712  0.58399945  0.70514734  1
  Se  Se257  1  0.75608226  0.92185823  0.18578111  1
  Se  Se258  1  0.75452109  0.90675605  0.68605003  1
