# generated using pymatgen
data_In86Cu29Se144
_symmetry_space_group_name_H-M   'P 1'
_cell_length_a   17.58315020
_cell_length_b   17.58259816
_cell_length_c   23.43490424
_cell_angle_alpha   90.02799948
_cell_angle_beta   90.01558703
_cell_angle_gamma   90.00328671
_symmetry_Int_Tables_number   1
_chemical_formula_structural   In86Cu29Se144
_chemical_formula_sum   'In86 Cu29 Se144'
_cell_volume   7245.07442990
_cell_formula_units_Z   1
loop_
 _symmetry_equiv_pos_site_id
 _symmetry_equiv_pos_as_xyz
  1  'x, y, z'
loop_
 _atom_site_type_symbol
 _atom_site_label
 _atom_site_symmetry_multiplicity
 _atom_site_fract_x
 _atom_site_fract_y
 _atom_site_fract_z
 _atom_site_occupancy
  In  In0  1  0.00048936  0.15573865  0.12572379  1
  In  In1  1  0.01428213  0.18166228  0.61326644  1
  In  In2  1  0.02008175  0.51209189  0.13726634  1
  In  In3  1  -0.00557333  0.50152673  0.62114798  1
  In  In4  1  0.00378468  0.83266894  0.12748626  1
  In  In5  1  -0.00308586  0.81485106  0.62148172  1
  In  In6  1  0.33987909  0.17509151  0.11307987  1
  In  In7  1  0.33085389  0.17083963  0.61876222  1
  In  In8  1  0.33087808  0.48198527  0.13620067  1
  In  In9  1  0.31393145  0.47244454  0.60124547  1
  In  In10  1  0.32735155  0.84879708  0.12223943  1
  In  In11  1  0.32683261  0.84459754  0.62895645  1
  In  In12  1  0.66076152  0.16870092  0.13324385  1
  In  In13  1  0.67847339  0.18040725  0.61407581  1
  In  In14  1  0.65728998  0.48172805  0.13408716  1
  In  In15  1  0.66616895  0.49628012  0.61985516  1
  In  In16  1  0.68444139  0.82794101  0.13109991  1
  In  In17  1  0.65426261  0.82645565  0.62520134  1
  In  In18  1  0.16104223  0.01225574  0.37612143  1
  In  In19  1  0.17273623  -0.00614035  0.87456318  1
  In  In20  1  0.17526653  0.33218541  0.38752130  1
  In  In21  1  0.16840186  0.32962424  0.86856150  1
  In  In22  1  0.15870024  0.67477450  0.39259146  1
  In  In23  1  0.16233819  0.67400663  0.87437188  1
  In  In24  1  0.51463969  0.00967050  0.36632613  1
  In  In25  1  0.50025801  0.02182844  0.87760607  1
  In  In26  1  0.49385049  0.33610215  0.37827042  1
  In  In27  1  0.48859743  0.31453097  0.85801686  1
  In  In28  1  0.49571652  0.66259080  0.37789068  1
  In  In29  1  0.50096761  0.65036042  0.87198589  1
  In  In30  1  0.84402870  0.00545083  0.36241369  1
  In  In31  1  0.82306814  -0.00556750  0.88057588  1
  In  In32  1  0.82434233  0.34466731  0.38179695  1
  In  In33  1  0.83463471  0.33666095  0.86250738  1
  In  In34  1  0.83804156  0.65971112  0.37745924  1
  In  In35  1  0.84286378  0.67350081  0.86917332  1
  In  In36  1  0.00635915  0.16055987  0.37885355  1
  In  In37  1  0.00267766  0.18241178  0.87080159  1
  In  In38  1  -0.00151264  0.51049790  0.38797593  1
  In  In39  1  0.00497323  0.50049339  0.86111477  1
  In  In40  1  0.00311033  0.84344794  0.36362139  1
  In  In41  1  0.00742752  0.82666913  0.87834682  1
  In  In42  1  0.32265907  0.18950665  0.39058728  1
  In  In43  1  0.33627997  0.16894511  0.87030121  1
  In  In44  1  0.34569256  0.48085662  0.39682909  1
  In  In45  1  0.34046611  0.48748506  0.87095420  1
  In  In46  1  0.33261607  0.82295658  0.37422163  1
  In  In47  1  0.31262484  0.83182691  0.87541248  1
  In  In48  1  0.66202830  0.17375152  0.37789012  1
  In  In49  1  0.65863651  0.16584673  0.87287473  1
  In  In50  1  0.67307562  0.49591790  0.37790528  1
  In  In51  1  0.65772049  0.49405999  0.86380679  1
  In  In52  1  0.66755758  0.84020518  0.36334507  1
  In  In53  1  0.68001615  0.83850833  0.88011448  1
  In  In54  1  0.16343719  -0.00293115  0.11935172  1
  In  In55  1  0.17185710  0.01039894  0.61598391  1
  In  In56  1  0.18656978  0.32976051  0.13137960  1
  In  In57  1  0.16614863  0.33070056  0.62375150  1
  In  In58  1  0.14668029  0.66368694  0.13065022  1
  In  In59  1  0.14511043  0.65103004  0.60697416  1
  In  In60  1  0.49199797  0.01548071  0.13035835  1
  In  In61  1  0.48238206  0.00103487  0.62683971  1
  In  In62  1  0.50524922  0.32530496  0.13364715  1
  In  In63  1  0.49741472  0.33425436  0.61874520  1
  In  In64  1  0.50130710  0.65661237  0.12766748  1
  In  In65  1  0.51257009  0.65875035  0.62811122  1
  In  In66  1  0.85188385  -0.02182993  0.14883947  1
  In  In67  1  0.82226580  0.00657605  0.62316922  1
  In  In68  1  0.83022144  0.32130661  0.13042161  1
  In  In69  1  0.83415990  0.33669297  0.62148436  1
  In  In70  1  0.83904369  0.68321317  0.13030803  1
  In  In71  1  0.85024131  0.64764136  0.63171576  1
  In  In72  1  0.17065449  0.49781553  0.00011637  1
  In  In73  1  0.49891158  0.49375945  0.00542108  1
  In  In74  1  0.83141065  0.15891453  0.00162227  1
  In  In75  1  0.50087892  0.83970364  0.00363221  1
  In  In76  1  0.00225173  -0.00129863  0.74869321  1
  In  In77  1  0.83518690  0.50368779  -0.00230322  1
  In  In78  1  0.83351776  0.83376407  0.49567424  1
  In  In79  1  -0.00011392  0.33855876  0.26399299  1
  In  In80  1  0.49757121  0.83618731  0.49595919  1
  In  In81  1  0.33392863  0.00605243  0.24449383  1
  In  In82  1  0.67364750  0.66362309  0.25505230  1
  In  In83  1  0.33152099  0.65933437  0.74612295  1
  In  In84  1  0.66153873  0.00012557  0.75477765  1
  In  In85  1  0.32588984  0.65715790  0.25950258  1
  Cu  Cu86  1  0.67091695  0.00185220  0.00765864  1
  Cu  Cu87  1  0.83962001  0.17411371  0.74224892  1
  Cu  Cu88  1  0.16088541  0.82734754  0.74866750  1
  Cu  Cu89  1  0.82020647  0.16757047  0.25410158  1
  Cu  Cu90  1  0.17510193  0.16897780  0.74179971  1
  Cu  Cu91  1  0.50176576  0.16866545  0.74377430  1
  Cu  Cu92  1  0.32267179  0.66907944  0.00362855  1
  Cu  Cu93  1  0.49993537  0.49497379  0.73937248  1
  Cu  Cu94  1  0.67413065  0.66348812  0.50036125  1
  Cu  Cu95  1  0.66027193  0.32614658  0.00186146  1
  Cu  Cu96  1  0.32909084  0.00557306  -0.00380479  1
  Cu  Cu97  1  0.49629014  0.83042871  0.74947332  1
  Cu  Cu98  1  -0.00149165  -0.00179746  0.49315677  1
  Cu  Cu99  1  0.16571536  0.83323782  0.24966347  1
  Cu  Cu100  1  0.00072320  -0.00412700  0.00410152  1
  Cu  Cu101  1  0.00938756  0.33508872  -0.00407294  1
  Cu  Cu102  1  0.16658301  0.49571615  0.73801571  1
  Cu  Cu103  1  0.83610675  0.49974668  0.25607092  1
  Cu  Cu104  1  0.82735175  0.49907422  0.74309800  1
  Cu  Cu105  1  -0.00277599  0.33423752  0.50050541  1
  Cu  Cu106  1  0.66596273  0.01117861  0.49589993  1
  Cu  Cu107  1  -0.00385634  0.67637765  0.00229735  1
  Cu  Cu108  1  0.66500315  0.33516021  0.49898513  1
  Cu  Cu109  1  0.33701790  0.67005653  0.50086970  1
  Cu  Cu110  1  0.33161813  0.00476742  0.49860003  1
  Cu  Cu111  1  0.67512647  0.67112175  -0.00070675  1
  Cu  Cu112  1  0.82963909  0.82248248  0.75199820  1
  Cu  Cu113  1  0.49293246  0.17542339  0.25433976  1
  Cu  Cu114  1  0.16431624  0.16936445  0.25618177  1
  Se  Se115  1  0.08318910  0.08520287  0.05143322  1
  Se  Se116  1  0.08133099  0.08297094  0.54761768  1
  Se  Se117  1  0.07907479  0.41269000  0.06346339  1
  Se  Se118  1  0.08032821  0.41474270  0.55667712  1
  Se  Se119  1  0.08687467  0.75234401  0.05466874  1
  Se  Se120  1  0.09431741  0.76582945  0.54968878  1
  Se  Se121  1  0.41853521  0.08183052  0.04905215  1
  Se  Se122  1  0.41751466  0.08489515  0.55146066  1
  Se  Se123  1  0.40858482  0.40251063  0.06075013  1
  Se  Se124  1  0.43389907  0.43007482  0.54874991  1
  Se  Se125  1  0.41041835  0.74350929  0.06142881  1
  Se  Se126  1  0.41599902  0.74878057  0.56492765  1
  Se  Se127  1  0.75236247  0.07578451  0.07196254  1
  Se  Se128  1  0.75574897  0.08882321  0.54744142  1
  Se  Se129  1  0.74554376  0.40745141  0.05706844  1
  Se  Se130  1  0.75252865  0.41822730  0.55040797  1
  Se  Se131  1  0.75780052  0.75214563  0.05309193  1
  Se  Se132  1  0.74862911  0.74597988  0.56204782  1
  Se  Se133  1  0.23766679  0.24422220  0.05266891  1
  Se  Se134  1  0.24511284  0.25043989  0.55150758  1
  Se  Se135  1  0.25430754  0.58569561  0.06826411  1
  Se  Se136  1  0.24971310  0.58434746  0.54717624  1
  Se  Se137  1  0.24691445  0.91841126  0.04692771  1
  Se  Se138  1  0.25162612  0.91785547  0.55131751  1
  Se  Se139  1  0.58062387  0.24493220  0.05855201  1
  Se  Se140  1  0.58105489  0.24922103  0.54969806  1
  Se  Se141  1  0.59993995  0.58543595  0.05831968  1
  Se  Se142  1  0.58486818  0.58341985  0.55045592  1
  Se  Se143  1  0.58890699  0.92354219  0.06832120  1
  Se  Se144  1  0.58854727  0.92824679  0.55728546  1
  Se  Se145  1  0.92496714  0.25667741  0.05541872  1
  Se  Se146  1  0.91208976  0.24883240  0.55130285  1
  Se  Se147  1  0.92689132  0.58621018  0.06220335  1
  Se  Se148  1  0.92352105  0.59067487  0.54869874  1
  Se  Se149  1  0.91721910  0.91761820  0.06063347  1
  Se  Se150  1  0.92085727  0.92450138  0.56049298  1
  Se  Se151  1  0.08032533  0.24964436  0.44743216  1
  Se  Se152  1  0.09011523  0.25011739  0.94366911  1
  Se  Se153  1  0.08473895  0.58318197  0.45954821  1
  Se  Se154  1  0.07238128  0.58775114  0.94320297  1
  Se  Se155  1  0.08299325  0.91789519  0.43942418  1
  Se  Se156  1  0.08313269  0.91834432  0.94328197  1
  Se  Se157  1  0.42734538  0.24778059  0.45292050  1
  Se  Se158  1  0.42633592  0.24375987  0.93973782  1
  Se  Se159  1  0.42382248  0.58528114  0.45342019  1
  Se  Se160  1  0.40351116  0.58760567  0.94570764  1
  Se  Se161  1  0.41155612  0.92788842  0.43457883  1
  Se  Se162  1  0.41012368  0.92104325  0.93693616  1
  Se  Se163  1  0.75031544  0.25065755  0.44739333  1
  Se  Se164  1  0.74880289  0.25668817  0.93980791  1
  Se  Se165  1  0.75572826  0.57985888  0.44659921  1
  Se  Se166  1  0.74203733  0.58549566  0.93465645  1
  Se  Se167  1  0.74324693  0.92602748  0.43804949  1
  Se  Se168  1  0.75326754  0.91501450  0.95725859  1
  Se  Se169  1  0.24517854  0.08786579  0.44731157  1
  Se  Se170  1  0.24916021  0.08669338  0.93861913  1
  Se  Se171  1  0.25565164  0.40462579  0.46379128  1
  Se  Se172  1  0.26078957  0.40585796  0.94362144  1
  Se  Se173  1  0.25424106  0.75854206  0.45291663  1
  Se  Se174  1  0.24009383  0.75011195  0.94972818  1
  Se  Se175  1  0.57628530  0.08975156  0.44646302  1
  Se  Se176  1  0.59206910  0.08444322  0.95072494  1
  Se  Se177  1  0.58384688  0.41932362  0.44478363  1
  Se  Se178  1  0.58477261  0.40779633  0.93961200  1
  Se  Se179  1  0.59652926  0.74736369  0.43995104  1
  Se  Se180  1  0.58392365  0.74218070  0.94146473  1
  Se  Se181  1  0.91235240  0.08126488  0.44268769  1
  Se  Se182  1  0.92699820  0.07670538  0.93735591  1
  Se  Se183  1  0.91401427  0.41986963  0.44943301  1
  Se  Se184  1  0.92594951  0.41219453  0.93777651  1
  Se  Se185  1  0.92859784  0.74987402  0.43865903  1
  Se  Se186  1  0.91240784  0.75494389  0.94590423  1
  Se  Se187  1  0.24673816  0.25410935  0.30806526  1
  Se  Se188  1  0.25547449  0.25206040  0.79957398  1
  Se  Se189  1  0.25286896  0.57983797  0.33553270  1
  Se  Se190  1  0.23962516  0.57113973  0.80982670  1
  Se  Se191  1  0.24763068  0.91415755  0.30800684  1
  Se  Se192  1  0.24591449  0.91296082  0.79816289  1
  Se  Se193  1  0.57970997  0.25511827  0.30764586  1
  Se  Se194  1  0.59204331  0.24779253  0.79582847  1
  Se  Se195  1  0.57742202  0.57576738  0.30921457  1
  Se  Se196  1  0.57920139  0.58126139  0.79510296  1
  Se  Se197  1  0.57562444  0.91265092  0.29876616  1
  Se  Se198  1  0.57219283  0.90929892  0.81612510  1
  Se  Se199  1  0.90534006  0.24426545  0.31499549  1
  Se  Se200  1  0.92273872  0.25624209  0.79664469  1
  Se  Se201  1  0.92113631  0.58052438  0.30700707  1
  Se  Se202  1  0.91152356  0.58016668  0.80044136  1
  Se  Se203  1  0.91292421  0.91373675  0.29440003  1
  Se  Se204  1  0.90740114  0.91122930  0.80869748  1
  Se  Se205  1  0.07761772  0.08185359  0.30021068  1
  Se  Se206  1  0.09261913  0.09246124  0.80540209  1
  Se  Se207  1  0.09092181  0.42512406  0.32209686  1
  Se  Se208  1  0.08745762  0.41299243  0.79840172  1
  Se  Se209  1  0.09229354  0.74844858  0.30877073  1
  Se  Se210  1  0.07686449  0.74466056  0.80117491  1
  Se  Se211  1  0.41054925  0.09547061  0.31351689  1
  Se  Se212  1  0.41964933  0.08495051  0.79914854  1
  Se  Se213  1  0.40804176  0.41683239  0.31014898  1
  Se  Se214  1  0.41651697  0.41376481  0.79530526  1
  Se  Se215  1  0.42740073  0.75489551  0.30376696  1
  Se  Se216  1  0.41653361  0.75122808  0.81269843  1
  Se  Se217  1  0.73996421  0.08350687  0.30849364  1
  Se  Se218  1  0.76331925  0.09249575  0.80557729  1
  Se  Se219  1  0.74873634  0.41577200  0.30225266  1
  Se  Se220  1  0.74537836  0.41447570  0.79755642  1
  Se  Se221  1  0.76783048  0.75726597  0.30635043  1
  Se  Se222  1  0.74182629  0.74695850  0.80726392  1
  Se  Se223  1  0.24109675  0.09501760  0.18782285  1
  Se  Se224  1  0.25480781  0.08145682  0.69055658  1
  Se  Se225  1  0.22285448  0.43620973  0.20085832  1
  Se  Se226  1  0.25496773  0.41230090  0.69185077  1
  Se  Se227  1  0.24941485  0.75462191  0.19050659  1
  Se  Se228  1  0.23993253  0.74671408  0.68655886  1
  Se  Se229  1  0.57571155  0.08829990  0.20306634  1
  Se  Se230  1  0.58388632  0.08688198  0.68481596  1
  Se  Se231  1  0.57127090  0.41609517  0.20543281  1
  Se  Se232  1  0.58618241  0.41134017  0.68954345  1
  Se  Se233  1  0.58069442  0.74930371  0.19147232  1
  Se  Se234  1  0.58247736  0.74738340  0.70120170  1
  Se  Se235  1  0.91271968  0.09344219  0.20079587  1
  Se  Se236  1  0.91730915  0.08969620  0.68519228  1
  Se  Se237  1  0.91469032  0.42148301  0.19027862  1
  Se  Se238  1  0.91604132  0.41768016  0.69275515  1
  Se  Se239  1  0.93570661  0.74029922  0.19831158  1
  Se  Se240  1  0.91788934  0.74532351  0.69912955  1
  Se  Se241  1  0.08195132  0.24946697  0.19470228  1
  Se  Se242  1  0.08306682  0.25046538  0.69601477  1
  Se  Se243  1  0.09524518  0.58378243  0.21402770  1
  Se  Se244  1  0.08112609  0.58308644  0.69216030  1
  Se  Se245  1  0.08749933  0.91995930  0.19475472  1
  Se  Se246  1  0.08747558  0.91064175  0.68501860  1
  Se  Se247  1  0.40626893  0.24868664  0.19514920  1
  Se  Se248  1  0.41740778  0.24955482  0.68921733  1
  Se  Se249  1  0.42238445  0.57146992  0.19725956  1
  Se  Se250  1  0.41247783  0.57009377  0.68081675  1
  Se  Se251  1  0.42608447  0.90686488  0.19379306  1
  Se  Se252  1  0.41310420  0.91695329  0.70157828  1
  Se  Se253  1  0.74133645  0.25558969  0.20211650  1
  Se  Se254  1  0.75019851  0.25427916  0.69290052  1
  Se  Se255  1  0.75866408  0.57336287  0.18710987  1
  Se  Se256  1  0.74378210  0.58397301  0.69144535  1
  Se  Se257  1  0.73742433  0.92361681  0.20319340  1
  Se  Se258  1  0.75241395  0.90724188  0.69337395  1
