# generated using pymatgen
data_In86Cu29Se144
_symmetry_space_group_name_H-M   'P 1'
_cell_length_a   17.57852754
_cell_length_b   17.58074182
_cell_length_c   23.44002861
_cell_angle_alpha   89.99549538
_cell_angle_beta   89.99935164
_cell_angle_gamma   89.98119625
_symmetry_Int_Tables_number   1
_chemical_formula_structural   In86Cu29Se144
_chemical_formula_sum   'In86 Cu29 Se144'
_cell_volume   7243.98934099
_cell_formula_units_Z   1
loop_
 _symmetry_equiv_pos_site_id
 _symmetry_equiv_pos_as_xyz
  1  'x, y, z'
loop_
 _atom_site_type_symbol
 _atom_site_label
 _atom_site_symmetry_multiplicity
 _atom_site_fract_x
 _atom_site_fract_y
 _atom_site_fract_z
 _atom_site_occupancy
  In  In0  1  -0.00106326  0.17843429  0.12530876  1
  In  In1  1  -0.00172478  0.16476414  0.61582584  1
  In  In2  1  -0.00830934  0.51442376  0.12750202  1
  In  In3  1  0.02116895  0.53291373  0.59617658  1
  In  In4  1  0.00590238  0.82184649  0.12604201  1
  In  In5  1  0.00000712  0.82453271  0.61450878  1
  In  In6  1  0.33407636  0.14489151  0.12664446  1
  In  In7  1  0.33443167  0.17394382  0.63662148  1
  In  In8  1  0.33627393  0.49818512  0.11744876  1
  In  In9  1  0.33198899  0.51220313  0.63633170  1
  In  In10  1  0.35367843  0.84053950  0.10992217  1
  In  In11  1  0.33624895  0.83575967  0.62438094  1
  In  In12  1  0.66359656  0.16221854  0.12163227  1
  In  In13  1  0.66423150  0.15515754  0.62500412  1
  In  In14  1  0.66675160  0.49663401  0.13583264  1
  In  In15  1  0.67420206  0.50201798  0.61877054  1
  In  In16  1  0.65082258  0.84481255  0.13701001  1
  In  In17  1  0.67479404  0.84115392  0.61443357  1
  In  In18  1  0.17321161  -0.00483033  0.38145762  1
  In  In19  1  0.17528807  -0.01964782  0.87748283  1
  In  In20  1  0.16572819  0.33818908  0.38772664  1
  In  In21  1  0.17044926  0.32171353  0.87200634  1
  In  In22  1  0.16084389  0.66720832  0.39259138  1
  In  In23  1  0.17896962  0.68262303  0.86020443  1
  In  In24  1  0.48867598  -0.00471562  0.36674413  1
  In  In25  1  0.49693504  -0.00104479  0.87329700  1
  In  In26  1  0.50180507  0.32858709  0.36782311  1
  In  In27  1  0.49490424  0.34084334  0.88446934  1
  In  In28  1  0.54204402  0.66705988  0.37878551  1
  In  In29  1  0.47413812  0.68431438  0.89968053  1
  In  In30  1  0.82239362  0.00761893  0.37964416  1
  In  In31  1  0.83556003  0.01292733  0.87442704  1
  In  In32  1  0.81926105  0.33864204  0.37695549  1
  In  In33  1  0.82414012  0.34038847  0.88084501  1
  In  In34  1  0.81758716  0.67190869  0.39023102  1
  In  In35  1  0.82965495  0.65566912  0.86997187  1
  In  In36  1  0.00177214  0.16357102  0.38362746  1
  In  In37  1  -0.00607674  0.15982113  0.87776047  1
  In  In38  1  -0.00966896  0.51186289  0.39154055  1
  In  In39  1  -0.01232710  0.50393629  0.87266411  1
  In  In40  1  -0.00255372  0.82401361  0.39039786  1
  In  In41  1  0.01502800  0.83442475  0.87089423  1
  In  In42  1  0.33552746  0.15773750  0.37564170  1
  In  In43  1  0.35117732  0.17882558  0.85659322  1
  In  In44  1  0.33102823  0.49549172  0.38234872  1
  In  In45  1  0.34071248  0.50978209  0.86706789  1
  In  In46  1  0.33289648  0.83693432  0.38165575  1
  In  In47  1  0.33300235  0.83445262  0.87099262  1
  In  In48  1  0.67115393  0.17232857  0.36434738  1
  In  In49  1  0.67174555  0.15920786  0.88021788  1
  In  In50  1  0.68533397  0.51596056  0.33283947  1
  In  In51  1  0.66715530  0.50061142  0.88319453  1
  In  In52  1  0.65956095  0.83785156  0.37854920  1
  In  In53  1  0.65088388  0.82929133  0.87517285  1
  In  In54  1  0.19501136  0.00113602  0.12867085  1
  In  In55  1  0.17534061  0.00784690  0.61736112  1
  In  In56  1  0.16506520  0.33153111  0.12915621  1
  In  In57  1  0.17299788  0.34028190  0.62218203  1
  In  In58  1  0.16337277  0.67080965  0.12077650  1
  In  In59  1  0.17276339  0.67248514  0.62076283  1
  In  In60  1  0.49811311  -0.00455462  0.12202654  1
  In  In61  1  0.51111341  0.00110319  0.63858371  1
  In  In62  1  0.51894888  0.34509239  0.11331602  1
  In  In63  1  0.49321965  0.32472549  0.63260809  1
  In  In64  1  0.50517602  0.67216287  0.12279732  1
  In  In65  1  0.49080465  0.66522758  0.62586959  1
  In  In66  1  0.81552951  -0.00034442  0.12872666  1
  In  In67  1  0.82954704  -0.00698587  0.61708313  1
  In  In68  1  0.82585565  0.33107391  0.12723687  1
  In  In69  1  0.84268533  0.34236922  0.61582070  1
  In  In70  1  0.82531760  0.64921076  0.12491040  1
  In  In71  1  0.84748236  0.68660415  0.60234673  1
  In  In72  1  -0.00708895  0.67075152  0.26459051  1
  In  In73  1  0.00353486  -0.00270100  0.75127933  1
  In  In74  1  0.00187640  0.33925476  0.74996776  1
  In  In75  1  -0.00220040  0.33521276  0.24941812  1
  In  In76  1  0.50640989  0.50087596  0.49573265  1
  In  In77  1  0.66341949  0.33340133  0.75322249  1
  In  In78  1  0.33937557  0.32756976  0.24827556  1
  In  In79  1  0.16732166  0.50379410  -0.00198013  1
  In  In80  1  0.16563047  0.15994694  -0.00161378  1
  In  In81  1  0.66055716  0.66553062  0.75024300  1
  In  In82  1  0.33848016  0.67267356  0.24644485  1
  In  In83  1  -0.00126841  -0.00468502  0.26336275  1
  In  In84  1  0.50021475  0.16352727  0.49956623  1
  In  In85  1  0.83219616  0.83241367  0.00328648  1
  Cu  Cu86  1  0.67048418  0.32794580  0.00445306  1
  Cu  Cu87  1  0.16880581  0.50363317  0.74050945  1
  Cu  Cu88  1  0.33416432  -0.00043508  0.50136835  1
  Cu  Cu89  1  0.33756168  0.67015128  0.50288423  1
  Cu  Cu90  1  0.66706901  -0.00099488  0.49886103  1
  Cu  Cu91  1  0.82203205  0.82588492  0.25631625  1
  Cu  Cu92  1  0.50276685  0.16143396  0.24202737  1
  Cu  Cu93  1  0.67118744  0.32952329  0.49099147  1
  Cu  Cu94  1  0.00070604  0.66795941  -0.00132915  1
  Cu  Cu95  1  0.33722328  0.32700693  -0.00249719  1
  Cu  Cu96  1  0.83106238  0.83433840  0.73669772  1
  Cu  Cu97  1  0.84237262  0.51066537  0.74286435  1
  Cu  Cu98  1  0.82651887  0.16633467  0.74933819  1
  Cu  Cu99  1  0.83108124  0.16373811  0.24924638  1
  Cu  Cu100  1  0.49587758  0.83362032  0.75365781  1
  Cu  Cu101  1  0.33716056  -0.00407401  -0.00558741  1
  Cu  Cu102  1  0.17280178  0.16294201  0.74654715  1
  Cu  Cu103  1  -0.00601429  0.32542325  0.49875411  1
  Cu  Cu104  1  0.50039205  0.50101832  0.75995963  1
  Cu  Cu105  1  0.66854947  0.66007696  0.00581149  1
  Cu  Cu106  1  0.16937763  0.82676188  0.74404186  1
  Cu  Cu107  1  0.66189324  -0.00283838  0.00226561  1
  Cu  Cu108  1  -0.01368829  0.34014522  0.00312930  1
  Cu  Cu109  1  0.49938091  0.83351136  0.24983385  1
  Cu  Cu110  1  0.32805851  0.33581849  0.50881651  1
  Cu  Cu111  1  0.17560597  0.84213980  0.25307156  1
  Cu  Cu112  1  0.00137614  -0.00476249  0.49991378  1
  Cu  Cu113  1  0.16619007  0.50272540  0.25976644  1
  Cu  Cu114  1  -0.00231137  0.00288124  -0.00011376  1
  Se  Se115  1  0.07996807  0.07425873  0.06592404  1
  Se  Se116  1  0.08391386  0.08266622  0.55042104  1
  Se  Se117  1  0.07413675  0.41424401  0.06186565  1
  Se  Se118  1  0.07624212  0.40668241  0.55530510  1
  Se  Se119  1  0.08502890  0.75251205  0.04881143  1
  Se  Se120  1  0.08273285  0.74057585  0.54883816  1
  Se  Se121  1  0.41747076  0.07940280  0.05047351  1
  Se  Se122  1  0.41279028  0.07934436  0.56389916  1
  Se  Se123  1  0.41666800  0.41359391  0.05059721  1
  Se  Se124  1  0.41621356  0.41556219  0.56279999  1
  Se  Se125  1  0.41738448  0.73874585  0.04909704  1
  Se  Se126  1  0.42125301  0.75373069  0.55462387  1
  Se  Se127  1  0.74967297  0.08037027  0.05148208  1
  Se  Se128  1  0.74919380  0.08422254  0.55216850  1
  Se  Se129  1  0.74664205  0.41740251  0.05944752  1
  Se  Se130  1  0.74720068  0.41405505  0.54942970  1
  Se  Se131  1  0.74162203  0.74873887  0.06633946  1
  Se  Se132  1  0.74079547  0.74945500  0.54464035  1
  Se  Se133  1  0.25383424  0.25268351  0.05958959  1
  Se  Se134  1  0.25205373  0.24448480  0.56043890  1
  Se  Se135  1  0.25905685  0.59610372  0.05338716  1
  Se  Se136  1  0.25870900  0.58218203  0.55623664  1
  Se  Se137  1  0.25164603  0.91603977  0.05013262  1
  Se  Se138  1  0.25061708  0.91362265  0.55298063  1
  Se  Se139  1  0.58152351  0.24176384  0.04953785  1
  Se  Se140  1  0.58945776  0.25926030  0.55760241  1
  Se  Se141  1  0.58746363  0.57847168  0.06196300  1
  Se  Se142  1  0.59047112  0.59543288  0.55707287  1
  Se  Se143  1  0.58066302  0.90973155  0.05298348  1
  Se  Se144  1  0.57935385  0.92692335  0.55735634  1
  Se  Se145  1  0.91081104  0.25059725  0.05642464  1
  Se  Se146  1  0.90823246  0.24236621  0.55040612  1
  Se  Se147  1  0.91534230  0.58545850  0.05001320  1
  Se  Se148  1  0.88837296  0.56027318  0.55600913  1
  Se  Se149  1  0.92204026  0.92292538  0.06511231  1
  Se  Se150  1  0.91518106  0.91195773  0.55056026  1
  Se  Se151  1  0.08604684  0.24617304  0.45067633  1
  Se  Se152  1  0.07082125  0.25971503  0.94531878  1
  Se  Se153  1  0.09258245  0.57009802  0.45653577  1
  Se  Se154  1  0.08071981  0.59159654  0.93462223  1
  Se  Se155  1  0.08688277  0.91295650  0.44809363  1
  Se  Se156  1  0.07984073  0.91781862  0.94837769  1
  Se  Se157  1  0.40842800  0.26065928  0.44421064  1
  Se  Se158  1  0.41666455  0.24066092  0.94430195  1
  Se  Se159  1  0.41761598  0.59581025  0.43687826  1
  Se  Se160  1  0.42312023  0.56371093  0.94802970  1
  Se  Se161  1  0.42073203  0.92060244  0.44757077  1
  Se  Se162  1  0.42024088  0.90985674  0.94308743  1
  Se  Se163  1  0.75181594  0.23867305  0.44309247  1
  Se  Se164  1  0.75294318  0.24735707  0.94676946  1
  Se  Se165  1  0.72186148  0.57279528  0.43016403  1
  Se  Se166  1  0.75402962  0.58451640  0.94835178  1
  Se  Se167  1  0.75155645  0.91441049  0.44719609  1
  Se  Se168  1  0.74530630  0.92056808  0.93929373  1
  Se  Se169  1  0.25206120  0.08549984  0.44915203  1
  Se  Se170  1  0.25883381  0.08099066  0.93482048  1
  Se  Se171  1  0.24834472  0.42243138  0.45531083  1
  Se  Se172  1  0.25419639  0.40769816  0.93973948  1
  Se  Se173  1  0.25174636  0.75321445  0.45100752  1
  Se  Se174  1  0.24319454  0.75727415  0.93930798  1
  Se  Se175  1  0.58814536  0.07838933  0.43530814  1
  Se  Se176  1  0.58148330  0.07873044  0.94445304  1
  Se  Se177  1  0.59038003  0.41035913  0.43343189  1
  Se  Se178  1  0.58860500  0.41381999  0.95045162  1
  Se  Se179  1  0.56908526  0.77021334  0.45136060  1
  Se  Se180  1  0.58789943  0.74694920  0.95304605  1
  Se  Se181  1  0.91647788  0.07848482  0.44721657  1
  Se  Se182  1  0.91242947  0.08701577  0.95172926  1
  Se  Se183  1  0.91152762  0.40994942  0.44562603  1
  Se  Se184  1  0.91044740  0.42443962  0.94574822  1
  Se  Se185  1  0.92926340  0.72282989  0.45004532  1
  Se  Se186  1  0.91998784  0.74751201  0.93686803  1
  Se  Se187  1  0.24562225  0.25193945  0.31434698  1
  Se  Se188  1  0.25140146  0.25418867  0.79619163  1
  Se  Se189  1  0.24613957  0.58758064  0.31406921  1
  Se  Se190  1  0.25178288  0.58432891  0.79820220  1
  Se  Se191  1  0.25839985  0.92171139  0.30802597  1
  Se  Se192  1  0.24978144  0.91304801  0.79747749  1
  Se  Se193  1  0.58024870  0.24743232  0.29717956  1
  Se  Se194  1  0.57942273  0.24753761  0.81708921  1
  Se  Se195  1  0.56163599  0.57650271  0.29551314  1
  Se  Se196  1  0.57580708  0.58479745  0.81947704  1
  Se  Se197  1  0.58267975  0.91868463  0.30296909  1
  Se  Se198  1  0.58347559  0.91686194  0.80319507  1
  Se  Se199  1  0.91267022  0.24098322  0.31008369  1
  Se  Se200  1  0.90814103  0.24658322  0.80863100  1
  Se  Se201  1  0.90191480  0.57680475  0.31505621  1
  Se  Se202  1  0.92383212  0.59307846  0.79787004  1
  Se  Se203  1  0.90720409  0.90066436  0.31687458  1
  Se  Se204  1  0.90714860  0.90790652  0.80759725  1
  Se  Se205  1  0.09301984  0.08966049  0.31196767  1
  Se  Se206  1  0.09418657  0.08836903  0.81211732  1
  Se  Se207  1  0.08169714  0.42515607  0.31619545  1
  Se  Se208  1  0.09478465  0.42834530  0.81015406  1
  Se  Se209  1  0.09562180  0.76022321  0.31266058  1
  Se  Se210  1  0.07784203  0.74879870  0.79444157  1
  Se  Se211  1  0.41481574  0.08734148  0.29875244  1
  Se  Se212  1  0.39900503  0.06126465  0.80412127  1
  Se  Se213  1  0.41916463  0.42737864  0.30652142  1
  Se  Se214  1  0.41624955  0.41099143  0.80565871  1
  Se  Se215  1  0.42522662  0.75298861  0.31467762  1
  Se  Se216  1  0.41939062  0.74460930  0.80770902  1
  Se  Se217  1  0.74771789  0.07722777  0.29970016  1
  Se  Se218  1  0.74690085  0.08067336  0.80222771  1
  Se  Se219  1  0.74417513  0.39400633  0.29290235  1
  Se  Se220  1  0.75919075  0.43222649  0.80295059  1
  Se  Se221  1  0.74091279  0.74628533  0.31258395  1
  Se  Se222  1  0.75536428  0.75970399  0.80639682  1
  Se  Se223  1  0.24674443  0.09115710  0.20473983  1
  Se  Se224  1  0.25342982  0.07599317  0.69588743  1
  Se  Se225  1  0.24238872  0.42742184  0.19463325  1
  Se  Se226  1  0.25398657  0.41388324  0.69654880  1
  Se  Se227  1  0.24561669  0.76086598  0.18738483  1
  Se  Se228  1  0.25820650  0.74640128  0.69341399  1
  Se  Se229  1  0.58475496  0.07509733  0.19066668  1
  Se  Se230  1  0.57650486  0.10259187  0.70189321  1
  Se  Se231  1  0.58267261  0.40723230  0.19906070  1
  Se  Se232  1  0.57827190  0.42941335  0.69170981  1
  Se  Se233  1  0.58258691  0.74483854  0.20090072  1
  Se  Se234  1  0.57893944  0.76060816  0.68859095  1
  Se  Se235  1  0.91634259  0.08423068  0.19238025  1
  Se  Se236  1  0.91212457  0.08730849  0.69189430  1
  Se  Se237  1  0.90796879  0.42874772  0.19457100  1
  Se  Se238  1  0.92293854  0.42977494  0.68487371  1
  Se  Se239  1  0.90642386  0.75371736  0.19393320  1
  Se  Se240  1  0.91595604  0.74972137  0.68820599  1
  Se  Se241  1  0.09531289  0.23890010  0.20017439  1
  Se  Se242  1  0.08571519  0.24160258  0.69108745  1
  Se  Se243  1  0.08870702  0.58447705  0.19872351  1
  Se  Se244  1  0.08546383  0.58596767  0.68731211  1
  Se  Se245  1  0.08793260  0.91468992  0.19248744  1
  Se  Se246  1  0.08838924  0.91145184  0.68535535  1
  Se  Se247  1  0.42470993  0.24430084  0.18110579  1
  Se  Se248  1  0.42595254  0.24295606  0.70622860  1
  Se  Se249  1  0.42122736  0.57460686  0.18927649  1
  Se  Se250  1  0.42165217  0.58766826  0.70432920  1
  Se  Se251  1  0.41457805  0.91404380  0.19377329  1
  Se  Se252  1  0.41658447  0.91701462  0.69676613  1
  Se  Se253  1  0.74706060  0.24276195  0.19336154  1
  Se  Se254  1  0.75722887  0.25346181  0.68817253  1
  Se  Se255  1  0.74946217  0.58328859  0.20333191  1
  Se  Se256  1  0.75685999  0.58915323  0.68651006  1
  Se  Se257  1  0.74687887  0.91614381  0.20311310  1
  Se  Se258  1  0.74593373  0.92175842  0.69197311  1
