# generated using pymatgen
data_In86Cu29Se144
_symmetry_space_group_name_H-M   'P 1'
_cell_length_a   17.59008626
_cell_length_b   17.58950713
_cell_length_c   23.44641427
_cell_angle_alpha   90.00759927
_cell_angle_beta   90.00637433
_cell_angle_gamma   89.99375430
_symmetry_Int_Tables_number   1
_chemical_formula_structural   In86Cu29Se144
_chemical_formula_sum   'In86 Cu29 Se144'
_cell_volume   7254.34264569
_cell_formula_units_Z   1
loop_
 _symmetry_equiv_pos_site_id
 _symmetry_equiv_pos_as_xyz
  1  'x, y, z'
loop_
 _atom_site_type_symbol
 _atom_site_label
 _atom_site_symmetry_multiplicity
 _atom_site_fract_x
 _atom_site_fract_y
 _atom_site_fract_z
 _atom_site_occupancy
  In  In0  1  0.01138655  0.16544883  0.12568112  1
  In  In1  1  0.00304600  0.16923577  0.62276419  1
  In  In2  1  0.00610840  0.48885715  0.13396780  1
  In  In3  1  0.00565692  0.49288657  0.62551916  1
  In  In4  1  -0.00441498  0.82818997  0.12438220  1
  In  In5  1  0.00988028  0.81822106  0.63712022  1
  In  In6  1  0.33567674  0.16656181  0.12523485  1
  In  In7  1  0.32522628  0.15885858  0.61570610  1
  In  In8  1  0.33522315  0.50106899  0.13314502  1
  In  In9  1  0.33161386  0.50378652  0.61176038  1
  In  In10  1  0.33508426  0.82628451  0.13432253  1
  In  In11  1  0.33074044  0.84928330  0.62727776  1
  In  In12  1  0.65775718  0.17790884  0.13045135  1
  In  In13  1  0.66679587  0.17181226  0.61512255  1
  In  In14  1  0.63852971  0.51841571  0.15275316  1
  In  In15  1  0.65906468  0.50450855  0.61883317  1
  In  In16  1  0.64784623  0.82382556  0.11409335  1
  In  In17  1  0.67432415  0.82775475  0.62357287  1
  In  In18  1  0.17673146  -0.00552199  0.38154016  1
  In  In19  1  0.17542863  0.00684283  0.86361017  1
  In  In20  1  0.16868329  0.33260253  0.37362346  1
  In  In21  1  0.16487125  0.34149148  0.88006594  1
  In  In22  1  0.16375516  0.66465642  0.37782702  1
  In  In23  1  0.16068836  0.66614932  0.87440828  1
  In  In24  1  0.49666477  0.01403933  0.37260391  1
  In  In25  1  0.47510930  0.02109991  0.90465322  1
  In  In26  1  0.49291719  0.33421990  0.36548799  1
  In  In27  1  0.49452627  0.33308117  0.88882809  1
  In  In28  1  0.46757417  0.62230556  0.33215602  1
  In  In29  1  0.50428517  0.67049021  0.89583043  1
  In  In30  1  0.84485913  0.00548864  0.37950734  1
  In  In31  1  0.84357214  -0.00672626  0.87001938  1
  In  In32  1  0.83121546  0.31610196  0.36700707  1
  In  In33  1  0.84126276  0.32675749  0.87580812  1
  In  In34  1  0.83164542  0.66070928  0.36789863  1
  In  In35  1  0.83755576  0.66369426  0.87404968  1
  In  In36  1  -0.00204681  0.17542693  0.38260369  1
  In  In37  1  0.01314303  0.17436153  0.86621186  1
  In  In38  1  0.01477136  0.50629175  0.37392867  1
  In  In39  1  0.00813957  0.50568490  0.86893280  1
  In  In40  1  0.01307690  0.82833789  0.38179708  1
  In  In41  1  -0.00256973  0.83316664  0.85787956  1
  In  In42  1  0.33098633  0.16922340  0.37132513  1
  In  In43  1  0.32822054  0.16043066  0.88572890  1
  In  In44  1  0.32905593  0.49521817  0.37156569  1
  In  In45  1  0.33602709  0.50028606  0.88802558  1
  In  In46  1  0.32429508  0.82599198  0.36552353  1
  In  In47  1  0.33594412  0.84631430  0.88087158  1
  In  In48  1  0.65938875  0.17271846  0.37613365  1
  In  In49  1  0.65805289  0.16185883  0.88180368  1
  In  In50  1  0.64474027  0.47757598  0.35163305  1
  In  In51  1  0.66087125  0.49796888  0.88333137  1
  In  In52  1  0.66599951  0.81759606  0.37289131  1
  In  In53  1  0.65479060  0.83543090  0.88491561  1
  In  In54  1  0.17393162  0.01732428  0.11604944  1
  In  In55  1  0.16720368  -0.00038559  0.62302262  1
  In  In56  1  0.16748645  0.33568742  0.12944033  1
  In  In57  1  0.15932187  0.32444084  0.61430274  1
  In  In58  1  0.17863876  0.65335413  0.13780609  1
  In  In59  1  0.14557145  0.65405572  0.60299911  1
  In  In60  1  0.48041080  -0.01485399  0.10578784  1
  In  In61  1  0.48734563  0.00001704  0.62687490  1
  In  In62  1  0.49788701  0.33786378  0.13213683  1
  In  In63  1  0.49205356  0.33031397  0.61484956  1
  In  In64  1  0.49781685  0.65821770  0.13219694  1
  In  In65  1  0.50711905  0.66296758  0.61837287  1
  In  In66  1  0.83086123  0.00327812  0.12570568  1
  In  In67  1  0.83176991  0.01175697  0.62537835  1
  In  In68  1  0.82352722  0.33209196  0.14174353  1
  In  In69  1  0.85050659  0.33588845  0.62332988  1
  In  In70  1  0.83935508  0.66265631  0.13642094  1
  In  In71  1  0.84304725  0.67439015  0.62175926  1
  In  In72  1  0.66471367  0.00279865  0.24493111  1
  In  In73  1  0.32869224  0.67520507  0.75077428  1
  In  In74  1  0.32741002  0.32964156  0.74665576  1
  In  In75  1  0.16821532  0.83416471  -0.00477123  1
  In  In76  1  0.67340475  0.67205245  0.75825398  1
  In  In77  1  0.49900156  0.83124745  0.49960666  1
  In  In78  1  0.67094610  0.00002642  0.75378305  1
  In  In79  1  0.83549185  0.83685092  0.50097818  1
  In  In80  1  0.83051072  0.49380421  0.49585947  1
  In  In81  1  0.00849051  0.00104795  0.24797465  1
  In  In82  1  0.82760629  0.49977546  0.00779856  1
  In  In83  1  0.67093329  0.33698447  0.75903771  1
  In  In84  1  0.82935627  0.83532266  -0.00506548  1
  In  In85  1  0.82815766  0.17341368  0.00555339  1
  Cu  Cu86  1  0.16541710  0.83306809  0.25415187  1
  Cu  Cu87  1  0.83733084  0.83141466  0.24832073  1
  Cu  Cu88  1  0.84475586  0.50877226  0.74789506  1
  Cu  Cu89  1  0.00742578  0.33615479  0.00291315  1
  Cu  Cu90  1  0.33165788  0.66848708  0.48701888  1
  Cu  Cu91  1  0.49087144  0.16582918  0.24860793  1
  Cu  Cu92  1  0.65592138  0.34234579  0.01168810  1
  Cu  Cu93  1  0.65650613  0.65089761  0.48907959  1
  Cu  Cu94  1  0.16461410  0.49965444  0.25345189  1
  Cu  Cu95  1  0.66059711  0.33143829  0.48844928  1
  Cu  Cu96  1  0.84103284  0.49250680  0.25652677  1
  Cu  Cu97  1  0.50017736  0.83769027  0.24219489  1
  Cu  Cu98  1  0.49319904  0.15588889  0.75630939  1
  Cu  Cu99  1  0.33638582  0.66203228  0.01274064  1
  Cu  Cu100  1  0.01162962  0.66004570  -0.00186404  1
  Cu  Cu101  1  0.16625052  0.16338992  0.74092336  1
  Cu  Cu102  1  0.32962363  0.33374616  0.01111686  1
  Cu  Cu103  1  0.33730475  0.33718263  0.49104389  1
  Cu  Cu104  1  0.00488624  0.33338737  0.49792728  1
  Cu  Cu105  1  0.16896504  0.83270336  0.74556795  1
  Cu  Cu106  1  0.49892639  0.83953275  0.75559329  1
  Cu  Cu107  1  0.66570982  0.00720110  0.49802919  1
  Cu  Cu108  1  0.17023130  0.17060892  0.24890182  1
  Cu  Cu109  1  0.16191553  0.50010762  0.74591180  1
  Cu  Cu110  1  0.49782131  0.49901676  0.74997045  1
  Cu  Cu111  1  0.84443268  0.17327097  0.74808015  1
  Cu  Cu112  1  0.00434678  0.00639147  -0.00659326  1
  Cu  Cu113  1  0.00453962  0.00670032  0.50326440  1
  Cu  Cu114  1  0.33406695  0.00531091  0.49940654  1
  Se  Se115  1  0.08422064  0.09074421  0.04704710  1
  Se  Se116  1  0.09044634  0.08962604  0.55493884  1
  Se  Se117  1  0.08759367  0.42061727  0.05715004  1
  Se  Se118  1  0.08603836  0.42061313  0.54965165  1
  Se  Se119  1  0.08682108  0.74211524  0.06068301  1
  Se  Se120  1  0.07784983  0.76264769  0.54993776  1
  Se  Se121  1  0.40799229  0.08634857  0.04877742  1
  Se  Se122  1  0.42270369  0.08494585  0.55134785  1
  Se  Se123  1  0.41490490  0.41849113  0.06134228  1
  Se  Se124  1  0.41880110  0.42080638  0.54768365  1
  Se  Se125  1  0.41781336  0.74748086  0.06380339  1
  Se  Se126  1  0.40420588  0.74246359  0.55933147  1
  Se  Se127  1  0.73843703  0.08024619  0.06026598  1
  Se  Se128  1  0.75245863  0.08683757  0.55095226  1
  Se  Se129  1  0.73992890  0.41591500  0.07160514  1
  Se  Se130  1  0.73940932  0.40293714  0.55847710  1
  Se  Se131  1  0.75496188  0.74041963  0.06111801  1
  Se  Se132  1  0.73811410  0.73288169  0.54862566  1
  Se  Se133  1  0.24438529  0.24853280  0.05954636  1
  Se  Se134  1  0.25715519  0.25543200  0.54988026  1
  Se  Se135  1  0.24896465  0.57785542  0.05954397  1
  Se  Se136  1  0.24963320  0.58524309  0.54362181  1
  Se  Se137  1  0.25719907  0.91676817  0.05910034  1
  Se  Se138  1  0.25131305  0.91919681  0.55118927  1
  Se  Se139  1  0.57424421  0.25202178  0.05813882  1
  Se  Se140  1  0.57953130  0.25048900  0.54868507  1
  Se  Se141  1  0.58280540  0.57819418  0.06290044  1
  Se  Se142  1  0.57251028  0.57302664  0.54572388  1
  Se  Se143  1  0.59626217  0.93038193  0.05210034  1
  Se  Se144  1  0.59212360  0.92347949  0.56068148  1
  Se  Se145  1  0.92127561  0.26246921  0.06304512  1
  Se  Se146  1  0.91937520  0.25058272  0.55094241  1
  Se  Se147  1  0.92785724  0.58787187  0.06041595  1
  Se  Se148  1  0.92035476  0.58363795  0.55506508  1
  Se  Se149  1  0.92546386  0.92768860  0.05418537  1
  Se  Se150  1  0.92399002  0.92419993  0.56253116  1
  Se  Se151  1  0.09164600  0.24926029  0.44766255  1
  Se  Se152  1  0.08318351  0.25137304  0.94493883  1
  Se  Se153  1  0.08290579  0.58585677  0.45011346  1
  Se  Se154  1  0.09175741  0.57542299  0.94500821  1
  Se  Se155  1  0.08350298  0.92102150  0.44880574  1
  Se  Se156  1  0.07512483  0.91888425  0.93361138  1
  Se  Se157  1  0.41823589  0.25038494  0.43898667  1
  Se  Se158  1  0.40764289  0.25048260  0.95151626  1
  Se  Se159  1  0.41659238  0.58729361  0.43377002  1
  Se  Se160  1  0.41996823  0.58029875  0.95602659  1
  Se  Se161  1  0.41106442  0.92116488  0.43834517  1
  Se  Se162  1  0.43307102  0.89648920  0.95262759  1
  Se  Se163  1  0.75099679  0.24699364  0.44494492  1
  Se  Se164  1  0.73687363  0.26781596  0.94575323  1
  Se  Se165  1  0.73933480  0.57323298  0.43059688  1
  Se  Se166  1  0.74382418  0.59477025  0.94513600  1
  Se  Se167  1  0.74027525  0.92226938  0.43808284  1
  Se  Se168  1  0.74347577  0.93582766  0.94163295  1
  Se  Se169  1  0.25131590  0.08940873  0.44583540  1
  Se  Se170  1  0.24749291  0.06751785  0.94696455  1
  Se  Se171  1  0.24701558  0.41900779  0.44421359  1
  Se  Se172  1  0.25032753  0.41584318  0.95129351  1
  Se  Se173  1  0.24603058  0.75692166  0.44324322  1
  Se  Se174  1  0.26260279  0.73717759  0.94226832  1
  Se  Se175  1  0.57923390  0.08692914  0.44580262  1
  Se  Se176  1  0.58081273  0.09364583  0.95718633  1
  Se  Se177  1  0.57764063  0.41574571  0.43785554  1
  Se  Se178  1  0.57563310  0.42293601  0.95283097  1
  Se  Se179  1  0.57489651  0.73655920  0.43609726  1
  Se  Se180  1  0.59657339  0.74565038  0.95851610  1
  Se  Se181  1  0.91803623  0.08789472  0.45155146  1
  Se  Se182  1  0.91911521  0.08880293  0.93893210  1
  Se  Se183  1  0.92113897  0.40701710  0.43487156  1
  Se  Se184  1  0.92193807  0.41515961  0.94449410  1
  Se  Se185  1  0.91747726  0.74084957  0.44192251  1
  Se  Se186  1  0.93153759  0.74540048  0.94200076  1
  Se  Se187  1  0.25369128  0.25567345  0.30136546  1
  Se  Se188  1  0.24175894  0.24050673  0.80891312  1
  Se  Se189  1  0.24615049  0.58532088  0.30652856  1
  Se  Se190  1  0.24849255  0.57191721  0.80761208  1
  Se  Se191  1  0.24898211  0.92202130  0.30137772  1
  Se  Se192  1  0.25384021  0.90983830  0.80236956  1
  Se  Se193  1  0.57879574  0.24513109  0.30105027  1
  Se  Se194  1  0.57057531  0.24498765  0.81039059  1
  Se  Se195  1  0.60703900  0.60261244  0.30212098  1
  Se  Se196  1  0.57414221  0.58068015  0.81110157  1
  Se  Se197  1  0.57821086  0.91150950  0.30996968  1
  Se  Se198  1  0.57482071  0.92188814  0.81539655  1
  Se  Se199  1  0.92467153  0.24119560  0.30231779  1
  Se  Se200  1  0.92449629  0.25867070  0.80160791  1
  Se  Se201  1  0.92300713  0.58092061  0.30526683  1
  Se  Se202  1  0.92438658  0.59208189  0.80317199  1
  Se  Se203  1  0.91621989  0.90993854  0.30924483  1
  Se  Se204  1  0.92122395  0.92473531  0.79446176  1
  Se  Se205  1  0.09315363  0.08878196  0.31212946  1
  Se  Se206  1  0.08296586  0.08140076  0.79756938  1
  Se  Se207  1  0.08221287  0.41262725  0.30448213  1
  Se  Se208  1  0.08558237  0.41409607  0.80302378  1
  Se  Se209  1  0.08235746  0.74874962  0.30533523  1
  Se  Se210  1  0.08883376  0.74608545  0.79954242  1
  Se  Se211  1  0.40830351  0.08061379  0.30039817  1
  Se  Se212  1  0.41171208  0.07934760  0.81450009  1
  Se  Se213  1  0.42853590  0.43624998  0.30096802  1
  Se  Se214  1  0.41840641  0.41882007  0.80973622  1
  Se  Se215  1  0.41818800  0.75574084  0.29865082  1
  Se  Se216  1  0.42728873  0.75028441  0.81439867  1
  Se  Se217  1  0.75408092  0.08394606  0.31139518  1
  Se  Se218  1  0.75970721  0.09995898  0.81045437  1
  Se  Se219  1  0.75273903  0.40526204  0.29994014  1
  Se  Se220  1  0.76404129  0.43375711  0.81260438  1
  Se  Se221  1  0.75249385  0.74882109  0.30038288  1
  Se  Se222  1  0.75783530  0.76812322  0.81552199  1
  Se  Se223  1  0.25014315  0.08358507  0.19573713  1
  Se  Se224  1  0.25465586  0.08057522  0.69296398  1
  Se  Se225  1  0.24908762  0.41744094  0.19973698  1
  Se  Se226  1  0.24441634  0.42405912  0.68502145  1
  Se  Se227  1  0.25113176  0.74694014  0.20366531  1
  Se  Se228  1  0.24040208  0.74974996  0.68089935  1
  Se  Se229  1  0.56565745  0.08207356  0.18621278  1
  Se  Se230  1  0.58124093  0.09070803  0.69187655  1
  Se  Se231  1  0.59489500  0.39753982  0.20373939  1
  Se  Se232  1  0.57754156  0.41760405  0.69196307  1
  Se  Se233  1  0.58406974  0.74992325  0.19575192  1
  Se  Se234  1  0.57534431  0.75733754  0.69418772  1
  Se  Se235  1  0.91174178  0.08998973  0.19332820  1
  Se  Se236  1  0.92068286  0.08667897  0.69350701  1
  Se  Se237  1  0.92162845  0.40815512  0.20174152  1
  Se  Se238  1  0.92117438  0.41711061  0.69801068  1
  Se  Se239  1  0.92604447  0.74824393  0.20021996  1
  Se  Se240  1  0.90618992  0.75340181  0.69885414  1
  Se  Se241  1  0.08225634  0.25100832  0.19780817  1
  Se  Se242  1  0.08456983  0.25372692  0.69344378  1
  Se  Se243  1  0.07903282  0.58331783  0.20069011  1
  Se  Se244  1  0.08418151  0.58624208  0.69057767  1
  Se  Se245  1  0.09550037  0.91155968  0.18417268  1
  Se  Se246  1  0.08570027  0.91914387  0.69489610  1
  Se  Se247  1  0.40940295  0.25325013  0.19706926  1
  Se  Se248  1  0.42237861  0.23958035  0.69097085  1
  Se  Se249  1  0.41926219  0.57906000  0.20588303  1
  Se  Se250  1  0.41972086  0.58062554  0.69051647  1
  Se  Se251  1  0.41581208  0.92379690  0.19408126  1
  Se  Se252  1  0.41460175  0.92022225  0.70196281  1
  Se  Se253  1  0.75533142  0.22994436  0.20128668  1
  Se  Se254  1  0.75433254  0.24908962  0.69170101  1
  Se  Se255  1  0.75911893  0.57569778  0.20157218  1
  Se  Se256  1  0.75292655  0.57837100  0.68958632  1
  Se  Se257  1  0.75310821  0.90452257  0.18724217  1
  Se  Se258  1  0.75856048  0.90912479  0.69243645  1
