# generated using pymatgen
data_In86Cu29Se144
_symmetry_space_group_name_H-M   'P 1'
_cell_length_a   17.57616891
_cell_length_b   17.57469849
_cell_length_c   23.43436288
_cell_angle_alpha   89.99474077
_cell_angle_beta   90.02496017
_cell_angle_gamma   90.02393588
_symmetry_Int_Tables_number   1
_chemical_formula_structural   In86Cu29Se144
_chemical_formula_sum   'In86 Cu29 Se144'
_cell_volume   7238.77653840
_cell_formula_units_Z   1
loop_
 _symmetry_equiv_pos_site_id
 _symmetry_equiv_pos_as_xyz
  1  'x, y, z'
loop_
 _atom_site_type_symbol
 _atom_site_label
 _atom_site_symmetry_multiplicity
 _atom_site_fract_x
 _atom_site_fract_y
 _atom_site_fract_z
 _atom_site_occupancy
  In  In0  1  -0.01457977  0.16512684  0.12196127  1
  In  In1  1  0.00757836  0.18556613  0.61028826  1
  In  In2  1  0.00635410  0.48497814  0.12299039  1
  In  In3  1  -0.00261166  0.48374708  0.62282236  1
  In  In4  1  0.01238569  0.84137016  0.12230529  1
  In  In5  1  0.00833380  0.82498544  0.62477320  1
  In  In6  1  0.35036727  0.16421738  0.14802500  1
  In  In7  1  0.31955290  0.17126955  0.61967328  1
  In  In8  1  0.34323120  0.50553993  0.12541085  1
  In  In9  1  0.33996364  0.49360618  0.61305473  1
  In  In10  1  0.33312849  0.83451240  0.12690083  1
  In  In11  1  0.33991421  0.84139325  0.61527172  1
  In  In12  1  0.65791789  0.12347001  0.11251573  1
  In  In13  1  0.67377751  0.15154209  0.63346007  1
  In  In14  1  0.65417368  0.51412940  0.11777944  1
  In  In15  1  0.64935085  0.50383511  0.64253633  1
  In  In16  1  0.67940381  0.85367732  0.09436922  1
  In  In17  1  0.65546266  0.84302294  0.63633805  1
  In  In18  1  0.16681701  0.00004332  0.37413870  1
  In  In19  1  0.16844861  -0.01144415  0.87787339  1
  In  In20  1  0.18884929  0.31058565  0.40329722  1
  In  In21  1  0.17188577  0.34684553  0.86998889  1
  In  In22  1  0.18428002  0.65569163  0.38002699  1
  In  In23  1  0.16807627  0.66540615  0.88415855  1
  In  In24  1  0.48746419  -0.00562886  0.36188999  1
  In  In25  1  0.49359399  -0.00256785  0.86764277  1
  In  In26  1  0.50015142  0.34886856  0.38234862  1
  In  In27  1  0.50942525  0.33328120  0.86977578  1
  In  In28  1  0.48973695  0.67752652  0.38210769  1
  In  In29  1  0.51688494  0.65394318  0.89433673  1
  In  In30  1  0.83726262  0.00757548  0.36467162  1
  In  In31  1  0.81616180  0.00851990  0.89229431  1
  In  In32  1  0.82709251  0.32362229  0.38198466  1
  In  In33  1  0.82610318  0.32533146  0.86678915  1
  In  In34  1  0.83520000  0.66359602  0.37197856  1
  In  In35  1  0.82084219  0.68078729  0.88261075  1
  In  In36  1  0.01000113  0.15983675  0.38746450  1
  In  In37  1  -0.01146004  0.16542576  0.87187769  1
  In  In38  1  0.01791739  0.49560579  0.38017952  1
  In  In39  1  0.01295470  0.50058996  0.87066512  1
  In  In40  1  0.00030023  0.85250941  0.36904403  1
  In  In41  1  0.00087192  0.82976275  0.88565689  1
  In  In42  1  0.32948672  0.15660982  0.36616206  1
  In  In43  1  0.35192035  0.15921943  0.86789619  1
  In  In44  1  0.33260224  0.49816796  0.37442053  1
  In  In45  1  0.33077672  0.50293245  0.88120733  1
  In  In46  1  0.33645313  0.83350748  0.37143367  1
  In  In47  1  0.33361794  0.83639743  0.87976065  1
  In  In48  1  0.67456492  0.16181279  0.37801006  1
  In  In49  1  0.66935117  0.17134717  0.86574169  1
  In  In50  1  0.66012903  0.48824668  0.38093752  1
  In  In51  1  0.65207943  0.49082862  0.86561558  1
  In  In52  1  0.64855842  0.83500233  0.37479740  1
  In  In53  1  0.66073452  0.83447921  0.87744872  1
  In  In54  1  0.17957132  -0.00606841  0.13683818  1
  In  In55  1  0.17415035  0.00803198  0.61406504  1
  In  In56  1  0.17644185  0.34512635  0.12493591  1
  In  In57  1  0.16580495  0.32634500  0.60933960  1
  In  In58  1  0.18114704  0.67525167  0.12175602  1
  In  In59  1  0.17047983  0.66583388  0.61477128  1
  In  In60  1  0.50724776  -0.00240932  0.13765119  1
  In  In61  1  0.50521377  -0.00654770  0.63415283  1
  In  In62  1  0.49063327  0.32742857  0.12541029  1
  In  In63  1  0.49794309  0.34208962  0.62841914  1
  In  In64  1  0.50113056  0.66536336  0.11386213  1
  In  In65  1  0.49782431  0.66746246  0.62460456  1
  In  In66  1  0.83551009  -0.00036267  0.12090690  1
  In  In67  1  0.82075073  0.00339402  0.62838832  1
  In  In68  1  0.84240682  0.32307348  0.12183390  1
  In  In69  1  0.83783349  0.32310589  0.63218079  1
  In  In70  1  0.81357098  0.68342756  0.11672322  1
  In  In71  1  0.82501675  0.65618201  0.63137579  1
  In  In72  1  0.50395508  0.16440982  -0.00387984  1
  In  In73  1  -0.00918621  0.66744693  0.75555779  1
  In  In74  1  0.33649450  0.32894535  0.74610051  1
  In  In75  1  0.83039740  0.49853459  0.50452052  1
  In  In76  1  0.17044216  0.16760408  0.00672022  1
  In  In77  1  0.49536727  0.16627127  0.50106216  1
  In  In78  1  -0.00475921  0.00131924  0.75462692  1
  In  In79  1  0.33734169  0.66782071  0.74398859  1
  In  In80  1  0.83589776  0.49623582  0.00084178  1
  In  In81  1  0.01016460  0.32134985  0.26114463  1
  In  In82  1  0.83261586  0.84024930  0.50421744  1
  In  In83  1  0.66574226  0.32522514  0.24809874  1
  In  In84  1  0.65627235  0.67380337  0.24202774  1
  In  In85  1  0.00894976  0.67351613  0.24063967  1
  Cu  Cu86  1  0.33283191  -0.00351745  0.49133231  1
  Cu  Cu87  1  0.33409086  0.34260342  0.00462846  1
  Cu  Cu88  1  0.66617723  0.33270978  0.50657768  1
  Cu  Cu89  1  0.82255389  0.84216729  0.24357722  1
  Cu  Cu90  1  0.65754924  0.66784879  0.50713874  1
  Cu  Cu91  1  0.17330297  0.84218907  0.75324259  1
  Cu  Cu92  1  0.17110930  0.83379721  0.25191815  1
  Cu  Cu93  1  0.16084344  0.16762660  0.25756610  1
  Cu  Cu94  1  0.49762369  0.82836876  0.75358323  1
  Cu  Cu95  1  0.83639498  0.16797509  0.75032561  1
  Cu  Cu96  1  0.33322092  -0.00384209  0.00557125  1
  Cu  Cu97  1  0.33028783  0.67096340  0.00281823  1
  Cu  Cu98  1  0.83725966  0.50275081  0.25041989  1
  Cu  Cu99  1  0.00159947  0.00605986  0.49616387  1
  Cu  Cu100  1  0.49615379  0.50692686  0.25138047  1
  Cu  Cu101  1  0.00363054  0.65924708  0.00331758  1
  Cu  Cu102  1  0.34005333  0.66774810  0.49656559  1
  Cu  Cu103  1  0.16236454  0.49856391  0.74468408  1
  Cu  Cu104  1  0.82375510  0.49595121  0.75112267  1
  Cu  Cu105  1  0.00572991  0.67537356  0.49814232  1
  Cu  Cu106  1  0.82815829  0.15531284  0.24661499  1
  Cu  Cu107  1  0.66139798  -0.00320118  0.50586537  1
  Cu  Cu108  1  0.00014955  -0.00653955  0.00125177  1
  Cu  Cu109  1  0.66892249  0.32930962  -0.00719945  1
  Cu  Cu110  1  0.82348803  0.83862843  0.75900243  1
  Cu  Cu111  1  0.18387920  0.50101321  0.25007166  1
  Cu  Cu112  1  0.49897550  0.83565809  0.24503993  1
  Cu  Cu113  1  0.16509807  0.16817483  0.73817057  1
  Cu  Cu114  1  0.00498665  0.33002404  -0.00115228  1
  Se  Se115  1  0.08031525  0.07380325  0.06311279  1
  Se  Se116  1  0.08606735  0.08948935  0.54919839  1
  Se  Se117  1  0.08948265  0.41307966  0.04986913  1
  Se  Se118  1  0.09049047  0.42780702  0.55154863  1
  Se  Se119  1  0.08460073  0.74624107  0.05660851  1
  Se  Se120  1  0.09115300  0.75767902  0.54964982  1
  Se  Se121  1  0.40987317  0.08409344  0.06206597  1
  Se  Se122  1  0.40914449  0.07112274  0.56019597  1
  Se  Se123  1  0.42549539  0.42049190  0.05493128  1
  Se  Se124  1  0.41484589  0.39983647  0.54967790  1
  Se  Se125  1  0.41412496  0.75612299  0.05421593  1
  Se  Se126  1  0.42111668  0.75058941  0.55279040  1
  Se  Se127  1  0.76707287  0.08862450  0.04734400  1
  Se  Se128  1  0.74873802  0.08210500  0.55209635  1
  Se  Se129  1  0.74220480  0.40790573  0.06185393  1
  Se  Se130  1  0.74137848  0.41618370  0.56918836  1
  Se  Se131  1  0.73200809  0.73897264  0.03774435  1
  Se  Se132  1  0.74391078  0.74686102  0.56331571  1
  Se  Se133  1  0.26784395  0.25092018  0.06564891  1
  Se  Se134  1  0.25368637  0.24962048  0.54206605  1
  Se  Se135  1  0.25200518  0.58018940  0.05568262  1
  Se  Se136  1  0.25701752  0.58417041  0.55068047  1
  Se  Se137  1  0.24608369  0.91588014  0.05738813  1
  Se  Se138  1  0.24795594  0.91485445  0.54759429  1
  Se  Se139  1  0.59355868  0.25177034  0.06109163  1
  Se  Se140  1  0.58921256  0.24700102  0.56514994  1
  Se  Se141  1  0.58636366  0.59113020  0.04186977  1
  Se  Se142  1  0.58228843  0.57826211  0.56032501  1
  Se  Se143  1  0.58140161  0.94636196  0.05185570  1
  Se  Se144  1  0.57860744  0.91283770  0.55719082  1
  Se  Se145  1  0.91620222  0.24694512  0.04516008  1
  Se  Se146  1  0.90426206  0.25211992  0.55032333  1
  Se  Se147  1  0.92038530  0.58776029  0.06702431  1
  Se  Se148  1  0.92431361  0.59573554  0.55866057  1
  Se  Se149  1  0.91714362  0.90934569  0.05465051  1
  Se  Se150  1  0.92749452  0.92800642  0.56366113  1
  Se  Se151  1  0.06571484  0.26471946  0.45060983  1
  Se  Se152  1  0.08548985  0.25159570  0.93700153  1
  Se  Se153  1  0.08682778  0.58838518  0.44740089  1
  Se  Se154  1  0.08502036  0.57691825  0.94844210  1
  Se  Se155  1  0.08272070  0.91808070  0.44551210  1
  Se  Se156  1  0.08823828  0.91287645  0.95060864  1
  Se  Se157  1  0.40942005  0.25163256  0.43652635  1
  Se  Se158  1  0.40874604  0.25920960  0.94194876  1
  Se  Se159  1  0.42002337  0.57839550  0.44473743  1
  Se  Se160  1  0.41160402  0.58292345  0.95162462  1
  Se  Se161  1  0.42158050  0.91562201  0.44146947  1
  Se  Se162  1  0.41751750  0.92234545  0.94594224  1
  Se  Se163  1  0.74529056  0.24653708  0.45292842  1
  Se  Se164  1  0.75137666  0.24561973  0.94156021  1
  Se  Se165  1  0.73984377  0.59365680  0.44352189  1
  Se  Se166  1  0.74339940  0.57484228  0.93737743  1
  Se  Se167  1  0.74260195  0.92224912  0.43914902  1
  Se  Se168  1  0.76084086  0.89554809  0.94679646  1
  Se  Se169  1  0.24958147  0.08437356  0.44293969  1
  Se  Se170  1  0.26016934  0.08134140  0.94240735  1
  Se  Se171  1  0.23417474  0.43784049  0.44421122  1
  Se  Se172  1  0.24714684  0.41819987  0.94840441  1
  Se  Se173  1  0.25588617  0.75249970  0.44414003  1
  Se  Se174  1  0.24796695  0.75436148  0.94817398  1
  Se  Se175  1  0.58209156  0.07301850  0.44073815  1
  Se  Se176  1  0.59091328  0.07597804  0.93512129  1
  Se  Se177  1  0.58219774  0.42005677  0.45861736  1
  Se  Se178  1  0.58197615  0.41318537  0.94553559  1
  Se  Se179  1  0.58053131  0.75305467  0.45065341  1
  Se  Se180  1  0.55815408  0.77593656  0.94535228  1
  Se  Se181  1  0.90864434  0.08067511  0.44434428  1
  Se  Se182  1  0.92307965  0.08129270  0.94727635  1
  Se  Se183  1  0.91978963  0.41273291  0.44169644  1
  Se  Se184  1  0.92431987  0.40934667  0.93675777  1
  Se  Se185  1  0.92029956  0.74959616  0.43906880  1
  Se  Se186  1  0.91967285  0.74195212  0.95058531  1
  Se  Se187  1  0.24243903  0.25357669  0.30994979  1
  Se  Se188  1  0.24438114  0.23966208  0.80850955  1
  Se  Se189  1  0.26282052  0.59004419  0.30085007  1
  Se  Se190  1  0.24069560  0.57969463  0.80512057  1
  Se  Se191  1  0.25242687  0.91978919  0.30538328  1
  Se  Se192  1  0.25813546  0.92177821  0.80584398  1
  Se  Se193  1  0.57911078  0.24913099  0.31800124  1
  Se  Se194  1  0.56338276  0.23093283  0.80419068  1
  Se  Se195  1  0.58175243  0.58111142  0.31223967  1
  Se  Se196  1  0.57691166  0.59027889  0.80658624  1
  Se  Se197  1  0.58464955  0.91817745  0.29788617  1
  Se  Se198  1  0.58273496  0.91489453  0.80260214  1
  Se  Se199  1  0.90560061  0.23597921  0.31018025  1
  Se  Se200  1  0.92197350  0.25396084  0.79924427  1
  Se  Se201  1  0.92388026  0.57825118  0.30649257  1
  Se  Se202  1  0.90178910  0.57621286  0.81524102  1
  Se  Se203  1  0.91289415  0.91879000  0.29572362  1
  Se  Se204  1  0.91009912  0.91203268  0.81777573  1
  Se  Se205  1  0.07691028  0.08269636  0.30763352  1
  Se  Se206  1  0.09423324  0.09077178  0.80904053  1
  Se  Se207  1  0.10210960  0.41970325  0.30806533  1
  Se  Se208  1  0.08113701  0.41275623  0.79706748  1
  Se  Se209  1  0.09059284  0.75340233  0.31277806  1
  Se  Se210  1  0.09168639  0.75683238  0.80862873  1
  Se  Se211  1  0.42120354  0.09058559  0.29628673  1
  Se  Se212  1  0.41589006  0.07661098  0.79338141  1
  Se  Se213  1  0.41980560  0.41858233  0.30530189  1
  Se  Se214  1  0.41648690  0.42459928  0.80916032  1
  Se  Se215  1  0.42083345  0.75069277  0.30141135  1
  Se  Se216  1  0.42094847  0.74690187  0.81456439  1
  Se  Se217  1  0.73869247  0.07785302  0.29973949  1
  Se  Se218  1  0.75848817  0.08110334  0.80561318  1
  Se  Se219  1  0.75785670  0.42150256  0.30864685  1
  Se  Se220  1  0.74099401  0.40861045  0.80121180  1
  Se  Se221  1  0.75307737  0.75644149  0.30693511  1
  Se  Se222  1  0.74128454  0.74865156  0.80543355  1
  Se  Se223  1  0.24931916  0.08718758  0.20470021  1
  Se  Se224  1  0.24966938  0.08143096  0.69192813  1
  Se  Se225  1  0.26398957  0.41667087  0.19505036  1
  Se  Se226  1  0.24521572  0.41970914  0.68642006  1
  Se  Se227  1  0.25414221  0.74962835  0.19926988  1
  Se  Se228  1  0.24272128  0.75866708  0.68870150  1
  Se  Se229  1  0.56632399  0.10927856  0.19582356  1
  Se  Se230  1  0.58609553  0.07608086  0.70079481  1
  Se  Se231  1  0.58117503  0.42769331  0.19261460  1
  Se  Se232  1  0.58130993  0.40540719  0.70597005  1
  Se  Se233  1  0.58091151  0.76758028  0.17754408  1
  Se  Se234  1  0.57917339  0.74559822  0.69751449  1
  Se  Se235  1  0.91853949  0.07785256  0.19502685  1
  Se  Se236  1  0.91810255  0.09219108  0.68672693  1
  Se  Se237  1  0.91564312  0.41345048  0.19777082  1
  Se  Se238  1  0.91259514  0.41834297  0.69836074  1
  Se  Se239  1  0.90508081  0.75755865  0.18783852  1
  Se  Se240  1  0.90362124  0.76241737  0.69428821  1
  Se  Se241  1  0.09101290  0.24228102  0.18513598  1
  Se  Se242  1  0.08589168  0.25653783  0.68827538  1
  Se  Se243  1  0.09523876  0.57147915  0.18912839  1
  Se  Se244  1  0.08280776  0.58560022  0.68921604  1
  Se  Se245  1  0.08420651  0.91646931  0.20091616  1
  Se  Se246  1  0.08827292  0.91627451  0.69212117  1
  Se  Se247  1  0.41683712  0.26773071  0.20775573  1
  Se  Se248  1  0.42242547  0.23537396  0.68763785  1
  Se  Se249  1  0.42365494  0.59394226  0.19292831  1
  Se  Se250  1  0.42189355  0.56757018  0.69141650  1
  Se  Se251  1  0.41011691  0.92093907  0.19777390  1
  Se  Se252  1  0.41409141  0.90861130  0.69660359  1
  Se  Se253  1  0.75213869  0.23724034  0.18464609  1
  Se  Se254  1  0.74698045  0.24771197  0.69908667  1
  Se  Se255  1  0.75645845  0.57899377  0.19010729  1
  Se  Se256  1  0.74217321  0.58681863  0.70473493  1
  Se  Se257  1  0.74078040  0.91780241  0.18391394  1
  Se  Se258  1  0.74597913  0.92249059  0.70159349  1
