# generated using pymatgen
data_In86Cu29Se144
_symmetry_space_group_name_H-M   'P 1'
_cell_length_a   17.57488749
_cell_length_b   17.57665849
_cell_length_c   23.43555726
_cell_angle_alpha   90.00465591
_cell_angle_beta   89.99361270
_cell_angle_gamma   90.01534544
_symmetry_Int_Tables_number   1
_chemical_formula_structural   In86Cu29Se144
_chemical_formula_sum   'In86 Cu29 Se144'
_cell_volume   7239.42600036
_cell_formula_units_Z   1
loop_
 _symmetry_equiv_pos_site_id
 _symmetry_equiv_pos_as_xyz
  1  'x, y, z'
loop_
 _atom_site_type_symbol
 _atom_site_label
 _atom_site_symmetry_multiplicity
 _atom_site_fract_x
 _atom_site_fract_y
 _atom_site_fract_z
 _atom_site_occupancy
  In  In0  1  -0.01103775  0.18063837  0.12130606  1
  In  In1  1  -0.00407619  0.19006529  0.63031863  1
  In  In2  1  -0.00274082  0.51685667  0.13037327  1
  In  In3  1  -0.01101428  0.49800247  0.62557140  1
  In  In4  1  -0.00036973  0.80865924  0.11830328  1
  In  In5  1  -0.01524459  0.82028027  0.61993055  1
  In  In6  1  0.34725867  0.16204234  0.12976376  1
  In  In7  1  0.33667911  0.16195307  0.61954821  1
  In  In8  1  0.32527808  0.49498427  0.13520392  1
  In  In9  1  0.33080721  0.49192929  0.60720920  1
  In  In10  1  0.33700569  0.83234750  0.11500154  1
  In  In11  1  0.32953767  0.84476670  0.62032640  1
  In  In12  1  0.66529920  0.16997565  0.12407304  1
  In  In13  1  0.66955147  0.16615789  0.62348393  1
  In  In14  1  0.67996755  0.48613057  0.13638723  1
  In  In15  1  0.67192223  0.50084522  0.62291939  1
  In  In16  1  0.66700726  0.83826713  0.12895284  1
  In  In17  1  0.67606622  0.81245743  0.64114794  1
  In  In18  1  0.15611420  0.00042120  0.37812756  1
  In  In19  1  0.15573528  -0.00783513  0.87711673  1
  In  In20  1  0.18700236  0.33512100  0.37857020  1
  In  In21  1  0.16330677  0.34526734  0.87156433  1
  In  In22  1  0.16087270  0.66586103  0.37994027  1
  In  In23  1  0.15788694  0.67751701  0.87515596  1
  In  In24  1  0.51731007  0.00267291  0.37430139  1
  In  In25  1  0.51155956  -0.00729906  0.88126563  1
  In  In26  1  0.50738346  0.32867497  0.37862166  1
  In  In27  1  0.50888213  0.32074330  0.88016402  1
  In  In28  1  0.50748558  0.65027874  0.37789272  1
  In  In29  1  0.51531083  0.67060504  0.87347508  1
  In  In30  1  0.82303807  0.00846658  0.38363651  1
  In  In31  1  0.82933583  0.01721076  0.87577461  1
  In  In32  1  0.81423036  0.35153003  0.38509088  1
  In  In33  1  0.82527907  0.33286761  0.86891105  1
  In  In34  1  0.83785818  0.66314269  0.37186045  1
  In  In35  1  0.83267246  0.66238279  0.86987946  1
  In  In36  1  -0.00645817  0.15880220  0.37686157  1
  In  In37  1  -0.01475475  0.15980239  0.87495594  1
  In  In38  1  -0.01652171  0.51555473  0.38203224  1
  In  In39  1  -0.02316785  0.48799565  0.85614982  1
  In  In40  1  0.00782356  0.82156831  0.38058245  1
  In  In41  1  0.00841999  0.83040059  0.87520271  1
  In  In42  1  0.33450039  0.20213998  0.37654620  1
  In  In43  1  0.34472952  0.17906556  0.87885699  1
  In  In44  1  0.35472489  0.47481204  0.40099979  1
  In  In45  1  0.32802842  0.49700224  0.87231476  1
  In  In46  1  0.32723690  0.82445358  0.37613511  1
  In  In47  1  0.33238968  0.83876287  0.88028357  1
  In  In48  1  0.66745999  0.16698861  0.37724930  1
  In  In49  1  0.66549929  0.16709418  0.87124431  1
  In  In50  1  0.67582580  0.49587355  0.37063258  1
  In  In51  1  0.68981933  0.51709219  0.85120253  1
  In  In52  1  0.67756058  0.84151202  0.36895737  1
  In  In53  1  0.65427392  0.83175954  0.86674139  1
  In  In54  1  0.17790134  -0.00608659  0.12421638  1
  In  In55  1  0.17531886  0.00029981  0.62112529  1
  In  In56  1  0.16303139  0.34662184  0.13584807  1
  In  In57  1  0.14961086  0.33220531  0.62363572  1
  In  In58  1  0.15781032  0.66630134  0.12667872  1
  In  In59  1  0.15375015  0.65594584  0.61787260  1
  In  In60  1  0.51133626  0.00896864  0.11877767  1
  In  In61  1  0.49939291  0.00883521  0.62323555  1
  In  In62  1  0.51165716  0.32261404  0.13244430  1
  In  In63  1  0.51156333  0.34602075  0.60884647  1
  In  In64  1  0.50722586  0.67802514  0.12274782  1
  In  In65  1  0.52144307  0.66102975  0.62573326  1
  In  In66  1  0.81624683  0.00152753  0.12691721  1
  In  In67  1  0.82489099  -0.01229480  0.62005382  1
  In  In68  1  0.82560789  0.32966446  0.11797991  1
  In  In69  1  0.83365872  0.33556086  0.62331066  1
  In  In70  1  0.84441883  0.65135976  0.13930150  1
  In  In71  1  0.82755880  0.66231837  0.62724695  1
  In  In72  1  0.33824579  0.66628853  0.75078702  1
  In  In73  1  0.33198536  0.33086139  0.74789161  1
  In  In74  1  0.15813797  0.50700894  0.00190939  1
  In  In75  1  0.50812346  0.49744940  -0.00224132  1
  In  In76  1  -0.00302658  0.00048076  0.75227724  1
  In  In77  1  0.33711180  0.65768512  0.25605706  1
  In  In78  1  0.50404122  0.83162655  0.50476663  1
  In  In79  1  0.33842114  0.00399152  0.74317032  1
  In  In80  1  -0.00219229  -0.00412089  0.25596111  1
  In  In81  1  0.33939777  0.00569876  0.24640203  1
  In  In82  1  0.16626421  0.16426152  0.00135273  1
  In  In83  1  -0.00458206  0.33896671  0.25508393  1
  In  In84  1  0.83052946  0.83205978  -0.00122086  1
  In  In85  1  0.16324111  0.16770814  0.50063698  1
  Cu  Cu86  1  0.50809190  0.17059916  0.74684477  1
  Cu  Cu87  1  0.50960420  0.83357095  0.24919065  1
  Cu  Cu88  1  0.50343899  0.17125032  0.25264745  1
  Cu  Cu89  1  0.33723763  -0.00228179  0.00211559  1
  Cu  Cu90  1  0.50323585  0.49162666  0.25886205  1
  Cu  Cu91  1  0.17249840  0.49795268  0.26142431  1
  Cu  Cu92  1  0.82944434  0.17109596  0.74840006  1
  Cu  Cu93  1  -0.00296560  -0.00557823  -0.00209883  1
  Cu  Cu94  1  0.33663112  0.67183285  -0.00294937  1
  Cu  Cu95  1  0.67223737  0.66695629  -0.00406018  1
  Cu  Cu96  1  -0.00399266  -0.00465814  0.50023774  1
  Cu  Cu97  1  0.16389643  0.82846785  0.25037264  1
  Cu  Cu98  1  0.50330422  0.49442125  0.74156652  1
  Cu  Cu99  1  0.66831615  0.00095546  0.50204654  1
  Cu  Cu100  1  0.66287638  0.00648046  0.00103515  1
  Cu  Cu101  1  0.33838678  0.32842956  0.00857316  1
  Cu  Cu102  1  -0.01098248  0.33683921  -0.00616517  1
  Cu  Cu103  1  0.32674875  0.66993183  0.49833080  1
  Cu  Cu104  1  0.67095180  0.33480343  -0.00288369  1
  Cu  Cu105  1  0.82871499  0.83079334  0.74860255  1
  Cu  Cu106  1  0.67370015  0.66300973  0.50086781  1
  Cu  Cu107  1  0.33327124  0.00067097  0.49761053  1
  Cu  Cu108  1  0.66987717  0.33131749  0.49903401  1
  Cu  Cu109  1  0.82435147  0.16814755  0.25216511  1
  Cu  Cu110  1  0.83288902  0.82902618  0.25026883  1
  Cu  Cu111  1  -0.00488045  0.33943576  0.50163707  1
  Cu  Cu112  1  0.16164107  0.82905233  0.74567790  1
  Cu  Cu113  1  0.15226802  0.50074638  0.74390493  1
  Cu  Cu114  1  -0.00631500  0.66882123  0.50336127  1
  Se  Se115  1  0.07420797  0.07526903  0.06291711  1
  Se  Se116  1  0.07165617  0.07974862  0.56292545  1
  Se  Se117  1  0.07027270  0.40981951  0.05935644  1
  Se  Se118  1  0.07921089  0.42202211  0.55435995  1
  Se  Se119  1  0.09185404  0.74386280  0.04877205  1
  Se  Se120  1  0.08235471  0.75315990  0.55294816  1
  Se  Se121  1  0.41829923  0.08549888  0.05281714  1
  Se  Se122  1  0.41843947  0.08307102  0.54870389  1
  Se  Se123  1  0.41547501  0.41563915  0.06470422  1
  Se  Se124  1  0.41535607  0.41156772  0.54182776  1
  Se  Se125  1  0.42407815  0.75089411  0.04933872  1
  Se  Se126  1  0.41126081  0.74051237  0.56333098  1
  Se  Se127  1  0.74920672  0.08768096  0.05335905  1
  Se  Se128  1  0.75442742  0.08396897  0.55411051  1
  Se  Se129  1  0.74952638  0.42220823  0.05118569  1
  Se  Se130  1  0.75161472  0.41680236  0.55249016  1
  Se  Se131  1  0.74822685  0.74254739  0.06301481  1
  Se  Se132  1  0.74894533  0.75140735  0.55686005  1
  Se  Se133  1  0.24960720  0.25606408  0.06650278  1
  Se  Se134  1  0.25348050  0.25861128  0.55887490  1
  Se  Se135  1  0.26213286  0.58939304  0.05968399  1
  Se  Se136  1  0.24439543  0.58343110  0.54926082  1
  Se  Se137  1  0.24885832  0.91355280  0.04916187  1
  Se  Se138  1  0.24661778  0.91722038  0.54637871  1
  Se  Se139  1  0.58552945  0.25399793  0.05200925  1
  Se  Se140  1  0.58676754  0.24519310  0.55068546  1
  Se  Se141  1  0.59447227  0.58647843  0.05985466  1
  Se  Se142  1  0.58609184  0.57829272  0.54906460  1
  Se  Se143  1  0.58681556  0.91493764  0.05427927  1
  Se  Se144  1  0.59456027  0.91748949  0.56527848  1
  Se  Se145  1  0.90829005  0.24936364  0.04592286  1
  Se  Se146  1  0.91422007  0.24998936  0.55096258  1
  Se  Se147  1  0.92090380  0.59152820  0.05630947  1
  Se  Se148  1  0.91025319  0.58355273  0.55540666  1
  Se  Se149  1  0.91939742  0.92032085  0.06495208  1
  Se  Se150  1  0.91157469  0.91039149  0.55102513  1
  Se  Se151  1  0.07428437  0.25928886  0.43888713  1
  Se  Se152  1  0.07834109  0.25660890  0.94045841  1
  Se  Se153  1  0.07824836  0.58534562  0.45018977  1
  Se  Se154  1  0.07285500  0.57755747  0.92967955  1
  Se  Se155  1  0.08324194  0.91508063  0.44815271  1
  Se  Se156  1  0.08378972  0.91054392  0.95075667  1
  Se  Se157  1  0.42355105  0.25297939  0.45234570  1
  Se  Se158  1  0.42421792  0.24984560  0.95489508  1
  Se  Se159  1  0.41968312  0.58866740  0.45288521  1
  Se  Se160  1  0.41171564  0.58752660  0.93753559  1
  Se  Se161  1  0.41492046  0.91923010  0.43811935  1
  Se  Se162  1  0.42058874  0.91555855  0.94774782  1
  Se  Se163  1  0.75388616  0.24512519  0.44744732  1
  Se  Se164  1  0.74977305  0.24785187  0.94133147  1
  Se  Se165  1  0.75348222  0.58194606  0.44218977  1
  Se  Se166  1  0.74948578  0.58193173  0.94035109  1
  Se  Se167  1  0.74895903  0.91362183  0.44948231  1
  Se  Se168  1  0.74219984  0.92484621  0.93980954  1
  Se  Se169  1  0.25717171  0.08384418  0.43575159  1
  Se  Se170  1  0.25812667  0.07637903  0.93838322  1
  Se  Se171  1  0.23795054  0.42440526  0.45565627  1
  Se  Se172  1  0.25740881  0.40890545  0.94912898  1
  Se  Se173  1  0.24273058  0.75394846  0.44807919  1
  Se  Se174  1  0.24919902  0.74935296  0.94329837  1
  Se  Se175  1  0.58492135  0.08473896  0.44981431  1
  Se  Se176  1  0.58163740  0.09047936  0.94558328  1
  Se  Se177  1  0.59182990  0.41769155  0.44263665  1
  Se  Se178  1  0.59956959  0.41868710  0.93263713  1
  Se  Se179  1  0.59271137  0.74569093  0.44056561  1
  Se  Se180  1  0.58702666  0.75319707  0.94772839  1
  Se  Se181  1  0.91477588  0.08408267  0.45085651  1
  Se  Se182  1  0.91348515  0.08355008  0.95265746  1
  Se  Se183  1  0.91033384  0.42318193  0.44991332  1
  Se  Se184  1  0.90782891  0.41874538  0.93895203  1
  Se  Se185  1  0.91237751  0.74977213  0.44554465  1
  Se  Se186  1  0.92240364  0.74320412  0.94150121  1
  Se  Se187  1  0.23921808  0.24494421  0.30094538  1
  Se  Se188  1  0.24372128  0.24272151  0.81139174  1
  Se  Se189  1  0.25641400  0.57195938  0.32347431  1
  Se  Se190  1  0.23720346  0.57632039  0.80493086  1
  Se  Se191  1  0.24457374  0.91358888  0.30598098  1
  Se  Se192  1  0.24229181  0.91222045  0.80296000  1
  Se  Se193  1  0.58984035  0.25167847  0.30573433  1
  Se  Se194  1  0.58762758  0.25607432  0.80098790  1
  Se  Se195  1  0.58813348  0.58086072  0.30299685  1
  Se  Se196  1  0.57744465  0.58332094  0.79807933  1
  Se  Se197  1  0.58946416  0.92084999  0.30079934  1
  Se  Se198  1  0.58435820  0.92765910  0.80099438  1
  Se  Se199  1  0.90546613  0.24601955  0.31302486  1
  Se  Se200  1  0.91630478  0.24744413  0.80419484  1
  Se  Se201  1  0.92038013  0.58603092  0.29933050  1
  Se  Se202  1  0.91744208  0.59384170  0.79497432  1
  Se  Se203  1  0.90836397  0.90859025  0.31631371  1
  Se  Se204  1  0.90575981  0.91076397  0.81326963  1
  Se  Se205  1  0.09170186  0.09421546  0.30451090  1
  Se  Se206  1  0.09097727  0.09113056  0.80922615  1
  Se  Se207  1  0.08456472  0.42333907  0.31984541  1
  Se  Se208  1  0.07785573  0.41068057  0.79769468  1
  Se  Se209  1  0.08387742  0.74443816  0.30436269  1
  Se  Se210  1  0.07714276  0.74808096  0.79837015  1
  Se  Se211  1  0.42190021  0.09192230  0.31406922  1
  Se  Se212  1  0.42479063  0.09306404  0.80779330  1
  Se  Se213  1  0.41696041  0.41270417  0.31239569  1
  Se  Se214  1  0.42535777  0.42042532  0.80854280  1
  Se  Se215  1  0.42939259  0.75530716  0.31044030  1
  Se  Se216  1  0.42221579  0.75987530  0.81040590  1
  Se  Se217  1  0.74616112  0.08005961  0.30576046  1
  Se  Se218  1  0.74707110  0.08403603  0.79962294  1
  Se  Se219  1  0.75306054  0.41304937  0.29835506  1
  Se  Se220  1  0.75231365  0.41202485  0.79254425  1
  Se  Se221  1  0.74956104  0.74608009  0.30439107  1
  Se  Se222  1  0.74663186  0.75008453  0.80624907  1
  Se  Se223  1  0.23993243  0.09385148  0.19332133  1
  Se  Se224  1  0.24050443  0.09670221  0.69341827  1
  Se  Se225  1  0.25361739  0.41200315  0.20879406  1
  Se  Se226  1  0.24454226  0.42580824  0.68907718  1
  Se  Se227  1  0.25338217  0.75370807  0.19294303  1
  Se  Se228  1  0.24638017  0.75228326  0.68688140  1
  Se  Se229  1  0.58293850  0.08701120  0.19541955  1
  Se  Se230  1  0.58581920  0.08259782  0.69369673  1
  Se  Se231  1  0.58545927  0.41127732  0.20091875  1
  Se  Se232  1  0.58676283  0.41213059  0.68945722  1
  Se  Se233  1  0.59021449  0.74722806  0.19747748  1
  Se  Se234  1  0.57022707  0.75162025  0.70238387  1
  Se  Se235  1  0.90985218  0.08987351  0.19373904  1
  Se  Se236  1  0.90946206  0.08718489  0.68825356  1
  Se  Se237  1  0.90939165  0.42063028  0.18789681  1
  Se  Se238  1  0.92704605  0.40061367  0.69431357  1
  Se  Se239  1  0.92246001  0.74906583  0.20055218  1
  Se  Se240  1  0.91240365  0.74664657  0.69764318  1
  Se  Se241  1  0.08341071  0.24393522  0.19389866  1
  Se  Se242  1  0.09321915  0.24514926  0.70030606  1
  Se  Se243  1  0.09408687  0.57833430  0.20131287  1
  Se  Se244  1  0.07187516  0.58766900  0.69347355  1
  Se  Se245  1  0.08564793  0.90907472  0.18942049  1
  Se  Se246  1  0.08426222  0.91333919  0.68630539  1
  Se  Se247  1  0.41607574  0.25205872  0.20026141  1
  Se  Se248  1  0.42600185  0.24833310  0.68563612  1
  Se  Se249  1  0.43069231  0.57378481  0.19209949  1
  Se  Se250  1  0.41641034  0.57165812  0.68466640  1
  Se  Se251  1  0.42561502  0.90963915  0.18862684  1
  Se  Se252  1  0.42783195  0.90656604  0.69123208  1
  Se  Se253  1  0.74852546  0.25250401  0.19358625  1
  Se  Se254  1  0.74788106  0.25263737  0.69243220  1
  Se  Se255  1  0.73410237  0.59543430  0.19698658  1
  Se  Se256  1  0.73184015  0.59562176  0.69511173  1
  Se  Se257  1  0.74965355  0.91707133  0.20157874  1
  Se  Se258  1  0.74735215  0.91871022  0.69878258  1
