# generated using pymatgen
data_In86Cu29Se144
_symmetry_space_group_name_H-M   'P 1'
_cell_length_a   17.59386417
_cell_length_b   17.59396625
_cell_length_c   23.45517472
_cell_angle_alpha   90.00640156
_cell_angle_beta   90.03082016
_cell_angle_gamma   89.99231492
_symmetry_Int_Tables_number   1
_chemical_formula_structural   In86Cu29Se144
_chemical_formula_sum   'In86 Cu29 Se144'
_cell_volume   7260.45089433
_cell_formula_units_Z   1
loop_
 _symmetry_equiv_pos_site_id
 _symmetry_equiv_pos_as_xyz
  1  'x, y, z'
loop_
 _atom_site_type_symbol
 _atom_site_label
 _atom_site_symmetry_multiplicity
 _atom_site_fract_x
 _atom_site_fract_y
 _atom_site_fract_z
 _atom_site_occupancy
  In  In0  1  -0.00528185  0.15898879  0.12298675  1
  In  In1  1  0.00013708  0.16525616  0.60790853  1
  In  In2  1  0.02090158  0.50099257  0.13055728  1
  In  In3  1  0.00170581  0.51133490  0.60892396  1
  In  In4  1  0.00252466  0.83097345  0.13178731  1
  In  In5  1  -0.00367672  0.82530612  0.61741772  1
  In  In6  1  0.33826473  0.17953443  0.12100471  1
  In  In7  1  0.33063868  0.16250977  0.61522550  1
  In  In8  1  0.32351238  0.50034635  0.13401443  1
  In  In9  1  0.32949458  0.49688096  0.61724962  1
  In  In10  1  0.31696862  0.83058424  0.12539865  1
  In  In11  1  0.32540251  0.82579298  0.61515679  1
  In  In12  1  0.66463167  0.16967548  0.11061039  1
  In  In13  1  0.66531440  0.16948280  0.62849570  1
  In  In14  1  0.66178414  0.50819613  0.11526618  1
  In  In15  1  0.66380797  0.49756393  0.62697518  1
  In  In16  1  0.67263541  0.82084965  0.11775411  1
  In  In17  1  0.66287953  0.84407772  0.63652855  1
  In  In18  1  0.15166279  0.00669012  0.38290435  1
  In  In19  1  0.16881163  -0.00253615  0.88248073  1
  In  In20  1  0.17339266  0.33445739  0.37219050  1
  In  In21  1  0.16427041  0.33575479  0.88056623  1
  In  In22  1  0.16583203  0.66180390  0.37661504  1
  In  In23  1  0.17963319  0.66219977  0.89359868  1
  In  In24  1  0.50063972  -0.00171897  0.38223593  1
  In  In25  1  0.51597388  -0.00225776  0.87291268  1
  In  In26  1  0.48802574  0.34258408  0.38352089  1
  In  In27  1  0.51711850  0.32622135  0.88813071  1
  In  In28  1  0.49010879  0.66879110  0.38274572  1
  In  In29  1  0.50749388  0.64693540  0.88016828  1
  In  In30  1  0.85689664  -0.00246087  0.38294900  1
  In  In31  1  0.83120911  0.00351343  0.87717728  1
  In  In32  1  0.83357618  0.33416797  0.38356310  1
  In  In33  1  0.81646388  0.32916877  0.87562726  1
  In  In34  1  0.83591305  0.65420470  0.38111760  1
  In  In35  1  0.83693144  0.67876279  0.87166160  1
  In  In36  1  0.00619295  0.16033530  0.38220154  1
  In  In37  1  0.00251133  0.16044208  0.88453528  1
  In  In38  1  0.00268207  0.50816817  0.37812418  1
  In  In39  1  0.00783894  0.50952373  0.87923779  1
  In  In40  1  0.01074595  0.83918036  0.37425923  1
  In  In41  1  0.00409800  0.83125436  0.88398198  1
  In  In42  1  0.32392579  0.17529200  0.37590763  1
  In  In43  1  0.33078805  0.17687303  0.88241375  1
  In  In44  1  0.33025659  0.50234293  0.37334406  1
  In  In45  1  0.33964804  0.50255262  0.88234052  1
  In  In46  1  0.33626118  0.82334402  0.37775189  1
  In  In47  1  0.32854058  0.82180542  0.88198385  1
  In  In48  1  0.66694230  0.16698901  0.38357778  1
  In  In49  1  0.67030105  0.16523929  0.87644364  1
  In  In50  1  0.66672853  0.49466593  0.38514417  1
  In  In51  1  0.66006906  0.49035869  0.86220173  1
  In  In52  1  0.66293942  0.82172314  0.38202559  1
  In  In53  1  0.68343893  0.84708161  0.85466521  1
  In  In54  1  0.15443588  -0.00982901  0.12299997  1
  In  In55  1  0.15474700  -0.00643865  0.60761817  1
  In  In56  1  0.18237194  0.34983395  0.11950407  1
  In  In57  1  0.16721005  0.33553850  0.61706782  1
  In  In58  1  0.16568158  0.66000402  0.13448391  1
  In  In59  1  0.15894270  0.66543040  0.61044508  1
  In  In60  1  0.48831922  0.00959289  0.12376643  1
  In  In61  1  0.50874807  0.00894232  0.61937208  1
  In  In62  1  0.49045574  0.32575827  0.11934248  1
  In  In63  1  0.50484013  0.33887148  0.62194162  1
  In  In64  1  0.49334950  0.65105724  0.12057483  1
  In  In65  1  0.50202175  0.67090599  0.61992335  1
  In  In66  1  0.84282128  0.00676422  0.12099438  1
  In  In67  1  0.81622947  -0.00291643  0.62877473  1
  In  In68  1  0.83535722  0.32744831  0.11864652  1
  In  In69  1  0.82601987  0.32599901  0.62141930  1
  In  In70  1  0.83433369  0.68023182  0.12277001  1
  In  In71  1  0.83720703  0.65775139  0.62469831  1
  In  In72  1  0.50322592  0.83703618  -0.00260633  1
  In  In73  1  0.00911833  0.33430036  0.25399215  1
  In  In74  1  -0.00475517  0.33765875  0.75183751  1
  In  In75  1  0.32610511  -0.00163545  0.24836183  1
  In  In76  1  -0.00702656  -0.00242141  0.74900854  1
  In  In77  1  0.66964179  0.00052657  0.24522843  1
  In  In78  1  0.33939350  0.00090791  0.74684952  1
  In  In79  1  0.83446885  0.49307953  -0.00334893  1
  In  In80  1  0.33694282  0.66429818  0.75891402  1
  In  In81  1  0.66901717  0.66266406  0.25186368  1
  In  In82  1  0.82918224  0.83835080  0.50612920  1
  In  In83  1  0.33747302  0.33772846  0.74246010  1
  In  In84  1  0.66460533  0.32978407  0.24067953  1
  In  In85  1  -0.00160967  0.66868343  0.74299939  1
  Cu  Cu86  1  0.66538237  0.33144104  0.50653547  1
  Cu  Cu87  1  0.84196909  0.15511370  0.25188913  1
  Cu  Cu88  1  0.00266008  -0.00828377  0.00423871  1
  Cu  Cu89  1  0.50344871  0.49659582  0.74955433  1
  Cu  Cu90  1  0.00442367  0.32701993  0.00473553  1
  Cu  Cu91  1  0.67016767  0.66962563  -0.00735028  1
  Cu  Cu92  1  0.49085029  0.49863437  0.25186686  1
  Cu  Cu93  1  0.83952350  0.49818661  0.25433221  1
  Cu  Cu94  1  0.00123541  0.34046853  0.49488523  1
  Cu  Cu95  1  0.33509732  -0.00668800  0.49612296  1
  Cu  Cu96  1  0.33189300  0.34145988  0.00410313  1
  Cu  Cu97  1  0.67053231  0.00014679  -0.00684580  1
  Cu  Cu98  1  0.49790827  0.82529207  0.25483552  1
  Cu  Cu99  1  0.49396236  0.17590817  0.25186283  1
  Cu  Cu100  1  0.50986061  0.16617563  0.75237157  1
  Cu  Cu101  1  0.16432811  0.16881495  0.25060868  1
  Cu  Cu102  1  0.50327329  0.83177038  0.74489030  1
  Cu  Cu103  1  0.16457111  0.82857421  0.25238187  1
  Cu  Cu104  1  0.66261154  0.00383459  0.50730910  1
  Cu  Cu105  1  0.16564830  0.16705622  0.74385971  1
  Cu  Cu106  1  0.00421225  0.66839499  0.00690578  1
  Cu  Cu107  1  0.33272636  0.01182309  0.00203192  1
  Cu  Cu108  1  0.65963243  0.66126621  0.50349677  1
  Cu  Cu109  1  0.82572300  0.16510894  0.75023935  1
  Cu  Cu110  1  0.33323599  0.32893006  0.49676298  1
  Cu  Cu111  1  0.16442102  0.82607999  0.75142157  1
  Cu  Cu112  1  0.84550064  0.83452454  0.25101255  1
  Cu  Cu113  1  0.33178620  0.65931638  0.49458735  1
  Cu  Cu114  1  0.82834102  0.49689727  0.74414176  1
  Se  Se115  1  0.08306552  0.08201779  0.05410684  1
  Se  Se116  1  0.09612293  0.09641818  0.54465025  1
  Se  Se117  1  0.08412423  0.41814058  0.05262934  1
  Se  Se118  1  0.08651268  0.42019660  0.54917312  1
  Se  Se119  1  0.08611676  0.74819315  0.06390880  1
  Se  Se120  1  0.08936914  0.76303997  0.54867524  1
  Se  Se121  1  0.41983806  0.09441721  0.05100976  1
  Se  Se122  1  0.41601482  0.07864454  0.55076702  1
  Se  Se123  1  0.41176241  0.42356905  0.06127937  1
  Se  Se124  1  0.41444794  0.41182818  0.55345963  1
  Se  Se125  1  0.41391804  0.75187108  0.05979885  1
  Se  Se126  1  0.41267668  0.74408134  0.55075766  1
  Se  Se127  1  0.75194265  0.07971766  0.05255234  1
  Se  Se128  1  0.74824926  0.08678234  0.55771809  1
  Se  Se129  1  0.73826808  0.40633346  0.05423809  1
  Se  Se130  1  0.74915552  0.41854130  0.55628021  1
  Se  Se131  1  0.75624277  0.75071969  0.04431490  1
  Se  Se132  1  0.73861808  0.74544902  0.56297943  1
  Se  Se133  1  0.24768362  0.25188405  0.05176182  1
  Se  Se134  1  0.24741629  0.24844245  0.55075394  1
  Se  Se135  1  0.24609999  0.58224501  0.06237234  1
  Se  Se136  1  0.24702928  0.57905704  0.54938222  1
  Se  Se137  1  0.25375906  0.92532430  0.05572415  1
  Se  Se138  1  0.24784843  0.91233419  0.54753649  1
  Se  Se139  1  0.58325624  0.25872155  0.05065016  1
  Se  Se140  1  0.58042900  0.24601971  0.55663866  1
  Se  Se141  1  0.58306854  0.58959556  0.04480577  1
  Se  Se142  1  0.57750931  0.57576072  0.55625721  1
  Se  Se143  1  0.59162327  0.92814589  0.06190160  1
  Se  Se144  1  0.58445576  0.91171161  0.55668462  1
  Se  Se145  1  0.91635665  0.24404547  0.05174787  1
  Se  Se146  1  0.91739956  0.25884284  0.54984751  1
  Se  Se147  1  0.91971747  0.58246135  0.06142621  1
  Se  Se148  1  0.92244884  0.60227142  0.54664762  1
  Se  Se149  1  0.91860975  0.91028613  0.05919174  1
  Se  Se150  1  0.92055556  0.93307750  0.56124723  1
  Se  Se151  1  0.08503183  0.25773020  0.44076570  1
  Se  Se152  1  0.08786495  0.24657446  0.94764013  1
  Se  Se153  1  0.08373299  0.58548354  0.44940413  1
  Se  Se154  1  0.08551352  0.58129377  0.95481340  1
  Se  Se155  1  0.07258800  0.92366587  0.45141892  1
  Se  Se156  1  0.08936338  0.91242810  0.95039185  1
  Se  Se157  1  0.41756789  0.24256100  0.44610604  1
  Se  Se158  1  0.41504942  0.25738187  0.94947569  1
  Se  Se159  1  0.41932767  0.57318487  0.44770144  1
  Se  Se160  1  0.39427180  0.61263941  0.94327529  1
  Se  Se161  1  0.41991710  0.90885128  0.44519333  1
  Se  Se162  1  0.40948574  0.92974165  0.93884853  1
  Se  Se163  1  0.74927697  0.25141351  0.44984423  1
  Se  Se164  1  0.75486146  0.24129084  0.94807699  1
  Se  Se165  1  0.74729633  0.58223047  0.45068632  1
  Se  Se166  1  0.74918891  0.58423636  0.93446851  1
  Se  Se167  1  0.74020877  0.92738191  0.44019641  1
  Se  Se168  1  0.74918822  0.91182822  0.94142756  1
  Se  Se169  1  0.25458646  0.07888088  0.44176457  1
  Se  Se170  1  0.24693578  0.08956086  0.94618089  1
  Se  Se171  1  0.25241951  0.41561057  0.44406538  1
  Se  Se172  1  0.24995221  0.41966411  0.94525829  1
  Se  Se173  1  0.24857213  0.74813281  0.44628241  1
  Se  Se174  1  0.23948490  0.76602543  0.95642177  1
  Se  Se175  1  0.58076543  0.08450185  0.44896995  1
  Se  Se176  1  0.58264720  0.08415169  0.94599509  1
  Se  Se177  1  0.58177937  0.41329597  0.45109266  1
  Se  Se178  1  0.57196967  0.44153650  0.94199300  1
  Se  Se179  1  0.57810814  0.74762470  0.45141534  1
  Se  Se180  1  0.59215856  0.75355605  0.93257453  1
  Se  Se181  1  0.90583781  0.10079185  0.44972636  1
  Se  Se182  1  0.91962642  0.07448193  0.94875900  1
  Se  Se183  1  0.91527505  0.42478205  0.44482128  1
  Se  Se184  1  0.92765294  0.40345936  0.93667583  1
  Se  Se185  1  0.91531936  0.75407217  0.44039011  1
  Se  Se186  1  0.91997476  0.74504009  0.94889408  1
  Se  Se187  1  0.25101062  0.25198390  0.29913462  1
  Se  Se188  1  0.24341929  0.24787094  0.80374149  1
  Se  Se189  1  0.26460579  0.60060408  0.30754662  1
  Se  Se190  1  0.24050416  0.57574707  0.81173952  1
  Se  Se191  1  0.24163076  0.91247227  0.31392171  1
  Se  Se192  1  0.24761834  0.90934162  0.80660813  1
  Se  Se193  1  0.57979588  0.24936513  0.31131895  1
  Se  Se194  1  0.58678185  0.25158312  0.80824553  1
  Se  Se195  1  0.57862648  0.57370843  0.31150170  1
  Se  Se196  1  0.58505775  0.58674156  0.79783593  1
  Se  Se197  1  0.58152324  0.90801445  0.30780070  1
  Se  Se198  1  0.58394486  0.92226860  0.79395428  1
  Se  Se199  1  0.91101377  0.24718346  0.30930324  1
  Se  Se200  1  0.91351284  0.23845156  0.81055857  1
  Se  Se201  1  0.91800688  0.58529568  0.30520622  1
  Se  Se202  1  0.91134754  0.57312245  0.80544234  1
  Se  Se203  1  0.92421478  0.92020432  0.30435517  1
  Se  Se204  1  0.91300175  0.90490269  0.81164185  1
  Se  Se205  1  0.08235963  0.08645079  0.30449370  1
  Se  Se206  1  0.09102820  0.08618238  0.80684649  1
  Se  Se207  1  0.09506984  0.43210492  0.30669314  1
  Se  Se208  1  0.09079435  0.42630544  0.80656507  1
  Se  Se209  1  0.08190590  0.74653105  0.30694065  1
  Se  Se210  1  0.08998363  0.74555366  0.81341773  1
  Se  Se211  1  0.42132422  0.08437545  0.30789132  1
  Se  Se212  1  0.42086703  0.09381376  0.81124503  1
  Se  Se213  1  0.41218516  0.41278901  0.30536268  1
  Se  Se214  1  0.42393462  0.41788791  0.81139678  1
  Se  Se215  1  0.41455479  0.74210526  0.30480511  1
  Se  Se216  1  0.43003102  0.75837803  0.81261679  1
  Se  Se217  1  0.75547719  0.08337428  0.31261257  1
  Se  Se218  1  0.74783482  0.07936546  0.80494425  1
  Se  Se219  1  0.75246194  0.41798345  0.30667594  1
  Se  Se220  1  0.75056896  0.41003166  0.79790857  1
  Se  Se221  1  0.76016480  0.75683632  0.30975385  1
  Se  Se222  1  0.74529598  0.73741478  0.79928591  1
  Se  Se223  1  0.24332362  0.09110480  0.18629978  1
  Se  Se224  1  0.24039653  0.08102223  0.68612180  1
  Se  Se225  1  0.24847726  0.41252623  0.20376697  1
  Se  Se226  1  0.23857582  0.42614761  0.69229791  1
  Se  Se227  1  0.25161110  0.74819129  0.20146609  1
  Se  Se228  1  0.24422177  0.74599169  0.69206130  1
  Se  Se229  1  0.57549778  0.09661222  0.19234070  1
  Se  Se230  1  0.58678629  0.07963091  0.69706422  1
  Se  Se231  1  0.57646741  0.42858432  0.18856608  1
  Se  Se232  1  0.58519513  0.41037917  0.69767241  1
  Se  Se233  1  0.57814895  0.75127618  0.18986264  1
  Se  Se234  1  0.58344003  0.74355482  0.69426974  1
  Se  Se235  1  0.92494648  0.07417289  0.19851612  1
  Se  Se236  1  0.91295265  0.09574155  0.68832100  1
  Se  Se237  1  0.91179220  0.41685232  0.18982692  1
  Se  Se238  1  0.91561084  0.42655951  0.68335918  1
  Se  Se239  1  0.91970668  0.74293528  0.19892736  1
  Se  Se240  1  0.90402594  0.76288729  0.69273337  1
  Se  Se241  1  0.08888623  0.24772392  0.18514076  1
  Se  Se242  1  0.08241805  0.24652947  0.68786694  1
  Se  Se243  1  0.07351136  0.59139841  0.20521379  1
  Se  Se244  1  0.09054547  0.57712557  0.68844459  1
  Se  Se245  1  0.08286519  0.91687107  0.20190558  1
  Se  Se246  1  0.08873953  0.90911725  0.69119724  1
  Se  Se247  1  0.41150524  0.25748003  0.19822009  1
  Se  Se248  1  0.42279888  0.23643578  0.68985827  1
  Se  Se249  1  0.41393318  0.58702435  0.19887743  1
  Se  Se250  1  0.41865005  0.57485070  0.69151466  1
  Se  Se251  1  0.42357171  0.90810767  0.19190488  1
  Se  Se252  1  0.41963956  0.90637774  0.68425763  1
  Se  Se253  1  0.76022047  0.23274105  0.19062405  1
  Se  Se254  1  0.74748598  0.25380572  0.69812427  1
  Se  Se255  1  0.75903782  0.57360867  0.18925918  1
  Se  Se256  1  0.74810303  0.58420170  0.69337285  1
  Se  Se257  1  0.75738437  0.90417022  0.18939683  1
  Se  Se258  1  0.75358102  0.91544609  0.70507854  1
