# generated using pymatgen
data_In86Cu29Se144
_symmetry_space_group_name_H-M   'P 1'
_cell_length_a   17.57451041
_cell_length_b   17.57013227
_cell_length_c   23.43096356
_cell_angle_alpha   90.00579366
_cell_angle_beta   89.99982341
_cell_angle_gamma   90.00345374
_symmetry_Int_Tables_number   1
_chemical_formula_structural   In86Cu29Se144
_chemical_formula_sum   'In86 Cu29 Se144'
_cell_volume   7235.16453054
_cell_formula_units_Z   1
loop_
 _symmetry_equiv_pos_site_id
 _symmetry_equiv_pos_as_xyz
  1  'x, y, z'
loop_
 _atom_site_type_symbol
 _atom_site_label
 _atom_site_symmetry_multiplicity
 _atom_site_fract_x
 _atom_site_fract_y
 _atom_site_fract_z
 _atom_site_occupancy
  In  In0  1  0.00890778  0.18466256  0.11983223  1
  In  In1  1  0.02620290  0.16526421  0.62518561  1
  In  In2  1  -0.01068387  0.48876732  0.12440945  1
  In  In3  1  -0.00673344  0.49018989  0.61993213  1
  In  In4  1  0.00539046  0.83890056  0.11626268  1
  In  In5  1  -0.00253686  0.82498974  0.63133978  1
  In  In6  1  0.33524456  0.18658325  0.11265878  1
  In  In7  1  0.31862848  0.18827892  0.64583735  1
  In  In8  1  0.31430860  0.47267095  0.10343123  1
  In  In9  1  0.33335748  0.49630422  0.62499033  1
  In  In10  1  0.34053090  0.83889934  0.10913736  1
  In  In11  1  0.33818773  0.83274171  0.64714048  1
  In  In12  1  0.66539389  0.16557625  0.12207535  1
  In  In13  1  0.67233307  0.16316251  0.62288132  1
  In  In14  1  0.66652984  0.49838760  0.12858456  1
  In  In15  1  0.66200791  0.50913830  0.60974953  1
  In  In16  1  0.66412634  0.82716776  0.12074741  1
  In  In17  1  0.66319501  0.82631474  0.62609580  1
  In  In18  1  0.17824547  0.00583890  0.37185611  1
  In  In19  1  0.18027570  -0.00766096  0.88517923  1
  In  In20  1  0.16704650  0.33634886  0.36828049  1
  In  In21  1  0.17108474  0.33758235  0.88029343  1
  In  In22  1  0.15586985  0.64021028  0.37306726  1
  In  In23  1  0.18062606  0.65109382  0.87980370  1
  In  In24  1  0.50458465  -0.00453839  0.36523443  1
  In  In25  1  0.49347143  0.00610798  0.88900026  1
  In  In26  1  0.50035371  0.33437940  0.36437445  1
  In  In27  1  0.47203300  0.35021218  0.90580267  1
  In  In28  1  0.50646497  0.65764197  0.37317252  1
  In  In29  1  0.48301583  0.67436330  0.87760854  1
  In  In30  1  0.83067692  0.01051941  0.36446582  1
  In  In31  1  0.82229542  0.00612391  0.89469863  1
  In  In32  1  0.83860338  0.33956956  0.36377680  1
  In  In33  1  0.84320850  0.32783764  0.88475790  1
  In  In34  1  0.82356848  0.65986845  0.37150127  1
  In  In35  1  0.82926409  0.66909445  0.88398416  1
  In  In36  1  0.00903539  0.17875407  0.36567033  1
  In  In37  1  -0.00452837  0.17963554  0.88169062  1
  In  In38  1  0.01862032  0.48156572  0.39115076  1
  In  In39  1  0.01339135  0.48854081  0.88164367  1
  In  In40  1  -0.00363916  0.82244076  0.36919986  1
  In  In41  1  -0.00723062  0.84235515  0.88237726  1
  In  In42  1  0.31779157  0.18186799  0.38065298  1
  In  In43  1  0.33633916  0.17149003  0.88545954  1
  In  In44  1  0.34502567  0.48652047  0.38593828  1
  In  In45  1  0.33205104  0.49404651  0.87701689  1
  In  In46  1  0.33507887  0.84015507  0.37504024  1
  In  In47  1  0.33633441  0.82842466  0.87213918  1
  In  In48  1  0.66665866  0.16778030  0.35556470  1
  In  In49  1  0.65881770  0.16899647  0.89681464  1
  In  In50  1  0.66415822  0.50096987  0.36806296  1
  In  In51  1  0.66449628  0.50371445  0.88453404  1
  In  In52  1  0.66466337  0.82906953  0.35884834  1
  In  In53  1  0.64982276  0.85097781  0.90076539  1
  In  In54  1  0.17768901  0.01468863  0.11254623  1
  In  In55  1  0.17378701  0.01719953  0.62875077  1
  In  In56  1  0.16088121  0.32880085  0.12477246  1
  In  In57  1  0.17013554  0.32860345  0.62943833  1
  In  In58  1  0.16860271  0.66762922  0.11621230  1
  In  In59  1  0.17393322  0.66793905  0.62769697  1
  In  In60  1  0.52547345  0.01249566  0.09978787  1
  In  In61  1  0.49405110  -0.00798443  0.62948355  1
  In  In62  1  0.49735239  0.34066689  0.12082393  1
  In  In63  1  0.48402155  0.34321508  0.62578309  1
  In  In64  1  0.50395035  0.66769181  0.12039590  1
  In  In65  1  0.49708964  0.65545837  0.62680343  1
  In  In66  1  0.81450829  -0.00962710  0.10892210  1
  In  In67  1  0.83042662  -0.00668941  0.62893209  1
  In  In68  1  0.83297812  0.33059955  0.12561565  1
  In  In69  1  0.83103377  0.35112896  0.62412535  1
  In  In70  1  0.82330563  0.65302859  0.12182103  1
  In  In71  1  0.84077265  0.65506666  0.62613825  1
  In  In72  1  0.83635913  0.82142047  0.50062913  1
  In  In73  1  0.50078715  0.82549594  0.49507877  1
  In  In74  1  0.65255104  0.01157633  0.77619304  1
  In  In75  1  0.65512441  0.66936407  0.74899250  1
  In  In76  1  0.34719788  0.66205619  0.24646329  1
  In  In77  1  0.00323605  0.66318144  0.75018020  1
  In  In78  1  -0.00213147  0.01062249  0.24211290  1
  In  In79  1  0.00462675  0.00616849  0.75679562  1
  In  In80  1  0.49489016  0.17351524  0.49687574  1
  In  In81  1  0.65830819  0.33316152  0.75940645  1
  In  In82  1  0.84655724  0.17528074  0.48279548  1
  In  In83  1  0.17069271  0.82386033  0.50984864  1
  In  In84  1  -0.00289879  0.65786950  0.25188074  1
  In  In85  1  0.35028646  0.02039131  0.22876883  1
  Cu  Cu86  1  0.67353210  0.00131186  0.49245137  1
  Cu  Cu87  1  0.49794993  0.16833290  0.23704293  1
  Cu  Cu88  1  -0.00050193  0.00899965  0.00205546  1
  Cu  Cu89  1  0.82958143  0.83055310  0.23668631  1
  Cu  Cu90  1  0.17597858  0.83770564  0.24322463  1
  Cu  Cu91  1  0.83916088  0.49742613  0.75256410  1
  Cu  Cu92  1  0.00535849  0.32413404  0.49923789  1
  Cu  Cu93  1  0.51353778  0.83568958  0.24047488  1
  Cu  Cu94  1  0.49665642  0.49857888  0.24547459  1
  Cu  Cu95  1  0.16387123  0.83341886  0.76056337  1
  Cu  Cu96  1  0.81408245  0.83801069  0.76147620  1
  Cu  Cu97  1  0.65827309  0.34135154  0.49232497  1
  Cu  Cu98  1  0.83027393  0.49425217  0.24791656  1
  Cu  Cu99  1  0.66935808  0.33616061  0.00949804  1
  Cu  Cu100  1  0.33571638  0.66323798  -0.00437298  1
  Cu  Cu101  1  0.49035897  0.49345361  0.75238610  1
  Cu  Cu102  1  0.17524153  0.17317431  0.75785640  1
  Cu  Cu103  1  0.01739111  -0.00603188  0.49908305  1
  Cu  Cu104  1  0.49544747  0.16568608  0.76345351  1
  Cu  Cu105  1  0.00141647  0.34119361  0.00224225  1
  Cu  Cu106  1  0.17335687  0.49076649  0.75423721  1
  Cu  Cu107  1  0.16883440  0.48806910  0.24636161  1
  Cu  Cu108  1  0.32652693  0.66264853  0.50241292  1
  Cu  Cu109  1  0.84302864  0.17788265  0.75524818  1
  Cu  Cu110  1  0.82649122  0.16014751  0.23792207  1
  Cu  Cu111  1  0.32941074  0.01321364  0.50664249  1
  Cu  Cu112  1  0.00106163  0.66971695  -0.00019166  1
  Cu  Cu113  1  0.32296823  -0.00437284  -0.00325344  1
  Cu  Cu114  1  0.67025537  0.65850804  0.00317471  1
  Se  Se115  1  0.08415083  0.09399002  0.05124647  1
  Se  Se116  1  0.09606559  0.08375220  0.54871519  1
  Se  Se117  1  0.08544621  0.42318055  0.05667599  1
  Se  Se118  1  0.08313076  0.40647228  0.55854723  1
  Se  Se119  1  0.08778748  0.75387531  0.04968429  1
  Se  Se120  1  0.06815358  0.73531419  0.56016181  1
  Se  Se121  1  0.40171706  0.07190198  0.05963625  1
  Se  Se122  1  0.41373714  0.08725654  0.56659685  1
  Se  Se123  1  0.41809049  0.41027333  0.04179390  1
  Se  Se124  1  0.42403445  0.43027897  0.55172757  1
  Se  Se125  1  0.42023953  0.74543620  0.04841714  1
  Se  Se126  1  0.40304814  0.75127909  0.56110754  1
  Se  Se127  1  0.74435213  0.08800426  0.04725037  1
  Se  Se128  1  0.75855135  0.08021031  0.54978078  1
  Se  Se129  1  0.75464681  0.42131794  0.05910554  1
  Se  Se130  1  0.74539802  0.41672160  0.54920128  1
  Se  Se131  1  0.75303430  0.74609564  0.05397789  1
  Se  Se132  1  0.74148814  0.73632280  0.55936657  1
  Se  Se133  1  0.24163750  0.25723492  0.04726941  1
  Se  Se134  1  0.25217682  0.24594813  0.55994942  1
  Se  Se135  1  0.24866724  0.58336716  0.04834890  1
  Se  Se136  1  0.24564625  0.58087546  0.55733891  1
  Se  Se137  1  0.23841284  0.90955500  0.04919383  1
  Se  Se138  1  0.26008844  0.92027191  0.56504144  1
  Se  Se139  1  0.58083346  0.25094296  0.05577750  1
  Se  Se140  1  0.59067596  0.25792427  0.55961558  1
  Se  Se141  1  0.58457654  0.57694488  0.05589520  1
  Se  Se142  1  0.58223074  0.60022647  0.54901190  1
  Se  Se143  1  0.56810635  0.88993458  0.05043948  1
  Se  Se144  1  0.59175472  0.92475040  0.55422423  1
  Se  Se145  1  0.91522187  0.25475199  0.05109171  1
  Se  Se146  1  0.92199038  0.24890413  0.56362749  1
  Se  Se147  1  0.92192404  0.58569866  0.05680733  1
  Se  Se148  1  0.90897443  0.57257519  0.55350677  1
  Se  Se149  1  0.91843266  0.91862198  0.05036235  1
  Se  Se150  1  0.92932633  0.92277314  0.55803663  1
  Se  Se151  1  0.08948858  0.24811650  0.44145320  1
  Se  Se152  1  0.08380020  0.25672625  0.94912061  1
  Se  Se153  1  0.07604793  0.58741027  0.45427934  1
  Se  Se154  1  0.08388875  0.58465004  0.94697372  1
  Se  Se155  1  0.08808719  0.90961833  0.43579184  1
  Se  Se156  1  0.08021579  0.92239094  0.94797562  1
  Se  Se157  1  0.40606136  0.26975714  0.44437475  1
  Se  Se158  1  0.44265351  0.22194727  0.95353567  1
  Se  Se159  1  0.41512330  0.59178461  0.44412082  1
  Se  Se160  1  0.41947602  0.57649685  0.94524403  1
  Se  Se161  1  0.41126422  0.93363659  0.44563761  1
  Se  Se162  1  0.40971628  0.91175838  0.94759866  1
  Se  Se163  1  0.73807245  0.25552203  0.43375782  1
  Se  Se164  1  0.75216644  0.25447028  0.95344529  1
  Se  Se165  1  0.74734774  0.57712955  0.44056604  1
  Se  Se166  1  0.75732206  0.57642562  0.95156918  1
  Se  Se167  1  0.75241384  0.91682396  0.43510181  1
  Se  Se168  1  0.76406682  0.90102007  0.95641296  1
  Se  Se169  1  0.24600047  0.08795118  0.44848183  1
  Se  Se170  1  0.24474354  0.09150522  0.95145852  1
  Se  Se171  1  0.22326501  0.44156153  0.43534884  1
  Se  Se172  1  0.24718557  0.42289316  0.95050440  1
  Se  Se173  1  0.25306020  0.74150266  0.43519891  1
  Se  Se174  1  0.25120264  0.74920304  0.94336116  1
  Se  Se175  1  0.58995132  0.08205537  0.43607380  1
  Se  Se176  1  0.60365594  0.05595276  0.95294970  1
  Se  Se177  1  0.57541817  0.41973316  0.43620255  1
  Se  Se178  1  0.58748249  0.41775003  0.95348573  1
  Se  Se179  1  0.59985906  0.74386053  0.43883113  1
  Se  Se180  1  0.58357361  0.73500175  0.94687589  1
  Se  Se181  1  0.93525578  0.06975510  0.43476665  1
  Se  Se182  1  0.91569315  0.09306236  0.95010814  1
  Se  Se183  1  0.91624068  0.40189585  0.44562655  1
  Se  Se184  1  0.91526645  0.42442853  0.94971850  1
  Se  Se185  1  0.92689322  0.73281681  0.44105504  1
  Se  Se186  1  0.91503914  0.75311380  0.94875398  1
  Se  Se187  1  0.25228841  0.25452277  0.30088266  1
  Se  Se188  1  0.25812232  0.25475189  0.81284668  1
  Se  Se189  1  0.25012911  0.57301605  0.30271821  1
  Se  Se190  1  0.25627926  0.57835083  0.80258475  1
  Se  Se191  1  0.25953121  0.92228623  0.29753289  1
  Se  Se192  1  0.25143952  0.91816590  0.80625344  1
  Se  Se193  1  0.57991251  0.25209977  0.29343617  1
  Se  Se194  1  0.57385972  0.24689326  0.82415258  1
  Se  Se195  1  0.58112716  0.58419356  0.29630128  1
  Se  Se196  1  0.57364313  0.57356505  0.81045794  1
  Se  Se197  1  0.59167929  0.92435901  0.29418226  1
  Se  Se198  1  0.56563581  0.90472334  0.81666903  1
  Se  Se199  1  0.90639613  0.23770143  0.30046217  1
  Se  Se200  1  0.92511737  0.26255519  0.80535321  1
  Se  Se201  1  0.91453336  0.56552067  0.31295499  1
  Se  Se202  1  0.91353992  0.57946416  0.81432991  1
  Se  Se203  1  0.91114924  0.90828214  0.29998022  1
  Se  Se204  1  0.90125379  0.92259486  0.81150008  1
  Se  Se205  1  0.09818414  0.09078714  0.30046740  1
  Se  Se206  1  0.09383811  0.09196196  0.81854615  1
  Se  Se207  1  0.07504296  0.41654057  0.30140951  1
  Se  Se208  1  0.08496928  0.41128655  0.80483027  1
  Se  Se209  1  0.09869864  0.75335749  0.30265870  1
  Se  Se210  1  0.08301210  0.75282205  0.81774768  1
  Se  Se211  1  0.42196878  0.09844350  0.31090730  1
  Se  Se212  1  0.41280256  0.08083065  0.81469811  1
  Se  Se213  1  0.41081703  0.41940721  0.30084258  1
  Se  Se214  1  0.41785892  0.40584040  0.81097425  1
  Se  Se215  1  0.42906553  0.76513256  0.30616716  1
  Se  Se216  1  0.41072739  0.74467424  0.79915814  1
  Se  Se217  1  0.74360032  0.07512327  0.29037772  1
  Se  Se218  1  0.75917813  0.10210474  0.81781330  1
  Se  Se219  1  0.74273444  0.41179547  0.29979464  1
  Se  Se220  1  0.75571850  0.42235192  0.81404457  1
  Se  Se221  1  0.75567444  0.74654618  0.29716211  1
  Se  Se222  1  0.73717719  0.75475572  0.81928148  1
  Se  Se223  1  0.24243452  0.10503057  0.18752970  1
  Se  Se224  1  0.25439058  0.08189074  0.70737325  1
  Se  Se225  1  0.25372287  0.40870899  0.19211104  1
  Se  Se226  1  0.25600079  0.41152895  0.69655764  1
  Se  Se227  1  0.25562523  0.75509478  0.18646297  1
  Se  Se228  1  0.24249758  0.74884399  0.70341937  1
  Se  Se229  1  0.58031941  0.07904541  0.18977421  1
  Se  Se230  1  0.57911364  0.09449883  0.69704413  1
  Se  Se231  1  0.58222685  0.41345695  0.19512225  1
  Se  Se232  1  0.58239711  0.42728460  0.69060780  1
  Se  Se233  1  0.58934485  0.74026516  0.19409836  1
  Se  Se234  1  0.56298455  0.76324107  0.69373931  1
  Se  Se235  1  0.90698705  0.08581576  0.17474762  1
  Se  Se236  1  0.91323005  0.09136123  0.69134207  1
  Se  Se237  1  0.91612593  0.40952647  0.19940366  1
  Se  Se238  1  0.91984691  0.41349679  0.69901948  1
  Se  Se239  1  0.91879105  0.75126673  0.18496394  1
  Se  Se240  1  0.89746558  0.75761556  0.70203181  1
  Se  Se241  1  0.07382331  0.25928516  0.19930542  1
  Se  Se242  1  0.08639990  0.24931928  0.70283747  1
  Se  Se243  1  0.09252117  0.57708875  0.18906731  1
  Se  Se244  1  0.09127236  0.57007297  0.69224583  1
  Se  Se245  1  0.09527476  0.91987943  0.18724892  1
  Se  Se246  1  0.08950113  0.91173315  0.69319230  1
  Se  Se247  1  0.41424022  0.25568387  0.19070275  1
  Se  Se248  1  0.42592042  0.25464054  0.70316905  1
  Se  Se249  1  0.41527042  0.56757322  0.17756081  1
  Se  Se250  1  0.41254820  0.58115094  0.69746186  1
  Se  Se251  1  0.43109537  0.91322734  0.18069759  1
  Se  Se252  1  0.41358527  0.92883317  0.70647285  1
  Se  Se253  1  0.74412146  0.25051140  0.19252609  1
  Se  Se254  1  0.75408903  0.24786402  0.69471504  1
  Se  Se255  1  0.74774145  0.58247328  0.20025761  1
  Se  Se256  1  0.75112288  0.57348972  0.69556054  1
  Se  Se257  1  0.74448139  0.91579378  0.18923231  1
  Se  Se258  1  0.73720308  0.92022806  0.70064408  1
