# generated using pymatgen
data_In86Cu29Se144
_symmetry_space_group_name_H-M   'P 1'
_cell_length_a   17.67200133
_cell_length_b   17.68539887
_cell_length_c   23.52466880
_cell_angle_alpha   90.01302949
_cell_angle_beta   90.01471553
_cell_angle_gamma   90.01941290
_symmetry_Int_Tables_number   1
_chemical_formula_structural   In86Cu29Se144
_chemical_formula_sum   'In86 Cu29 Se144'
_cell_volume   7352.31426202
_cell_formula_units_Z   1
loop_
 _symmetry_equiv_pos_site_id
 _symmetry_equiv_pos_as_xyz
  1  'x, y, z'
loop_
 _atom_site_type_symbol
 _atom_site_label
 _atom_site_symmetry_multiplicity
 _atom_site_fract_x
 _atom_site_fract_y
 _atom_site_fract_z
 _atom_site_occupancy
  In  In0  1  0.00945210  0.16258180  0.12908173  1
  In  In1  1  0.00913411  0.15226698  0.62820574  1
  In  In2  1  -0.00286649  0.48869096  0.11425754  1
  In  In3  1  0.03576032  0.45878970  0.68622681  1
  In  In4  1  0.00942248  0.84574243  0.11202319  1
  In  In5  1  0.01964286  0.81571424  0.64379788  1
  In  In6  1  0.32221547  0.16755730  0.12245602  1
  In  In7  1  0.32267003  0.17271446  0.62642584  1
  In  In8  1  0.32852702  0.50546635  0.11434953  1
  In  In9  1  0.33762547  0.49424507  0.62973632  1
  In  In10  1  0.33919093  0.83903680  0.11867008  1
  In  In11  1  0.34056506  0.81664711  0.63507656  1
  In  In12  1  0.67236064  0.17517913  0.12872866  1
  In  In13  1  0.66004276  0.15812185  0.62562256  1
  In  In14  1  0.67042905  0.49345589  0.11290549  1
  In  In15  1  0.66381216  0.51032474  0.62593052  1
  In  In16  1  0.67099527  0.82942114  0.11350867  1
  In  In17  1  0.66754950  0.83796592  0.62791142  1
  In  In18  1  0.17786143  0.00540661  0.36761718  1
  In  In19  1  0.16779043  0.00210143  0.87700572  1
  In  In20  1  0.16146681  0.34247757  0.38322095  1
  In  In21  1  0.16763803  0.33091874  0.87009212  1
  In  In22  1  0.15667371  0.65912738  0.38279515  1
  In  In23  1  0.15006170  0.66710817  0.87611697  1
  In  In24  1  0.48666465  0.00314214  0.37795252  1
  In  In25  1  0.48685278  -0.01103655  0.87122937  1
  In  In26  1  0.50899584  0.33243980  0.37343302  1
  In  In27  1  0.49095425  0.36167809  0.87131862  1
  In  In28  1  0.49119097  0.66807713  0.38812433  1
  In  In29  1  0.49350969  0.66911986  0.87475641  1
  In  In30  1  0.83929441  -0.01250459  0.36874238  1
  In  In31  1  0.81540827  -0.01202478  0.86327261  1
  In  In32  1  0.83620013  0.33943853  0.36716855  1
  In  In33  1  0.84032216  0.32539797  0.87014094  1
  In  In34  1  0.83599361  0.67811149  0.37603718  1
  In  In35  1  0.85334601  0.66231988  0.87924961  1
  In  In36  1  0.01300283  0.17663115  0.37559832  1
  In  In37  1  0.00394277  0.17118282  0.86780484  1
  In  In38  1  0.00857823  0.49918654  0.37930209  1
  In  In39  1  0.00163115  0.49905421  0.86699691  1
  In  In40  1  -0.00679306  0.83013397  0.37166567  1
  In  In41  1  -0.00719154  0.84291386  0.87872750  1
  In  In42  1  0.33141603  0.15388211  0.37507452  1
  In  In43  1  0.32822727  0.15680532  0.86893075  1
  In  In44  1  0.32919604  0.49630895  0.38402654  1
  In  In45  1  0.32594780  0.49953929  0.86732205  1
  In  In46  1  0.32858176  0.84249375  0.37739973  1
  In  In47  1  0.33261664  0.82903934  0.87346596  1
  In  In48  1  0.64999938  0.17370292  0.36901515  1
  In  In49  1  0.67134761  0.17080798  0.87540834  1
  In  In50  1  0.66032985  0.48918863  0.37055505  1
  In  In51  1  0.66174073  0.50372084  0.88322004  1
  In  In52  1  0.66547095  0.82413861  0.37580642  1
  In  In53  1  0.65967954  0.83030227  0.88193480  1
  In  In54  1  0.16677596  0.00296093  0.12213486  1
  In  In55  1  0.16184441  0.00101546  0.62906807  1
  In  In56  1  0.16758787  0.32084701  0.12022029  1
  In  In57  1  0.17197722  0.33053392  0.62385072  1
  In  In58  1  0.15222603  0.66640157  0.10486864  1
  In  In59  1  0.19306248  0.61800603  0.68806688  1
  In  In60  1  0.50188597  -0.01166504  0.12519886  1
  In  In61  1  0.50352294  -0.01074971  0.63115448  1
  In  In62  1  0.49929399  0.34695879  0.12366722  1
  In  In63  1  0.48485649  0.33712886  0.62551650  1
  In  In64  1  0.50383168  0.66661031  0.11239329  1
  In  In65  1  0.49106899  0.65568369  0.62020295  1
  In  In66  1  0.84618635  0.01429964  0.12220638  1
  In  In67  1  0.84767206  -0.02574503  0.64566390  1
  In  In68  1  0.83535852  0.34301436  0.12977481  1
  In  In69  1  0.84841430  0.34739859  0.62865755  1
  In  In70  1  0.85387618  0.65832415  0.09613160  1
  In  In71  1  0.85048687  0.66051562  0.63943702  1
  In  In72  1  0.66669623  0.66017348  0.23274111  1
  In  In73  1  0.82941154  0.16275947  0.49781353  1
  In  In74  1  0.82877560  0.51084824  0.50343739  1
  In  In75  1  0.83677773  0.17318761  -0.00414615  1
  In  In76  1  0.16783425  0.83247153  0.50855014  1
  In  In77  1  0.32822863  0.67226605  0.24121336  1
  In  In78  1  0.49610919  0.17432460  0.00178752  1
  In  In79  1  0.83378436  0.83021033  0.51579040  1
  In  In80  1  0.66642744  0.66731003  0.76029130  1
  In  In81  1  0.66818700  0.00645911  0.24634431  1
  In  In82  1  0.49465396  0.16940442  0.49541883  1
  In  In83  1  0.33505940  0.32955794  0.24904951  1
  In  In84  1  -0.00068219  0.66611922  0.24151065  1
  In  In85  1  0.66627082  0.32915613  0.75062895  1
  Cu  Cu86  1  0.00643613  0.34100230  0.51120889  1
  Cu  Cu87  1  0.83636198  0.50067490  0.24378261  1
  Cu  Cu88  1  0.50029600  0.82845375  0.75372975  1
  Cu  Cu89  1  0.00826651  0.33048472  -0.00707592  1
  Cu  Cu90  1  0.84018895  0.17359475  0.24965358  1
  Cu  Cu91  1  0.50137780  0.16140112  0.74898728  1
  Cu  Cu92  1  0.16466759  0.16527137  0.24780420  1
  Cu  Cu93  1  0.66822601  -0.00486754  0.50940958  1
  Cu  Cu94  1  0.84141042  0.83558483  0.24199315  1
  Cu  Cu95  1  0.00889015  0.65680322  0.51081198  1
  Cu  Cu96  1  0.16521311  0.49652584  0.25288940  1
  Cu  Cu97  1  0.65671313  0.66921760  0.50069654  1
  Cu  Cu98  1  0.32610692  0.33921053  0.50444380  1
  Cu  Cu99  1  0.66969849  0.66079997  -0.00680473  1
  Cu  Cu100  1  0.32700293  0.66099068  -0.00848613  1
  Cu  Cu101  1  0.00877134  -0.00024348  0.49976303  1
  Cu  Cu102  1  0.33201383  0.33985989  -0.00431347  1
  Cu  Cu103  1  0.33077377  -0.00440709  -0.00570056  1
  Cu  Cu104  1  0.83456093  0.16583821  0.75073822  1
  Cu  Cu105  1  0.16826644  0.16078777  0.74971705  1
  Cu  Cu106  1  0.66002675  -0.00014836  -0.00264458  1
  Cu  Cu107  1  0.16527997  0.84448502  0.76098706  1
  Cu  Cu108  1  0.65929210  0.34104097  0.49433958  1
  Cu  Cu109  1  -0.00051967  0.00654286  -0.00346846  1
  Cu  Cu110  1  0.32171009  0.65834599  0.51748906  1
  Cu  Cu111  1  0.50691326  0.50128874  0.24596115  1
  Cu  Cu112  1  0.16283617  0.84130728  0.24189256  1
  Cu  Cu113  1  0.49183644  0.84192796  0.24891256  1
  Cu  Cu114  1  0.33338024  -0.00047196  0.49882048  1
  Se  Se115  1  0.08325032  0.08622243  0.05304707  1
  Se  Se116  1  0.09076081  0.08252532  0.55223030  1
  Se  Se117  1  0.08998175  0.40803443  0.05285549  1
  Se  Se118  1  0.06859652  0.42081197  0.57991513  1
  Se  Se119  1  0.08429992  0.76282471  0.04266561  1
  Se  Se120  1  0.09104509  0.73568841  0.56820864  1
  Se  Se121  1  0.41130372  0.07445787  0.05750167  1
  Se  Se122  1  0.41521822  0.07768951  0.56015300  1
  Se  Se123  1  0.41450712  0.41918030  0.05206772  1
  Se  Se124  1  0.41644485  0.41976854  0.55091309  1
  Se  Se125  1  0.40745688  0.74220398  0.05198815  1
  Se  Se126  1  0.41326561  0.74765774  0.55446898  1
  Se  Se127  1  0.74056821  0.08174563  0.05524085  1
  Se  Se128  1  0.75421672  0.07026816  0.56519368  1
  Se  Se129  1  0.77713674  0.43121345  0.05451992  1
  Se  Se130  1  0.74276181  0.40989091  0.55917006  1
  Se  Se131  1  0.75148649  0.74300635  0.04839467  1
  Se  Se132  1  0.74282819  0.73226882  0.56554410  1
  Se  Se133  1  0.25473114  0.25027100  0.04784205  1
  Se  Se134  1  0.24704025  0.24648173  0.54978356  1
  Se  Se135  1  0.24238291  0.58014083  0.04571023  1
  Se  Se136  1  0.23981947  0.58738964  0.58177273  1
  Se  Se137  1  0.24936124  0.91800853  0.05440201  1
  Se  Se138  1  0.26157086  0.92007014  0.56477009  1
  Se  Se139  1  0.59152871  0.26041728  0.05846787  1
  Se  Se140  1  0.58761985  0.25559407  0.55688043  1
  Se  Se141  1  0.58631999  0.58016554  0.04925912  1
  Se  Se142  1  0.58023081  0.57867469  0.55170455  1
  Se  Se143  1  0.58202561  0.91413472  0.05215069  1
  Se  Se144  1  0.58127385  0.91144180  0.55611550  1
  Se  Se145  1  0.92786698  0.25571143  0.05889316  1
  Se  Se146  1  0.91989417  0.25182550  0.55959303  1
  Se  Se147  1  0.95778494  0.59019956  0.03910234  1
  Se  Se148  1  0.92673741  0.57790606  0.56778775  1
  Se  Se149  1  0.91341018  0.92647638  0.05142301  1
  Se  Se150  1  0.93582223  0.91822726  0.56259704  1
  Se  Se151  1  0.08167430  0.25764323  0.45217104  1
  Se  Se152  1  0.08807898  0.24457490  0.94046057  1
  Se  Se153  1  0.08781295  0.57278174  0.45475434  1
  Se  Se154  1  0.06844966  0.58373050  0.94532059  1
  Se  Se155  1  0.08193322  0.91535789  0.43775916  1
  Se  Se156  1  0.08400488  0.92195292  0.94626940  1
  Se  Se157  1  0.40304529  0.26240654  0.43798845  1
  Se  Se158  1  0.41035459  0.25792303  0.93544254  1
  Se  Se159  1  0.40369588  0.58653437  0.45143787  1
  Se  Se160  1  0.41113105  0.57928249  0.93808717  1
  Se  Se161  1  0.41630331  0.91444803  0.44795215  1
  Se  Se162  1  0.41546359  0.90943350  0.94645531  1
  Se  Se163  1  0.74136209  0.25906453  0.43821004  1
  Se  Se164  1  0.74078395  0.26469283  0.94498736  1
  Se  Se165  1  0.73698073  0.59460595  0.43563237  1
  Se  Se166  1  0.75851402  0.58277238  0.94225111  1
  Se  Se167  1  0.74822020  0.91749518  0.44475900  1
  Se  Se168  1  0.74554437  0.91877055  0.94532017  1
  Se  Se169  1  0.24733155  0.08143408  0.44733264  1
  Se  Se170  1  0.25095125  0.08594566  0.94669576  1
  Se  Se171  1  0.24076648  0.42462826  0.45378778  1
  Se  Se172  1  0.24598111  0.41726688  0.94000728  1
  Se  Se173  1  0.25583639  0.73924386  0.44411881  1
  Se  Se174  1  0.24553791  0.74622534  0.93899908  1
  Se  Se175  1  0.59367077  0.07484668  0.44430116  1
  Se  Se176  1  0.58131801  0.08128904  0.93887769  1
  Se  Se177  1  0.57436875  0.42385428  0.44539608  1
  Se  Se178  1  0.58203008  0.41311193  0.94624785  1
  Se  Se179  1  0.57885539  0.75594571  0.44815221  1
  Se  Se180  1  0.57895206  0.74289914  0.94729462  1
  Se  Se181  1  0.92361482  0.07275572  0.43905892  1
  Se  Se182  1  0.91594801  0.07979705  0.93386317  1
  Se  Se183  1  0.92012013  0.41193152  0.44761479  1
  Se  Se184  1  0.92560968  0.40730378  0.93544278  1
  Se  Se185  1  0.92949455  0.74042165  0.45202971  1
  Se  Se186  1  0.91287525  0.75995936  0.94806433  1
  Se  Se187  1  0.24181908  0.24624080  0.31125212  1
  Se  Se188  1  0.25025978  0.24541393  0.80249359  1
  Se  Se189  1  0.24470000  0.58090411  0.30891610  1
  Se  Se190  1  0.23082384  0.58188370  0.80545679  1
  Se  Se191  1  0.25103115  0.91263692  0.30059813  1
  Se  Se192  1  0.25565555  0.92311580  0.80883754  1
  Se  Se193  1  0.58411074  0.26095741  0.29784102  1
  Se  Se194  1  0.57119759  0.24648761  0.81199929  1
  Se  Se195  1  0.57705471  0.58793506  0.30809280  1
  Se  Se196  1  0.57193946  0.57194845  0.80778484  1
  Se  Se197  1  0.58136514  0.91290844  0.30826071  1
  Se  Se198  1  0.58064415  0.91000722  0.80937590  1
  Se  Se199  1  0.92259276  0.25192442  0.30771722  1
  Se  Se200  1  0.92107436  0.25105263  0.79697219  1
  Se  Se201  1  0.91031846  0.57996866  0.31056460  1
  Se  Se202  1  0.93457435  0.59920949  0.79930333  1
  Se  Se203  1  0.92393290  0.91450300  0.29740570  1
  Se  Se204  1  0.92604418  0.93387089  0.80633042  1
  Se  Se205  1  0.08378254  0.08476419  0.30693049  1
  Se  Se206  1  0.08550249  0.08108844  0.80490806  1
  Se  Se207  1  0.08227471  0.41597183  0.30711038  1
  Se  Se208  1  0.08557789  0.41390968  0.79919960  1
  Se  Se209  1  0.09275440  0.75322461  0.30538673  1
  Se  Se210  1  0.07769721  0.76125973  0.80886603  1
  Se  Se211  1  0.42977208  0.09653515  0.30761927  1
  Se  Se212  1  0.41716901  0.07961089  0.80221638  1
  Se  Se213  1  0.42060664  0.42948748  0.30713474  1
  Se  Se214  1  0.40166719  0.41444368  0.79533728  1
  Se  Se215  1  0.41982325  0.75388863  0.30795467  1
  Se  Se216  1  0.41219889  0.74525509  0.80182170  1
  Se  Se217  1  0.75902255  0.09334009  0.31157009  1
  Se  Se218  1  0.74429141  0.08994023  0.80234639  1
  Se  Se219  1  0.75209444  0.42336184  0.30075534  1
  Se  Se220  1  0.74902227  0.42065219  0.81303734  1
  Se  Se221  1  0.75611635  0.75513727  0.29831427  1
  Se  Se222  1  0.75839209  0.75319611  0.81676076  1
  Se  Se223  1  0.24879127  0.08434275  0.19469291  1
  Se  Se224  1  0.25261841  0.07980384  0.69419503  1
  Se  Se225  1  0.24775731  0.42325605  0.19054881  1
  Se  Se226  1  0.26831372  0.39477754  0.69253540  1
  Se  Se227  1  0.23426964  0.75558652  0.18154209  1
  Se  Se228  1  0.23230840  0.76039069  0.69653131  1
  Se  Se229  1  0.57476688  0.09231369  0.18891123  1
  Se  Se230  1  0.58439068  0.07803872  0.69724420  1
  Se  Se231  1  0.58997184  0.42289608  0.19068802  1
  Se  Se232  1  0.57820084  0.42047893  0.69058848  1
  Se  Se233  1  0.57245488  0.76222437  0.18843650  1
  Se  Se234  1  0.57856588  0.74817785  0.69189746  1
  Se  Se235  1  0.92037047  0.08649141  0.19892734  1
  Se  Se236  1  0.91832550  0.08258096  0.69799173  1
  Se  Se237  1  0.92693670  0.41942715  0.19664816  1
  Se  Se238  1  0.89970238  0.41673139  0.71484878  1
  Se  Se239  1  0.91212847  0.75262201  0.17895816  1
  Se  Se240  1  0.88509989  0.78951078  0.68185604  1
  Se  Se241  1  0.08525837  0.25306138  0.19676194  1
  Se  Se242  1  0.08892961  0.24224471  0.69146264  1
  Se  Se243  1  0.09248217  0.57567312  0.18696083  1
  Se  Se244  1  0.04588027  0.60560827  0.70426577  1
  Se  Se245  1  0.07815819  0.92329037  0.19109597  1
  Se  Se246  1  0.08222572  0.92298392  0.70162482  1
  Se  Se247  1  0.42251097  0.24504117  0.18553034  1
  Se  Se248  1  0.42022796  0.24153996  0.69227477  1
  Se  Se249  1  0.42474868  0.57962936  0.18775395  1
  Se  Se250  1  0.41228312  0.58863907  0.69549020  1
  Se  Se251  1  0.40890103  0.92213833  0.19543998  1
  Se  Se252  1  0.41712737  0.91045958  0.69862746  1
  Se  Se253  1  0.75617896  0.25422256  0.19625519  1
  Se  Se254  1  0.75777407  0.24421280  0.68512505  1
  Se  Se255  1  0.77114085  0.58397968  0.17855931  1
  Se  Se256  1  0.75609369  0.57448879  0.69910676  1
  Se  Se257  1  0.75595744  0.91426712  0.18561362  1
  Se  Se258  1  0.73047563  0.92723247  0.70003597  1
