# generated using pymatgen
data_In86Cu29Se144
_symmetry_space_group_name_H-M   'P 1'
_cell_length_a   17.58385002
_cell_length_b   17.58668650
_cell_length_c   23.44432371
_cell_angle_alpha   90.01023804
_cell_angle_beta   90.02292431
_cell_angle_gamma   89.98389047
_symmetry_Int_Tables_number   1
_chemical_formula_structural   In86Cu29Se144
_chemical_formula_sum   'In86 Cu29 Se144'
_cell_volume   7249.96054487
_cell_formula_units_Z   1
loop_
 _symmetry_equiv_pos_site_id
 _symmetry_equiv_pos_as_xyz
  1  'x, y, z'
loop_
 _atom_site_type_symbol
 _atom_site_label
 _atom_site_symmetry_multiplicity
 _atom_site_fract_x
 _atom_site_fract_y
 _atom_site_fract_z
 _atom_site_occupancy
  In  In0  1  0.00808592  0.17383746  0.12001237  1
  In  In1  1  0.00581674  0.17219950  0.63038533  1
  In  In2  1  -0.00596434  0.50785777  0.13123029  1
  In  In3  1  -0.01349267  0.50076475  0.62332968  1
  In  In4  1  -0.01337155  0.83247598  0.12238387  1
  In  In5  1  0.00430635  0.81852803  0.62312922  1
  In  In6  1  0.33608018  0.16832445  0.12779833  1
  In  In7  1  0.34477573  0.15886427  0.62747446  1
  In  In8  1  0.33346471  0.50185983  0.13122656  1
  In  In9  1  0.33138833  0.50033872  0.63191524  1
  In  In10  1  0.36720130  0.81948263  0.14657726  1
  In  In11  1  0.32885801  0.82207832  0.61771742  1
  In  In12  1  0.66984160  0.17313298  0.11708566  1
  In  In13  1  0.65149763  0.16681417  0.62500951  1
  In  In14  1  0.66906824  0.49714824  0.12568989  1
  In  In15  1  0.68127946  0.50022980  0.62385459  1
  In  In16  1  0.65017505  0.81614630  0.11082872  1
  In  In17  1  0.65827364  0.84438517  0.63653216  1
  In  In18  1  0.17008004  -0.01771029  0.37973461  1
  In  In19  1  0.17920373  0.00278850  0.87685291  1
  In  In20  1  0.16525002  0.33233052  0.36928414  1
  In  In21  1  0.16048099  0.33447628  0.87401862  1
  In  In22  1  0.17696546  0.67660059  0.36609158  1
  In  In23  1  0.16916411  0.66394032  0.87033500  1
  In  In24  1  0.49240379  0.00458973  0.37407672  1
  In  In25  1  0.50954756  -0.01158209  0.88627681  1
  In  In26  1  0.49282928  0.32083310  0.36150517  1
  In  In27  1  0.48568241  0.33281162  0.87837530  1
  In  In28  1  0.50669793  0.67880378  0.36300808  1
  In  In29  1  0.50944027  0.67680002  0.87178847  1
  In  In30  1  0.83236564  0.00383353  0.37308194  1
  In  In31  1  0.82654286  0.00470965  0.87583906  1
  In  In32  1  0.84274473  0.34750597  0.36651499  1
  In  In33  1  0.83652229  0.33083178  0.88334731  1
  In  In34  1  0.82536968  0.65140103  0.36929882  1
  In  In35  1  0.79559768  0.69484166  0.91159871  1
  In  In36  1  -0.00759439  0.17808237  0.37043416  1
  In  In37  1  -0.00936064  0.18122292  0.88234356  1
  In  In38  1  -0.01486474  0.48740465  0.36993662  1
  In  In39  1  -0.00360481  0.49159104  0.87447099  1
  In  In40  1  0.01428559  0.83474255  0.37481608  1
  In  In41  1  -0.00770966  0.81910460  0.87335007  1
  In  In42  1  0.35067033  0.16904448  0.35859730  1
  In  In43  1  0.32346722  0.17045441  0.88690603  1
  In  In44  1  0.33147865  0.50061981  0.36562104  1
  In  In45  1  0.33922945  0.50109410  0.86802543  1
  In  In46  1  0.33596809  0.83306166  0.37114075  1
  In  In47  1  0.34343975  0.83334340  0.87494864  1
  In  In48  1  0.64826797  0.16428910  0.36815866  1
  In  In49  1  0.67280133  0.15777901  0.88407029  1
  In  In50  1  0.67374379  0.50505612  0.37025668  1
  In  In51  1  0.66895708  0.52496810  0.88031798  1
  In  In52  1  0.66693963  0.81852699  0.37187858  1
  In  In53  1  0.66256677  0.83290825  0.87312619  1
  In  In54  1  0.17188757  0.01319102  0.12080781  1
  In  In55  1  0.18228676  -0.00666503  0.62586077  1
  In  In56  1  0.17805380  0.32268936  0.13517912  1
  In  In57  1  0.16393705  0.33698625  0.63154184  1
  In  In58  1  0.17620668  0.66261552  0.12949692  1
  In  In59  1  0.17306824  0.67846517  0.62360412  1
  In  In60  1  0.49301874  -0.00413848  0.12465232  1
  In  In61  1  0.50664204  0.00297684  0.62075360  1
  In  In62  1  0.50699956  0.32292162  0.13750556  1
  In  In63  1  0.50063094  0.31614932  0.62397178  1
  In  In64  1  0.50313863  0.67440361  0.12880749  1
  In  In65  1  0.48918136  0.67570889  0.62872616  1
  In  In66  1  0.82449369  -0.00440620  0.11464775  1
  In  In67  1  0.81929951  -0.01241296  0.63193880  1
  In  In68  1  0.83457150  0.33527436  0.12208335  1
  In  In69  1  0.83441443  0.34755180  0.62524443  1
  In  In70  1  0.83025502  0.66761796  0.12208086  1
  In  In71  1  0.83607967  0.65732171  0.62635491  1
  In  In72  1  0.17455539  0.16948059  0.48811813  1
  In  In73  1  0.50223998  0.50335133  0.00211394  1
  In  In74  1  0.50269811  0.49773405  0.49433662  1
  In  In75  1  0.17024899  0.84162814  -0.00180885  1
  In  In76  1  0.16900748  0.49956189  0.01054864  1
  In  In77  1  0.66061431  -0.00615703  0.24079079  1
  In  In78  1  -0.00541326  0.66009685  0.75033759  1
  In  In79  1  0.82977381  0.17164894  0.50125090  1
  In  In80  1  0.00241275  0.00249179  0.25029983  1
  In  In81  1  0.66340949  0.33642058  0.74954054  1
  In  In82  1  0.16092638  0.50278599  0.49905919  1
  In  In83  1  0.33835579  -0.00272694  0.75759221  1
  In  In84  1  -0.00099508  0.00056215  0.74952842  1
  In  In85  1  0.83435026  0.82729094  0.50571175  1
  Cu  Cu86  1  0.83051821  0.17184380  0.75889452  1
  Cu  Cu87  1  0.00941039  0.00229427  0.50356579  1
  Cu  Cu88  1  -0.00196648  0.66358485  0.00464429  1
  Cu  Cu89  1  0.83149365  0.50069976  0.24480317  1
  Cu  Cu90  1  0.49983760  0.83081273  0.75148920  1
  Cu  Cu91  1  0.83115399  0.17239839  0.24134765  1
  Cu  Cu92  1  0.16543404  0.17735146  0.75782366  1
  Cu  Cu93  1  0.33046333  0.32888172  0.00552974  1
  Cu  Cu94  1  0.33352709  -0.00013874  0.00604546  1
  Cu  Cu95  1  0.65702813  -0.00688901  0.49845775  1
  Cu  Cu96  1  0.66688431  0.32908296  0.49748165  1
  Cu  Cu97  1  0.16905015  0.16778538  0.24925554  1
  Cu  Cu98  1  0.83414658  0.81905671  0.24739829  1
  Cu  Cu99  1  0.66481384  0.00460565  -0.00046869  1
  Cu  Cu100  1  -0.00485587  0.00671202  -0.00303990  1
  Cu  Cu101  1  0.15882065  0.50115472  0.25022849  1
  Cu  Cu102  1  0.00237178  0.33027127  0.00164186  1
  Cu  Cu103  1  0.33863049  0.32549812  0.49623031  1
  Cu  Cu104  1  0.34306282  -0.00626353  0.49934329  1
  Cu  Cu105  1  0.33614340  0.67615593  0.49316791  1
  Cu  Cu106  1  0.17001239  0.49753059  0.75056355  1
  Cu  Cu107  1  0.00091370  0.66253476  0.49690838  1
  Cu  Cu108  1  0.66373572  0.66492937  0.49536738  1
  Cu  Cu109  1  0.83324324  0.50358736  0.75319234  1
  Cu  Cu110  1  0.66427933  0.33545606  0.00432719  1
  Cu  Cu111  1  0.50437803  0.50174090  0.24866494  1
  Cu  Cu112  1  0.16914223  0.83373156  0.24882564  1
  Cu  Cu113  1  0.49892139  0.50186868  0.75329383  1
  Cu  Cu114  1  0.49869397  0.16338617  0.75178498  1
  Se  Se115  1  0.08250981  0.08376414  0.05079750  1
  Se  Se116  1  0.08974057  0.08339802  0.56081880  1
  Se  Se117  1  0.07961430  0.40757534  0.06714794  1
  Se  Se118  1  0.07472593  0.40984157  0.55773117  1
  Se  Se119  1  0.08405571  0.74485805  0.05918789  1
  Se  Se120  1  0.08533317  0.74560977  0.54906423  1
  Se  Se121  1  0.41650845  0.08612819  0.05662137  1
  Se  Se122  1  0.42019541  0.08364894  0.55214791  1
  Se  Se123  1  0.41326162  0.41124881  0.06150825  1
  Se  Se124  1  0.41209636  0.41034594  0.55823491  1
  Se  Se125  1  0.42465531  0.75777850  0.05765094  1
  Se  Se126  1  0.42289254  0.75320335  0.54850239  1
  Se  Se127  1  0.75152367  0.08879466  0.04888036  1
  Se  Se128  1  0.74080565  0.07349839  0.55720553  1
  Se  Se129  1  0.75013476  0.41832968  0.05352750  1
  Se  Se130  1  0.74883849  0.41376045  0.54966193  1
  Se  Se131  1  0.76358951  0.76390255  0.05362711  1
  Se  Se132  1  0.73916593  0.74231629  0.56281597  1
  Se  Se133  1  0.24569344  0.24479436  0.05635390  1
  Se  Se134  1  0.25635152  0.25317447  0.56080356  1
  Se  Se135  1  0.26786764  0.59500737  0.05439223  1
  Se  Se136  1  0.26110185  0.58958974  0.55344580  1
  Se  Se137  1  0.26098927  0.91442816  0.06779865  1
  Se  Se138  1  0.25320363  0.91492571  0.55026576  1
  Se  Se139  1  0.57630048  0.25428942  0.05369519  1
  Se  Se140  1  0.58130748  0.24560173  0.54762918  1
  Se  Se141  1  0.59390214  0.59378899  0.05731166  1
  Se  Se142  1  0.58625990  0.58622157  0.56029130  1
  Se  Se143  1  0.58148119  0.92252295  0.05411372  1
  Se  Se144  1  0.58069368  0.90798793  0.55502117  1
  Se  Se145  1  0.91531858  0.24766140  0.05339484  1
  Se  Se146  1  0.92382325  0.25699506  0.55975767  1
  Se  Se147  1  0.91433489  0.57949299  0.05525841  1
  Se  Se148  1  0.91367848  0.58388595  0.54963803  1
  Se  Se149  1  0.91711015  0.91853503  0.04954214  1
  Se  Se150  1  0.92455558  0.92553465  0.56235858  1
  Se  Se151  1  0.07262131  0.26127267  0.44407967  1
  Se  Se152  1  0.08879886  0.25047051  0.94813764  1
  Se  Se153  1  0.07935299  0.58845751  0.43118758  1
  Se  Se154  1  0.08046265  0.58697192  0.94395076  1
  Se  Se155  1  0.08578579  0.91097881  0.45322150  1
  Se  Se156  1  0.07306837  0.92395872  0.93543952  1
  Se  Se157  1  0.41906355  0.24478101  0.43975266  1
  Se  Se158  1  0.41655434  0.24779852  0.95222977  1
  Se  Se159  1  0.41220537  0.58886442  0.43651866  1
  Se  Se160  1  0.41445592  0.58982134  0.93862067  1
  Se  Se161  1  0.42187560  0.91078721  0.44224350  1
  Se  Se162  1  0.41304229  0.91508458  0.95047703  1
  Se  Se163  1  0.74429541  0.25144611  0.43223945  1
  Se  Se164  1  0.74768218  0.25175935  0.94906099  1
  Se  Se165  1  0.74986655  0.57974506  0.44826221  1
  Se  Se166  1  0.76230399  0.56694857  0.95789655  1
  Se  Se167  1  0.74671243  0.91996610  0.44158158  1
  Se  Se168  1  0.74396950  0.92074194  0.94277712  1
  Se  Se169  1  0.26604750  0.07509583  0.43579960  1
  Se  Se170  1  0.24581588  0.08128621  0.95495029  1
  Se  Se171  1  0.25702958  0.41017777  0.44226455  1
  Se  Se172  1  0.25772704  0.41489778  0.94390287  1
  Se  Se173  1  0.24693104  0.75635222  0.44307701  1
  Se  Se174  1  0.25484542  0.74346441  0.94132437  1
  Se  Se175  1  0.58092691  0.08112732  0.44414114  1
  Se  Se176  1  0.57654633  0.08891388  0.95075175  1
  Se  Se177  1  0.58776199  0.40595864  0.43350175  1
  Se  Se178  1  0.58969697  0.41333775  0.93701609  1
  Se  Se179  1  0.58044396  0.74872962  0.44494431  1
  Se  Se180  1  0.58263422  0.75356066  0.94611973  1
  Se  Se181  1  0.92687747  0.07733473  0.44366466  1
  Se  Se182  1  0.91024545  0.08828318  0.94365515  1
  Se  Se183  1  0.91204852  0.41545236  0.44822391  1
  Se  Se184  1  0.91997262  0.41629360  0.95045332  1
  Se  Se185  1  0.91976279  0.74471351  0.43687085  1
  Se  Se186  1  0.91896894  0.75458624  0.95481302  1
  Se  Se187  1  0.25187048  0.25184934  0.30304285  1
  Se  Se188  1  0.25443109  0.25399333  0.81098018  1
  Se  Se189  1  0.24847064  0.58368676  0.29888383  1
  Se  Se190  1  0.25159898  0.58294663  0.80213010  1
  Se  Se191  1  0.25035227  0.91787324  0.30224698  1
  Se  Se192  1  0.24064481  0.90420440  0.80641605  1
  Se  Se193  1  0.58465435  0.24906632  0.29382370  1
  Se  Se194  1  0.57880963  0.24539835  0.81235457  1
  Se  Se195  1  0.58765071  0.58504934  0.30257454  1
  Se  Se196  1  0.58445550  0.58544924  0.80235501  1
  Se  Se197  1  0.57998329  0.90960624  0.31025632  1
  Se  Se198  1  0.57906675  0.91875938  0.80424667  1
  Se  Se199  1  0.91470164  0.25340934  0.29705093  1
  Se  Se200  1  0.91529388  0.25773213  0.80552864  1
  Se  Se201  1  0.91757823  0.58131360  0.30011140  1
  Se  Se202  1  0.90554121  0.58469391  0.81824267  1
  Se  Se203  1  0.90869253  0.90682461  0.30696411  1
  Se  Se204  1  0.90964545  0.91038504  0.80818012  1
  Se  Se205  1  0.09267824  0.08904893  0.31479558  1
  Se  Se206  1  0.08634928  0.09055475  0.81360490  1
  Se  Se207  1  0.07959661  0.41419840  0.30341393  1
  Se  Se208  1  0.08232371  0.41841633  0.80322071  1
  Se  Se209  1  0.08204207  0.75183209  0.29960010  1
  Se  Se210  1  0.09010402  0.75581281  0.80210178  1
  Se  Se211  1  0.41502171  0.06857887  0.29288205  1
  Se  Se212  1  0.42249134  0.08885816  0.81905250  1
  Se  Se213  1  0.41775639  0.41912906  0.30036156  1
  Se  Se214  1  0.41716440  0.41234135  0.80047406  1
  Se  Se215  1  0.40177214  0.73840815  0.30137883  1
  Se  Se216  1  0.41486752  0.74769344  0.80249148  1
  Se  Se217  1  0.75498452  0.08793166  0.30148127  1
  Se  Se218  1  0.74485033  0.08529632  0.80384399  1
  Se  Se219  1  0.74803009  0.41706704  0.29951664  1
  Se  Se220  1  0.75112154  0.42283641  0.81317449  1
  Se  Se221  1  0.74820344  0.74076437  0.30150832  1
  Se  Se222  1  0.75039587  0.74107819  0.81458878  1
  Se  Se223  1  0.25079762  0.08366750  0.19696529  1
  Se  Se224  1  0.24362213  0.09219421  0.69938561  1
  Se  Se225  1  0.24825382  0.42083128  0.19869884  1
  Se  Se226  1  0.25363562  0.41198111  0.69870688  1
  Se  Se227  1  0.25435944  0.75040972  0.19717117  1
  Se  Se228  1  0.25755978  0.74788122  0.69555859  1
  Se  Se229  1  0.57834809  0.09354438  0.18665922  1
  Se  Se230  1  0.58188848  0.08109585  0.69795783  1
  Se  Se231  1  0.58790961  0.41744760  0.19706668  1
  Se  Se232  1  0.57435360  0.42448334  0.68569740  1
  Se  Se233  1  0.58685066  0.75540241  0.19771926  1
  Se  Se234  1  0.58216436  0.74624884  0.69739202  1
  Se  Se235  1  0.91011274  0.08456764  0.18641097  1
  Se  Se236  1  0.90441119  0.09231533  0.69113888  1
  Se  Se237  1  0.91637262  0.41473554  0.19500073  1
  Se  Se238  1  0.91658702  0.41955125  0.70033393  1
  Se  Se239  1  0.92168943  0.74197631  0.19405019  1
  Se  Se240  1  0.90577260  0.75849317  0.69382289  1
  Se  Se241  1  0.07992710  0.24842574  0.19911362  1
  Se  Se242  1  0.08096653  0.25539436  0.70127153  1
  Se  Se243  1  0.08319954  0.58907948  0.19573319  1
  Se  Se244  1  0.09075809  0.57640145  0.68652989  1
  Se  Se245  1  0.08845582  0.91284137  0.18680376  1
  Se  Se246  1  0.08960327  0.90989223  0.68977776  1
  Se  Se247  1  0.39886859  0.26527540  0.19728085  1
  Se  Se248  1  0.41593934  0.24752352  0.69905005  1
  Se  Se249  1  0.42179960  0.58467960  0.19452282  1
  Se  Se250  1  0.41580423  0.58418634  0.69674813  1
  Se  Se251  1  0.41411566  0.93458546  0.20671964  1
  Se  Se252  1  0.42072586  0.91238098  0.68902270  1
  Se  Se253  1  0.74647670  0.25481536  0.19022302  1
  Se  Se254  1  0.75416382  0.24545042  0.68875672  1
  Se  Se255  1  0.74879795  0.58572436  0.19287856  1
  Se  Se256  1  0.74954794  0.58480818  0.69877356  1
  Se  Se257  1  0.75749915  0.90415471  0.18842719  1
  Se  Se258  1  0.74695536  0.91462180  0.70734293  1
