# generated using pymatgen
data_In86Cu29Se144
_symmetry_space_group_name_H-M   'P 1'
_cell_length_a   17.57950116
_cell_length_b   17.58059027
_cell_length_c   23.43907520
_cell_angle_alpha   90.03592221
_cell_angle_beta   90.00337718
_cell_angle_gamma   90.00700914
_symmetry_Int_Tables_number   1
_chemical_formula_structural   In86Cu29Se144
_chemical_formula_sum   'In86 Cu29 Se144'
_cell_volume   7244.03237927
_cell_formula_units_Z   1
loop_
 _symmetry_equiv_pos_site_id
 _symmetry_equiv_pos_as_xyz
  1  'x, y, z'
loop_
 _atom_site_type_symbol
 _atom_site_label
 _atom_site_symmetry_multiplicity
 _atom_site_fract_x
 _atom_site_fract_y
 _atom_site_fract_z
 _atom_site_occupancy
  In  In0  1  -0.01314234  0.18100656  0.12903178  1
  In  In1  1  0.00901370  0.17433015  0.62896869  1
  In  In2  1  -0.01261821  0.51486967  0.13254387  1
  In  In3  1  -0.01379799  0.51772242  0.64181327  1
  In  In4  1  -0.02395076  0.84825014  0.14875672  1
  In  In5  1  -0.01286927  0.81971996  0.61344541  1
  In  In6  1  0.33971130  0.16443210  0.11482046  1
  In  In7  1  0.31542041  0.17245927  0.64743080  1
  In  In8  1  0.36782247  0.49941322  0.12756213  1
  In  In9  1  0.32153377  0.49786632  0.63223046  1
  In  In10  1  0.33893647  0.81685158  0.12654170  1
  In  In11  1  0.34162564  0.84674543  0.61638064  1
  In  In12  1  0.67113971  0.16852096  0.12447900  1
  In  In13  1  0.65652348  0.16654559  0.62940598  1
  In  In14  1  0.66378254  0.49726973  0.12868066  1
  In  In15  1  0.68865413  0.49818002  0.62110246  1
  In  In16  1  0.67435949  0.83798191  0.12997254  1
  In  In17  1  0.67483285  0.84070177  0.61716295  1
  In  In18  1  0.14944879  -0.00377234  0.37445847  1
  In  In19  1  0.16947836  -0.01497299  0.86941193  1
  In  In20  1  0.15990066  0.34510785  0.37703966  1
  In  In21  1  0.17040348  0.33628991  0.86096894  1
  In  In22  1  0.17446519  0.67419352  0.37217901  1
  In  In23  1  0.15618983  0.67213782  0.86971746  1
  In  In24  1  0.50154206  -0.01103038  0.37289816  1
  In  In25  1  0.50531816  -0.00256639  0.87785001  1
  In  In26  1  0.50678451  0.33723923  0.36746844  1
  In  In27  1  0.49093331  0.33436399  0.89040769  1
  In  In28  1  0.53129492  0.68437930  0.35029918  1
  In  In29  1  0.50547590  0.65907642  0.88857090  1
  In  In30  1  0.81220280  -0.02657276  0.35055577  1
  In  In31  1  0.82495673  0.00926952  0.88197133  1
  In  In32  1  0.83384631  0.33950835  0.37183723  1
  In  In33  1  0.83391704  0.33433470  0.87932903  1
  In  In34  1  0.82830142  0.66777559  0.36978261  1
  In  In35  1  0.84146922  0.66217074  0.88580636  1
  In  In36  1  -0.01216842  0.15918011  0.36598372  1
  In  In37  1  -0.01423877  0.16918755  0.87913964  1
  In  In38  1  -0.01094568  0.49039487  0.36668221  1
  In  In39  1  -0.00994416  0.48985818  0.86307466  1
  In  In40  1  -0.00616100  0.83059876  0.37334122  1
  In  In41  1  -0.00037914  0.82193762  0.87372157  1
  In  In42  1  0.34213653  0.16886385  0.37696739  1
  In  In43  1  0.34792024  0.17956054  0.86551011  1
  In  In44  1  0.32363344  0.50810062  0.37635473  1
  In  In45  1  0.34112847  0.49740720  0.87661201  1
  In  In46  1  0.34889959  0.82773332  0.38389665  1
  In  In47  1  0.33444950  0.83832995  0.87394448  1
  In  In48  1  0.67434881  0.17073408  0.36255440  1
  In  In49  1  0.67354986  0.16054287  0.88266852  1
  In  In50  1  0.67114704  0.50879609  0.36457204  1
  In  In51  1  0.67086021  0.49450239  0.88534301  1
  In  In52  1  0.66651116  0.83084888  0.37152213  1
  In  In53  1  0.66082514  0.83783698  0.88360532  1
  In  In54  1  0.16259379  -0.01138060  0.12353413  1
  In  In55  1  0.17504696  0.00532145  0.62467741  1
  In  In56  1  0.16224778  0.32988537  0.12417561  1
  In  In57  1  0.14354635  0.35886342  0.66169551  1
  In  In58  1  0.16311675  0.66974261  0.13183561  1
  In  In59  1  0.15417938  0.66773532  0.62041101  1
  In  In60  1  0.51856438  0.01216809  0.11573227  1
  In  In61  1  0.50227582  -0.00098175  0.63104349  1
  In  In62  1  0.51751707  0.35180702  0.10592753  1
  In  In63  1  0.49882103  0.32486402  0.63023467  1
  In  In64  1  0.50400385  0.66722275  0.12693739  1
  In  In65  1  0.49113348  0.67081792  0.62095019  1
  In  In66  1  0.82801680  -0.00161229  0.12974639  1
  In  In67  1  0.83290840  -0.01268447  0.62491314  1
  In  In68  1  0.83152860  0.33769898  0.12308331  1
  In  In69  1  0.83537986  0.35832632  0.62194926  1
  In  In70  1  0.83248328  0.66921770  0.12776127  1
  In  In71  1  0.83390359  0.66885738  0.61771038  1
  In  In72  1  0.16474461  0.82731868  -0.00307337  1
  In  In73  1  0.16684883  0.50319322  -0.00658053  1
  In  In74  1  0.83403910  0.15921517  0.49187570  1
  In  In75  1  0.50480819  0.51127851  0.48946181  1
  In  In76  1  0.50159848  0.16233848  0.51028888  1
  In  In77  1  0.67364392  0.67097797  0.74418069  1
  In  In78  1  0.16066456  0.50231235  0.50906316  1
  In  In79  1  0.00092532  -0.00000771  0.74762347  1
  In  In80  1  0.67019708  0.33024589  0.75723547  1
  In  In81  1  0.32897808  -0.00285619  0.24376368  1
  In  In82  1  0.32980717  0.66421178  0.75424580  1
  In  In83  1  0.33096175  0.33380162  0.24574806  1
  In  In84  1  0.16793531  0.16652913  0.50938526  1
  In  In85  1  0.16614677  0.16243478  -0.01074588  1
  Cu  Cu86  1  0.33111076  -0.00012595  0.50357758  1
  Cu  Cu87  1  0.34011922  0.65699842  0.00546978  1
  Cu  Cu88  1  0.50543279  0.83637325  0.24730795  1
  Cu  Cu89  1  0.50685283  0.16790201  0.24219944  1
  Cu  Cu90  1  0.66905610  0.33003439  0.00247306  1
  Cu  Cu91  1  0.66719671  0.66843621  0.48946516  1
  Cu  Cu92  1  0.83054194  0.17038703  0.75697799  1
  Cu  Cu93  1  0.16377968  0.50193072  0.25133926  1
  Cu  Cu94  1  -0.00922530  0.00227708  0.00756722  1
  Cu  Cu95  1  -0.00422254  0.66262590  0.49421015  1
  Cu  Cu96  1  -0.00878786  -0.01409776  0.49550968  1
  Cu  Cu97  1  -0.00000704  0.33100715  0.49855658  1
  Cu  Cu98  1  0.67195623  -0.00361330  0.00399803  1
  Cu  Cu99  1  0.66444133  -0.00377483  0.49467971  1
  Cu  Cu100  1  0.34624586  -0.00619288  -0.00402959  1
  Cu  Cu101  1  0.83006534  0.49922321  0.24736450  1
  Cu  Cu102  1  0.16161195  0.83398736  0.25380345  1
  Cu  Cu103  1  -0.00660531  0.34314715  -0.00016169  1
  Cu  Cu104  1  0.66891544  0.66704094  0.00932585  1
  Cu  Cu105  1  -0.00904126  0.67419636  0.00789066  1
  Cu  Cu106  1  0.33740018  0.68093837  0.49478258  1
  Cu  Cu107  1  0.83503397  0.17193698  0.24404395  1
  Cu  Cu108  1  0.50742692  0.49321925  0.75759546  1
  Cu  Cu109  1  0.49981010  0.15827368  0.75503275  1
  Cu  Cu110  1  0.16448869  0.82923422  0.74354172  1
  Cu  Cu111  1  0.33865167  0.33323536  0.51325522  1
  Cu  Cu112  1  0.83148721  0.83266580  0.74682821  1
  Cu  Cu113  1  0.50027299  0.84080585  0.75255330  1
  Cu  Cu114  1  0.15801608  0.17113223  0.24873910  1
  Se  Se115  1  0.07884728  0.08257422  0.06074164  1
  Se  Se116  1  0.06734336  0.07050745  0.55640500  1
  Se  Se117  1  0.07583437  0.42034933  0.05967340  1
  Se  Se118  1  0.07727368  0.40457260  0.56503384  1
  Se  Se119  1  0.07317619  0.75485518  0.06566563  1
  Se  Se120  1  0.08068029  0.74694795  0.54580750  1
  Se  Se121  1  0.42312962  0.08225674  0.04861455  1
  Se  Se122  1  0.40050869  0.08455456  0.56836794  1
  Se  Se123  1  0.40124621  0.40323882  0.05073835  1
  Se  Se124  1  0.42044986  0.42322664  0.56234456  1
  Se  Se125  1  0.42187366  0.74807956  0.05207544  1
  Se  Se126  1  0.42350401  0.75919749  0.54970195  1
  Se  Se127  1  0.75404189  0.08305220  0.05650034  1
  Se  Se128  1  0.74021141  0.07737159  0.55839978  1
  Se  Se129  1  0.74752839  0.41964342  0.05487565  1
  Se  Se130  1  0.74997833  0.41499221  0.54464279  1
  Se  Se131  1  0.75311353  0.75338615  0.05773275  1
  Se  Se132  1  0.74816431  0.74881952  0.55007466  1
  Se  Se133  1  0.25083889  0.25489648  0.05268385  1
  Se  Se134  1  0.25019855  0.26070508  0.56977438  1
  Se  Se135  1  0.25206516  0.58476747  0.06370008  1
  Se  Se136  1  0.26384177  0.59550618  0.55627936  1
  Se  Se137  1  0.26070833  0.91762160  0.05542445  1
  Se  Se138  1  0.24247376  0.91668065  0.55169566  1
  Se  Se139  1  0.58465818  0.24271573  0.05132114  1
  Se  Se140  1  0.59533928  0.26371001  0.55584691  1
  Se  Se141  1  0.58274163  0.58146820  0.05727444  1
  Se  Se142  1  0.59471425  0.59244133  0.56022107  1
  Se  Se143  1  0.58816022  0.91072382  0.05521566  1
  Se  Se144  1  0.58073622  0.92196177  0.55572759  1
  Se  Se145  1  0.91335689  0.25433875  0.05102900  1
  Se  Se146  1  0.91925123  0.24921460  0.55758527  1
  Se  Se147  1  0.90949449  0.58248925  0.05396339  1
  Se  Se148  1  0.92013376  0.57925065  0.55489454  1
  Se  Se149  1  0.91477909  0.91405448  0.06125226  1
  Se  Se150  1  0.90366804  0.90799051  0.54899665  1
  Se  Se151  1  0.07766439  0.24772039  0.44028532  1
  Se  Se152  1  0.07579804  0.26476844  0.93969375  1
  Se  Se153  1  0.07914706  0.58175458  0.43641179  1
  Se  Se154  1  0.07094601  0.59710221  0.94353208  1
  Se  Se155  1  0.08218232  0.90795892  0.44591402  1
  Se  Se156  1  0.07104919  0.92498432  0.94422929  1
  Se  Se157  1  0.41641279  0.26019276  0.44746773  1
  Se  Se158  1  0.41627555  0.23713029  0.95148736  1
  Se  Se159  1  0.41416574  0.60128770  0.43265754  1
  Se  Se160  1  0.42104854  0.57172042  0.95160962  1
  Se  Se161  1  0.42060375  0.92313861  0.45061171  1
  Se  Se162  1  0.42508587  0.90526248  0.94447502  1
  Se  Se163  1  0.74250594  0.25464773  0.44074034  1
  Se  Se164  1  0.75412795  0.24956513  0.94767248  1
  Se  Se165  1  0.75001236  0.58080516  0.44132616  1
  Se  Se166  1  0.74911699  0.58517576  0.95027569  1
  Se  Se167  1  0.74914717  0.91550096  0.44078926  1
  Se  Se168  1  0.75481354  0.91418722  0.94860044  1
  Se  Se169  1  0.25482660  0.07988508  0.44034879  1
  Se  Se170  1  0.25765562  0.06665947  0.93711739  1
  Se  Se171  1  0.25741198  0.41011693  0.45065772  1
  Se  Se172  1  0.25422339  0.40453723  0.94030361  1
  Se  Se173  1  0.24587364  0.75917133  0.44578726  1
  Se  Se174  1  0.26004268  0.73411603  0.94096106  1
  Se  Se175  1  0.58865314  0.08374113  0.43756615  1
  Se  Se176  1  0.58734997  0.07833828  0.94877184  1
  Se  Se177  1  0.59242059  0.41248271  0.43924702  1
  Se  Se178  1  0.58342845  0.41595865  0.95192450  1
  Se  Se179  1  0.57883336  0.75169246  0.44192265  1
  Se  Se180  1  0.58589075  0.74789641  0.95202356  1
  Se  Se181  1  0.91340660  0.06219581  0.43211595  1
  Se  Se182  1  0.91186564  0.08706935  0.95198513  1
  Se  Se183  1  0.91774664  0.41432575  0.44540677  1
  Se  Se184  1  0.91308004  0.42713540  0.94475217  1
  Se  Se185  1  0.91175105  0.74670700  0.44235716  1
  Se  Se186  1  0.91393489  0.76029817  0.95085990  1
  Se  Se187  1  0.24194613  0.24380956  0.31213703  1
  Se  Se188  1  0.24276681  0.23587790  0.80251130  1
  Se  Se189  1  0.24905912  0.58552744  0.30171660  1
  Se  Se190  1  0.24022283  0.57232671  0.81117331  1
  Se  Se191  1  0.24846015  0.91179627  0.31303542  1
  Se  Se192  1  0.25094282  0.90659025  0.79805598  1
  Se  Se193  1  0.58469197  0.25304938  0.29872345  1
  Se  Se194  1  0.57738115  0.24342113  0.81579470  1
  Se  Se195  1  0.56979061  0.56495055  0.29603380  1
  Se  Se196  1  0.58678127  0.58018931  0.81039479  1
  Se  Se197  1  0.58746131  0.92053227  0.30097467  1
  Se  Se198  1  0.58925437  0.91685824  0.80625186  1
  Se  Se199  1  0.91523850  0.25422102  0.30268234  1
  Se  Se200  1  0.91493261  0.25481677  0.80604849  1
  Se  Se201  1  0.91330405  0.58207180  0.30224178  1
  Se  Se202  1  0.92884351  0.60252422  0.80931102  1
  Se  Se203  1  0.92985677  0.92148238  0.29982054  1
  Se  Se204  1  0.90972535  0.91364530  0.80980674  1
  Se  Se205  1  0.08137612  0.08260835  0.30146045  1
  Se  Se206  1  0.08269786  0.08557504  0.81551018  1
  Se  Se207  1  0.08175875  0.41288833  0.30001693  1
  Se  Se208  1  0.08448305  0.41960198  0.79790766  1
  Se  Se209  1  0.08123315  0.74727408  0.30616291  1
  Se  Se210  1  0.07779552  0.74967021  0.79598438  1
  Se  Se211  1  0.42342639  0.08987896  0.30257013  1
  Se  Se212  1  0.41668406  0.07354882  0.80745254  1
  Se  Se213  1  0.41444828  0.42587609  0.30861645  1
  Se  Se214  1  0.42324922  0.41163678  0.80957666  1
  Se  Se215  1  0.41815891  0.75748587  0.30196498  1
  Se  Se216  1  0.43003108  0.74863845  0.81075628  1
  Se  Se217  1  0.75058464  0.08504116  0.29415535  1
  Se  Se218  1  0.74777635  0.08311388  0.80475726  1
  Se  Se219  1  0.74772995  0.41368929  0.30052182  1
  Se  Se220  1  0.75936716  0.42923622  0.80731068  1
  Se  Se221  1  0.73250682  0.73613143  0.30300555  1
  Se  Se222  1  0.75516836  0.75580918  0.81316794  1
  Se  Se223  1  0.24016124  0.09469680  0.18684282  1
  Se  Se224  1  0.24383952  0.07195309  0.70640570  1
  Se  Se225  1  0.24521071  0.42838519  0.18563402  1
  Se  Se226  1  0.27144371  0.40175822  0.70381168  1
  Se  Se227  1  0.24681383  0.75497644  0.19865354  1
  Se  Se228  1  0.25084612  0.75299835  0.68455882  1
  Se  Se229  1  0.59233045  0.08100383  0.19566899  1
  Se  Se230  1  0.58632164  0.08029024  0.70074745  1
  Se  Se231  1  0.57174433  0.41737849  0.19332859  1
  Se  Se232  1  0.58666617  0.42338060  0.68976106  1
  Se  Se233  1  0.58779550  0.75087273  0.19500423  1
  Se  Se234  1  0.57559415  0.75893191  0.68930331  1
  Se  Se235  1  0.91805937  0.08438609  0.19429373  1
  Se  Se236  1  0.90625635  0.09157207  0.68982244  1
  Se  Se237  1  0.91609241  0.41574342  0.19517180  1
  Se  Se238  1  0.92982844  0.40374479  0.69692928  1
  Se  Se239  1  0.93223676  0.72707584  0.19842032  1
  Se  Se240  1  0.91210800  0.74855352  0.69247232  1
  Se  Se241  1  0.07842674  0.25762734  0.19649271  1
  Se  Se242  1  0.09353555  0.23377868  0.70447502  1
  Se  Se243  1  0.08051878  0.58683390  0.19982512  1
  Se  Se244  1  0.10918115  0.56504591  0.68956332  1
  Se  Se245  1  0.08403644  0.92299035  0.20163167  1
  Se  Se246  1  0.08175447  0.90683471  0.68266284  1
  Se  Se247  1  0.42189097  0.24632261  0.18590333  1
  Se  Se248  1  0.42088820  0.24754168  0.70265595  1
  Se  Se249  1  0.40127000  0.60660661  0.19471310  1
  Se  Se250  1  0.42804455  0.57514946  0.69607426  1
  Se  Se251  1  0.42647887  0.91617768  0.18465656  1
  Se  Se252  1  0.41351724  0.91782363  0.69737637  1
  Se  Se253  1  0.74897529  0.25578443  0.19343294  1
  Se  Se254  1  0.75872238  0.24868856  0.68792252  1
  Se  Se255  1  0.74731547  0.58352020  0.19458604  1
  Se  Se256  1  0.76800004  0.57462881  0.69669368  1
  Se  Se257  1  0.76174487  0.90839617  0.20238998  1
  Se  Se258  1  0.74558231  0.91681420  0.69726946  1
