# generated using pymatgen
data_In86Cu29Se144
_symmetry_space_group_name_H-M   'P 1'
_cell_length_a   17.61308265
_cell_length_b   17.61329058
_cell_length_c   23.47855253
_cell_angle_alpha   89.99936336
_cell_angle_beta   89.96687658
_cell_angle_gamma   89.98375976
_symmetry_Int_Tables_number   1
_chemical_formula_structural   In86Cu29Se144
_chemical_formula_sum   'In86 Cu29 Se144'
_cell_volume   7283.61701803
_cell_formula_units_Z   1
loop_
 _symmetry_equiv_pos_site_id
 _symmetry_equiv_pos_as_xyz
  1  'x, y, z'
loop_
 _atom_site_type_symbol
 _atom_site_label
 _atom_site_symmetry_multiplicity
 _atom_site_fract_x
 _atom_site_fract_y
 _atom_site_fract_z
 _atom_site_occupancy
  In  In0  1  0.00048737  0.17549691  0.13191577  1
  In  In1  1  -0.02412218  0.14656337  0.60400987  1
  In  In2  1  -0.01627320  0.49010230  0.12678292  1
  In  In3  1  -0.00060730  0.51650242  0.62431725  1
  In  In4  1  -0.00222752  0.82781593  0.11097700  1
  In  In5  1  -0.00313459  0.83325873  0.62652440  1
  In  In6  1  0.32593311  0.14508707  0.12748498  1
  In  In7  1  0.33627044  0.17325079  0.61766113  1
  In  In8  1  0.33711770  0.50541077  0.12820287  1
  In  In9  1  0.34925226  0.50526096  0.62225157  1
  In  In10  1  0.33760509  0.84416193  0.11836340  1
  In  In11  1  0.33071348  0.82831175  0.62733840  1
  In  In12  1  0.67665027  0.17254116  0.11877575  1
  In  In13  1  0.68365629  0.15540956  0.63458291  1
  In  In14  1  0.67015761  0.50076702  0.13423732  1
  In  In15  1  0.66151790  0.49901721  0.63314231  1
  In  In16  1  0.66525279  0.82426139  0.11559611  1
  In  In17  1  0.66354394  0.83220139  0.62561094  1
  In  In18  1  0.17367910  -0.00378519  0.38278555  1
  In  In19  1  0.14776299  -0.00201031  0.86726744  1
  In  In20  1  0.14754097  0.32674326  0.37209662  1
  In  In21  1  0.17380718  0.32925049  0.87578103  1
  In  In22  1  0.17584337  0.67389127  0.37892446  1
  In  In23  1  0.17234772  0.67758664  0.86862701  1
  In  In24  1  0.48912680  0.00293546  0.37474988  1
  In  In25  1  0.52166930  -0.01662331  0.88272138  1
  In  In26  1  0.51821288  0.33156443  0.37475276  1
  In  In27  1  0.50763540  0.32051551  0.88194477  1
  In  In28  1  0.50704636  0.65765426  0.38576295  1
  In  In29  1  0.54038294  0.71075482  0.80903039  1
  In  In30  1  0.83115885  -0.00590939  0.39233154  1
  In  In31  1  0.83029370  -0.00142730  0.87340091  1
  In  In32  1  0.83183527  0.33637548  0.38254601  1
  In  In33  1  0.82045719  0.34019351  0.87549119  1
  In  In34  1  0.82072782  0.67469684  0.38612462  1
  In  In35  1  0.83676452  0.68034000  0.86862316  1
  In  In36  1  -0.00950103  0.17956571  0.38942535  1
  In  In37  1  -0.00034256  0.15159585  0.87235502  1
  In  In38  1  -0.00973908  0.48352119  0.38044208  1
  In  In39  1  -0.00762097  0.50446076  0.86857126  1
  In  In40  1  -0.00034944  0.83832393  0.38259442  1
  In  In41  1  -0.00882662  0.83230703  0.87518435  1
  In  In42  1  0.33715935  0.14923487  0.37319278  1
  In  In43  1  0.34028449  0.17652624  0.87545777  1
  In  In44  1  0.33609949  0.51532266  0.37977962  1
  In  In45  1  0.33921959  0.51509772  0.86852145  1
  In  In46  1  0.32932613  0.84112930  0.38151545  1
  In  In47  1  0.35168010  0.81659301  0.88009517  1
  In  In48  1  0.66258256  0.17964502  0.37541507  1
  In  In49  1  0.67300770  0.16454687  0.87642275  1
  In  In50  1  0.67042602  0.50127330  0.38247173  1
  In  In51  1  0.66877980  0.52101589  0.85261036  1
  In  In52  1  0.67347450  0.82293901  0.38663438  1
  In  In53  1  0.66907012  0.84056674  0.86782523  1
  In  In54  1  0.17220528  -0.00328257  0.12740924  1
  In  In55  1  0.15442597  -0.01416752  0.61854063  1
  In  In56  1  0.15407378  0.31120296  0.13255872  1
  In  In57  1  0.16423744  0.32566344  0.61293458  1
  In  In58  1  0.16307510  0.67918874  0.12032845  1
  In  In59  1  0.15076117  0.67700624  0.63453005  1
  In  In60  1  0.49463903  -0.01307243  0.11805863  1
  In  In61  1  0.52579221  -0.01830390  0.63488783  1
  In  In62  1  0.51931278  0.33679290  0.12732444  1
  In  In63  1  0.50390289  0.34666237  0.62444042  1
  In  In64  1  0.50615411  0.68046315  0.12074462  1
  In  In65  1  0.49879270  0.66588468  0.63418113  1
  In  In66  1  0.82920534  -0.00341215  0.11799559  1
  In  In67  1  0.82733153  -0.00130695  0.62089454  1
  In  In68  1  0.83531088  0.32809731  0.13277867  1
  In  In69  1  0.82335303  0.31891992  0.61301649  1
  In  In70  1  0.82888540  0.66216771  0.12177768  1
  In  In71  1  0.82979145  0.66732943  0.62664075  1
  In  In72  1  0.83066547  0.51078830  -0.01054367  1
  In  In73  1  0.66111769  0.00302450  0.25250275  1
  In  In74  1  0.16791834  0.49852777  -0.00947336  1
  In  In75  1  0.33646574  0.00016261  0.74884289  1
  In  In76  1  -0.00385414  0.33456065  0.74250184  1
  In  In77  1  0.50200835  0.16205456  0.50087326  1
  In  In78  1  0.33896083  0.66642960  0.25294124  1
  In  In79  1  0.33614012  0.32983866  0.25511253  1
  In  In80  1  0.00295936  0.00486205  0.25598796  1
  In  In81  1  0.33212995  0.33612457  0.74274675  1
  In  In82  1  0.50566999  0.51015553  -0.00849183  1
  In  In83  1  0.16474573  0.15629094  0.00576476  1
  In  In84  1  0.16761440  0.50758125  0.49654640  1
  In  In85  1  -0.00377315  0.66132975  0.24596280  1
  Cu  Cu86  1  0.33818945  0.67306028  0.50559204  1
  Cu  Cu87  1  0.15888066  0.15962246  0.74073188  1
  Cu  Cu88  1  0.00829448  -0.00461661  0.50232613  1
  Cu  Cu89  1  0.15925883  0.49026139  0.24771282  1
  Cu  Cu90  1  -0.00101174  0.32640135  0.00764562  1
  Cu  Cu91  1  0.33187751  0.00084595  -0.00315163  1
  Cu  Cu92  1  -0.01097662  -0.00535325  -0.00568781  1
  Cu  Cu93  1  0.51008253  0.16599712  0.75513228  1
  Cu  Cu94  1  0.16700218  0.50179076  0.74636647  1
  Cu  Cu95  1  0.82911231  0.17072120  0.25479226  1
  Cu  Cu96  1  0.83485693  0.16671417  0.74672690  1
  Cu  Cu97  1  0.33330354  0.67440593  -0.00341431  1
  Cu  Cu98  1  0.51524903  0.49943302  0.25679892  1
  Cu  Cu99  1  0.82993201  0.49556894  0.25785111  1
  Cu  Cu100  1  0.50039426  0.83309138  0.24652319  1
  Cu  Cu101  1  0.82535246  0.82962368  0.25501154  1
  Cu  Cu102  1  0.83665088  0.83834274  0.74666522  1
  Cu  Cu103  1  0.66568486  0.33490996  0.50225236  1
  Cu  Cu104  1  0.49704091  0.16428150  0.24928706  1
  Cu  Cu105  1  0.34507999  0.32979523  0.00354915  1
  Cu  Cu106  1  0.16361954  0.83667571  0.75053230  1
  Cu  Cu107  1  0.16824781  0.83859276  0.25446039  1
  Cu  Cu108  1  -0.00400695  0.67460194  0.50421846  1
  Cu  Cu109  1  0.33152169  0.33371201  0.49652166  1
  Cu  Cu110  1  0.83139514  0.50309084  0.74603625  1
  Cu  Cu111  1  0.33887833  -0.00357901  0.50441123  1
  Cu  Cu112  1  0.67116945  0.33396151  -0.00098833  1
  Cu  Cu113  1  0.66196777  0.66376585  0.51039050  1
  Cu  Cu114  1  0.66576679  0.00092319  -0.00286210  1
  Se  Se115  1  0.06671100  0.07066047  0.06171597  1
  Se  Se116  1  0.09094113  0.08508783  0.55133157  1
  Se  Se117  1  0.08365325  0.40959161  0.06072923  1
  Se  Se118  1  0.07699209  0.42052328  0.55571472  1
  Se  Se119  1  0.08725729  0.75077332  0.04634609  1
  Se  Se120  1  0.08416576  0.75454115  0.55521776  1
  Se  Se121  1  0.41398780  0.07988525  0.05448340  1
  Se  Se122  1  0.42192572  0.06984365  0.56681360  1
  Se  Se123  1  0.41921384  0.41819554  0.06015701  1
  Se  Se124  1  0.41493435  0.41330800  0.55089053  1
  Se  Se125  1  0.41682570  0.75335771  0.05369275  1
  Se  Se126  1  0.42245103  0.75177515  0.56150499  1
  Se  Se127  1  0.75049623  0.08310676  0.05068484  1
  Se  Se128  1  0.76200943  0.09742730  0.55364225  1
  Se  Se129  1  0.75130899  0.41733573  0.05826780  1
  Se  Se130  1  0.74298994  0.41992483  0.55910143  1
  Se  Se131  1  0.76038957  0.75092143  0.05275194  1
  Se  Se132  1  0.74895145  0.74990182  0.55705414  1
  Se  Se133  1  0.25591446  0.25486632  0.06009526  1
  Se  Se134  1  0.25151082  0.24637349  0.54634739  1
  Se  Se135  1  0.25752106  0.58887662  0.05572079  1
  Se  Se136  1  0.25141425  0.59378093  0.56354409  1
  Se  Se137  1  0.24612990  0.91946724  0.05127249  1
  Se  Se138  1  0.25325220  0.91323196  0.55670272  1
  Se  Se139  1  0.58592147  0.25286918  0.05258700  1
  Se  Se140  1  0.58889386  0.25071618  0.56343737  1
  Se  Se141  1  0.59575128  0.58955163  0.05986829  1
  Se  Se142  1  0.57805621  0.58111135  0.56330408  1
  Se  Se143  1  0.58500607  0.91325354  0.05064459  1
  Se  Se144  1  0.59279276  0.91813462  0.55142618  1
  Se  Se145  1  0.91371465  0.24639094  0.05970010  1
  Se  Se146  1  0.93133269  0.26563219  0.55052476  1
  Se  Se147  1  0.92865485  0.58795964  0.05393870  1
  Se  Se148  1  0.91332008  0.58810280  0.55308030  1
  Se  Se149  1  0.90842916  0.91173483  0.04987372  1
  Se  Se150  1  0.91882266  0.91683593  0.55579940  1
  Se  Se151  1  0.08640037  0.25292772  0.45350682  1
  Se  Se152  1  0.07967506  0.25272328  0.94315964  1
  Se  Se153  1  0.07219820  0.59619110  0.43718652  1
  Se  Se154  1  0.07775491  0.58927331  0.93632685  1
  Se  Se155  1  0.09154304  0.91062238  0.44943417  1
  Se  Se156  1  0.07889720  0.91733219  0.94288091  1
  Se  Se157  1  0.41427233  0.25327860  0.43657830  1
  Se  Se158  1  0.42313560  0.24227960  0.95229166  1
  Se  Se159  1  0.41701664  0.58313372  0.45513402  1
  Se  Se160  1  0.41758443  0.60173081  0.93599356  1
  Se  Se161  1  0.42151467  0.91560671  0.44844667  1
  Se  Se162  1  0.41690892  0.91820669  0.94430307  1
  Se  Se163  1  0.74652883  0.24901651  0.44889593  1
  Se  Se164  1  0.75574469  0.24952543  0.94723341  1
  Se  Se165  1  0.74838083  0.58366002  0.45451624  1
  Se  Se166  1  0.73557057  0.59841279  0.93450314  1
  Se  Se167  1  0.74224162  0.91505347  0.45456695  1
  Se  Se168  1  0.74863812  0.91658508  0.94347074  1
  Se  Se169  1  0.25740181  0.08143860  0.45069031  1
  Se  Se170  1  0.25222848  0.07887311  0.93477917  1
  Se  Se171  1  0.25272305  0.41243165  0.43452518  1
  Se  Se172  1  0.27008011  0.40753790  0.94007376  1
  Se  Se173  1  0.25242195  0.75236134  0.45083357  1
  Se  Se174  1  0.24666137  0.75568976  0.94506262  1
  Se  Se175  1  0.59131478  0.07587514  0.43881826  1
  Se  Se176  1  0.58347707  0.08773561  0.94617193  1
  Se  Se177  1  0.58106105  0.41801005  0.44954269  1
  Se  Se178  1  0.59986348  0.41878710  0.93635607  1
  Se  Se179  1  0.58159543  0.74705529  0.45318830  1
  Se  Se180  1  0.56963322  0.74781344  0.91391202  1
  Se  Se181  1  0.92099990  0.07854980  0.45217175  1
  Se  Se182  1  0.91192927  0.08528082  0.94410210  1
  Se  Se183  1  0.90791304  0.41896715  0.45538910  1
  Se  Se184  1  0.92765871  0.40853389  0.94272437  1
  Se  Se185  1  0.91345747  0.75624534  0.44754432  1
  Se  Se186  1  0.91697281  0.74498730  0.94564808  1
  Se  Se187  1  0.24588830  0.24137765  0.31202413  1
  Se  Se188  1  0.24074361  0.23792018  0.79990241  1
  Se  Se189  1  0.23740587  0.57406395  0.30429954  1
  Se  Se190  1  0.24668411  0.58428371  0.80183971  1
  Se  Se191  1  0.25243322  0.91982028  0.30669655  1
  Se  Se192  1  0.24738071  0.91303998  0.81138259  1
  Se  Se193  1  0.58277376  0.24855749  0.29750011  1
  Se  Se194  1  0.59103354  0.25100274  0.80759968  1
  Se  Se195  1  0.59046626  0.58743032  0.31143607  1
  Se  Se196  1  0.55493498  0.56276925  0.79241051  1
  Se  Se197  1  0.57805462  0.90834176  0.31246427  1
  Se  Se198  1  0.59088037  0.92764786  0.79771157  1
  Se  Se199  1  0.91175781  0.25015029  0.31194794  1
  Se  Se200  1  0.91191416  0.24836979  0.80935683  1
  Se  Se201  1  0.90895343  0.58122392  0.31471362  1
  Se  Se202  1  0.91251570  0.58582452  0.80122864  1
  Se  Se203  1  0.90589633  0.91255971  0.31042117  1
  Se  Se204  1  0.91750609  0.92059319  0.80404494  1
  Se  Se205  1  0.08296347  0.08941549  0.32299585  1
  Se  Se206  1  0.07432659  0.08072130  0.79398687  1
  Se  Se207  1  0.07410086  0.41617511  0.30374979  1
  Se  Se208  1  0.09275185  0.41725260  0.80810624  1
  Se  Se209  1  0.08591321  0.75392108  0.30768695  1
  Se  Se210  1  0.07897436  0.75395184  0.80444472  1
  Se  Se211  1  0.41451241  0.07678995  0.29637474  1
  Se  Se212  1  0.42511316  0.08759427  0.81217751  1
  Se  Se213  1  0.42352573  0.42743941  0.31226078  1
  Se  Se214  1  0.41843014  0.40883168  0.81443796  1
  Se  Se215  1  0.42515559  0.75564579  0.31399970  1
  Se  Se216  1  0.39699078  0.74418711  0.79254400  1
  Se  Se217  1  0.75618023  0.08456335  0.31500432  1
  Se  Se218  1  0.75200288  0.08501989  0.80290463  1
  Se  Se219  1  0.74602690  0.41378581  0.31174008  1
  Se  Se220  1  0.75010586  0.41873544  0.79976595  1
  Se  Se221  1  0.74443013  0.74644547  0.30753940  1
  Se  Se222  1  0.75149000  0.75489124  0.79816899  1
  Se  Se223  1  0.22811630  0.09259522  0.19772148  1
  Se  Se224  1  0.24732330  0.08539285  0.68365416  1
  Se  Se225  1  0.24465205  0.41667408  0.18802999  1
  Se  Se226  1  0.23915203  0.42262542  0.68257066  1
  Se  Se227  1  0.24721223  0.75673265  0.19431641  1
  Se  Se228  1  0.24622666  0.75135998  0.69825452  1
  Se  Se229  1  0.57677550  0.08767288  0.18502459  1
  Se  Se230  1  0.58962602  0.08174351  0.70015975  1
  Se  Se231  1  0.59335402  0.41318463  0.20295247  1
  Se  Se232  1  0.57864264  0.41577531  0.70195274  1
  Se  Se233  1  0.58706709  0.75289714  0.19499324  1
  Se  Se234  1  0.58745841  0.74860005  0.69872261  1
  Se  Se235  1  0.90353625  0.08519112  0.19512456  1
  Se  Se236  1  0.91351115  0.08232622  0.69055124  1
  Se  Se237  1  0.91405386  0.41287370  0.20334349  1
  Se  Se238  1  0.90749147  0.42371303  0.68358602  1
  Se  Se239  1  0.91064616  0.75996916  0.19249222  1
  Se  Se240  1  0.91635460  0.74882744  0.69528401  1
  Se  Se241  1  0.07684119  0.24403969  0.20886890  1
  Se  Se242  1  0.08124779  0.24201839  0.68234931  1
  Se  Se243  1  0.09053170  0.57348295  0.18422500  1
  Se  Se244  1  0.07677131  0.58561648  0.70232925  1
  Se  Se245  1  0.07998016  0.90558937  0.19183371  1
  Se  Se246  1  0.07813257  0.91800196  0.69749522  1
  Se  Se247  1  0.42008427  0.24614970  0.18615386  1
  Se  Se248  1  0.42802619  0.23986822  0.69265434  1
  Se  Se249  1  0.43495921  0.57758078  0.19479672  1
  Se  Se250  1  0.41425601  0.58047821  0.70127962  1
  Se  Se251  1  0.41489320  0.91647608  0.19583090  1
  Se  Se252  1  0.42650331  0.90434009  0.69719204  1
  Se  Se253  1  0.74470612  0.24958500  0.19875815  1
  Se  Se254  1  0.75234783  0.25609542  0.69816313  1
  Se  Se255  1  0.75882148  0.58247103  0.19848551  1
  Se  Se256  1  0.74541517  0.58848522  0.69750774  1
  Se  Se257  1  0.75045901  0.91193966  0.19285618  1
  Se  Se258  1  0.74924925  0.91646276  0.69268902  1
