# generated using pymatgen
data_In86Cu29Se144
_symmetry_space_group_name_H-M   'P 1'
_cell_length_a   17.61624031
_cell_length_b   17.60931353
_cell_length_c   23.46152280
_cell_angle_alpha   90.01743583
_cell_angle_beta   90.02277334
_cell_angle_gamma   90.02682941
_symmetry_Int_Tables_number   1
_chemical_formula_structural   In86Cu29Se144
_chemical_formula_sum   'In86 Cu29 Se144'
_cell_volume   7277.99490203
_cell_formula_units_Z   1
loop_
 _symmetry_equiv_pos_site_id
 _symmetry_equiv_pos_as_xyz
  1  'x, y, z'
loop_
 _atom_site_type_symbol
 _atom_site_label
 _atom_site_symmetry_multiplicity
 _atom_site_fract_x
 _atom_site_fract_y
 _atom_site_fract_z
 _atom_site_occupancy
  In  In0  1  0.00614359  0.15845484  0.14700648  1
  In  In1  1  0.01416866  0.16167223  0.63252849  1
  In  In2  1  0.00939935  0.48833765  0.13213347  1
  In  In3  1  0.00217740  0.49630835  0.61882486  1
  In  In4  1  0.00926257  0.84013938  0.13812951  1
  In  In5  1  0.00777325  0.82681378  0.62733660  1
  In  In6  1  0.35072073  0.16247796  0.13510772  1
  In  In7  1  0.33105461  0.16137206  0.61352796  1
  In  In8  1  0.33162883  0.48752852  0.12377765  1
  In  In9  1  0.33251970  0.50859505  0.62846570  1
  In  In10  1  0.33192263  0.83723604  0.11916050  1
  In  In11  1  0.31886266  0.83287576  0.62418886  1
  In  In12  1  0.64459942  0.18983948  0.15875893  1
  In  In13  1  0.66675831  0.17150355  0.62628821  1
  In  In14  1  0.65439358  0.50242045  0.11876535  1
  In  In15  1  0.66341702  0.48209246  0.62291527  1
  In  In16  1  0.65404773  0.84898327  0.12487111  1
  In  In17  1  0.66984174  0.84549304  0.62856216  1
  In  In18  1  0.16815038  0.00313222  0.37135131  1
  In  In19  1  0.14966210  -0.00183464  0.87691856  1
  In  In20  1  0.16819828  0.33607578  0.37852269  1
  In  In21  1  0.16689176  0.33667129  0.87440436  1
  In  In22  1  0.15482697  0.67913739  0.38530956  1
  In  In23  1  0.17364180  0.67123428  0.86760777  1
  In  In24  1  0.50962953  0.02792421  0.34797313  1
  In  In25  1  0.49973833  -0.00172713  0.88194877  1
  In  In26  1  0.47266040  0.29497868  0.33812716  1
  In  In27  1  0.50769596  0.31615392  0.89074368  1
  In  In28  1  0.50127716  0.67188209  0.37367785  1
  In  In29  1  0.48538582  0.67550473  0.87949248  1
  In  In30  1  0.83451427  0.01146403  0.36570290  1
  In  In31  1  0.83927745  0.00744507  0.86692325  1
  In  In32  1  0.84264604  0.33443876  0.36570968  1
  In  In33  1  0.83632573  0.33678629  0.86886487  1
  In  In34  1  0.83851259  0.65213595  0.38225537  1
  In  In35  1  0.84147155  0.66011076  0.86806290  1
  In  In36  1  0.01924612  0.18317915  0.34870920  1
  In  In37  1  0.00358889  0.16528208  0.86571621  1
  In  In38  1  -0.00071596  0.50226105  0.37851575  1
  In  In39  1  -0.00123515  0.49942155  0.86713255  1
  In  In40  1  0.02779853  0.84877451  0.36102776  1
  In  In41  1  0.00853150  0.83857575  0.87179597  1
  In  In42  1  0.32613232  0.16507246  0.36732902  1
  In  In43  1  0.34105233  0.17483695  0.88121732  1
  In  In44  1  0.33452031  0.48485208  0.37440828  1
  In  In45  1  0.32599128  0.50472887  0.87637392  1
  In  In46  1  0.31481748  0.84645721  0.37477459  1
  In  In47  1  0.33443463  0.82975787  0.88097249  1
  In  In48  1  0.65684744  0.15822915  0.36295727  1
  In  In49  1  0.66233727  0.16144243  0.87014209  1
  In  In50  1  0.68166407  0.48579985  0.38488072  1
  In  In51  1  0.66663397  0.48377933  0.87379904  1
  In  In52  1  0.66613765  0.85474676  0.37251022  1
  In  In53  1  0.65509049  0.84185442  0.87609574  1
  In  In54  1  0.18319430  -0.00636654  0.14996440  1
  In  In55  1  0.16764114  -0.00497144  0.61561379  1
  In  In56  1  0.20147174  0.28407525  0.17850013  1
  In  In57  1  0.15333395  0.31766978  0.61036179  1
  In  In58  1  0.15113255  0.67184188  0.12932225  1
  In  In59  1  0.16621078  0.66369818  0.62401144  1
  In  In60  1  0.50061261  0.00571623  0.12315190  1
  In  In61  1  0.50265223  0.01613889  0.62169767  1
  In  In62  1  0.49755430  0.33547122  0.12730784  1
  In  In63  1  0.51206885  0.32853905  0.62682882  1
  In  In64  1  0.49093371  0.66436201  0.11043504  1
  In  In65  1  0.49563794  0.65307353  0.63335752  1
  In  In66  1  0.82307902  0.01194235  0.14284948  1
  In  In67  1  0.83561646  0.00730006  0.62857264  1
  In  In68  1  0.83537588  0.32279825  0.13645935  1
  In  In69  1  0.82941792  0.33744489  0.62189316  1
  In  In70  1  0.84478110  0.67560260  0.12373648  1
  In  In71  1  0.85060353  0.67000474  0.62256282  1
  In  In72  1  0.82803414  0.83808672  0.00592948  1
  In  In73  1  0.50112299  0.48864493  0.50030342  1
  In  In74  1  0.32846317  -0.00085905  0.74360122  1
  In  In75  1  0.16784261  0.49767558  -0.00067115  1
  In  In76  1  0.32575564  0.66208259  0.24348605  1
  In  In77  1  0.66962362  0.66763129  0.75274050  1
  In  In78  1  0.17539446  0.16443517  0.01841885  1
  In  In79  1  0.83968368  0.16628709  0.49296165  1
  In  In80  1  0.82972484  0.16312516  0.01020846  1
  In  In81  1  0.66705475  0.66354692  0.24640123  1
  In  In82  1  0.49365649  0.84098022  0.50037906  1
  In  In83  1  0.32930636  0.33491635  0.75537424  1
  In  In84  1  0.84417731  0.83578086  0.49091567  1
  In  In85  1  0.83201976  0.49853458  -0.00870523  1
  Cu  Cu86  1  -0.00139192  -0.00312352  0.00555294  1
  Cu  Cu87  1  0.83508202  0.17532023  0.74621471  1
  Cu  Cu88  1  0.00708918  0.66440648  0.50258994  1
  Cu  Cu89  1  0.83385402  0.81892537  0.25127478  1
  Cu  Cu90  1  0.65540884  0.67300491  -0.00424048  1
  Cu  Cu91  1  0.67253364  0.67020652  0.50091076  1
  Cu  Cu92  1  0.33622051  0.32617163  0.49132273  1
  Cu  Cu93  1  0.48672579  0.83473338  0.24434912  1
  Cu  Cu94  1  0.49659317  0.83871423  0.75770003  1
  Cu  Cu95  1  0.66774081  0.32720148  0.00609496  1
  Cu  Cu96  1  0.83845126  0.84183757  0.74608771  1
  Cu  Cu97  1  0.01330552  0.32770931  0.00785609  1
  Cu  Cu98  1  0.32611014  0.67117367  -0.00267856  1
  Cu  Cu99  1  0.15916974  0.49647765  0.74600348  1
  Cu  Cu100  1  0.00249175  0.67239147  0.00368588  1
  Cu  Cu101  1  0.32639129  0.00188274  0.00795162  1
  Cu  Cu102  1  -0.00018356  0.33134849  0.49159156  1
  Cu  Cu103  1  0.00647940  0.00368041  0.49433429  1
  Cu  Cu104  1  0.16369717  0.49944158  0.25595258  1
  Cu  Cu105  1  0.83566685  0.50182805  0.25464729  1
  Cu  Cu106  1  0.65761155  0.00746210  0.00144677  1
  Cu  Cu107  1  0.33742152  0.00409929  0.49150743  1
  Cu  Cu108  1  0.49708094  0.49692556  0.75226733  1
  Cu  Cu109  1  0.32773770  0.66333254  0.50103545  1
  Cu  Cu110  1  0.83734247  0.49979725  0.74400412  1
  Cu  Cu111  1  0.51144680  0.49377567  0.24915190  1
  Cu  Cu112  1  0.16309213  0.82979141  0.74672291  1
  Cu  Cu113  1  0.66174710  0.32343071  0.49687827  1
  Cu  Cu114  1  0.50488501  0.17055326  0.75099863  1
  Se  Se115  1  0.07833009  0.07304962  0.06937895  1
  Se  Se116  1  0.08520538  0.08663787  0.55295505  1
  Se  Se117  1  0.09460635  0.40445227  0.06598388  1
  Se  Se118  1  0.08260410  0.41507262  0.54646316  1
  Se  Se119  1  0.07791755  0.75919715  0.05865774  1
  Se  Se120  1  0.08840426  0.75166555  0.55392205  1
  Se  Se121  1  0.41526462  0.08625392  0.05381811  1
  Se  Se122  1  0.42074335  0.08554877  0.54640058  1
  Se  Se123  1  0.42966990  0.42878780  0.05730607  1
  Se  Se124  1  0.40783737  0.40339280  0.56232854  1
  Se  Se125  1  0.41187774  0.75600563  0.04788003  1
  Se  Se126  1  0.41407564  0.73887432  0.56064774  1
  Se  Se127  1  0.73457869  0.08002127  0.06734274  1
  Se  Se128  1  0.74812338  0.08146852  0.55563617  1
  Se  Se129  1  0.75346301  0.40875174  0.06043479  1
  Se  Se130  1  0.74419558  0.41101407  0.54779178  1
  Se  Se131  1  0.73595128  0.74273055  0.06159941  1
  Se  Se132  1  0.75002010  0.75286199  0.55977458  1
  Se  Se133  1  0.26183275  0.26077027  0.07248993  1
  Se  Se134  1  0.25017435  0.24597496  0.54616169  1
  Se  Se135  1  0.25076932  0.59327277  0.06293230  1
  Se  Se136  1  0.24840776  0.57817219  0.55465918  1
  Se  Se137  1  0.23861190  0.92508793  0.06125051  1
  Se  Se138  1  0.25792487  0.91848278  0.54762080  1
  Se  Se139  1  0.58954438  0.24746311  0.06635400  1
  Se  Se140  1  0.57975425  0.24319389  0.55262074  1
  Se  Se141  1  0.57837269  0.58152877  0.04564774  1
  Se  Se142  1  0.58923382  0.58908571  0.55831908  1
  Se  Se143  1  0.57425164  0.91773123  0.04864577  1
  Se  Se144  1  0.59210431  0.92765273  0.55493713  1
  Se  Se145  1  0.92951207  0.24846292  0.06425947  1
  Se  Se146  1  0.92527532  0.25264448  0.55831445  1
  Se  Se147  1  0.92422022  0.58231296  0.05633055  1
  Se  Se148  1  0.91771486  0.58235022  0.55059233  1
  Se  Se149  1  0.91395798  0.92635588  0.06867774  1
  Se  Se150  1  0.92654072  0.92605272  0.55729702  1
  Se  Se151  1  0.08000582  0.24446613  0.43835644  1
  Se  Se152  1  0.08581094  0.24515755  0.94506792  1
  Se  Se153  1  0.08779535  0.57848103  0.44861951  1
  Se  Se154  1  0.07605148  0.58903438  0.94028259  1
  Se  Se155  1  0.09196010  0.91683090  0.44558005  1
  Se  Se156  1  0.07990733  0.91374285  0.95136241  1
  Se  Se157  1  0.41790661  0.24643854  0.43420601  1
  Se  Se158  1  0.41573870  0.24533383  0.95744454  1
  Se  Se159  1  0.41431617  0.58808307  0.44216668  1
  Se  Se160  1  0.40870729  0.58505332  0.94590259  1
  Se  Se161  1  0.41920104  0.92765769  0.42980105  1
  Se  Se162  1  0.40787956  0.92256908  0.94728898  1
  Se  Se163  1  0.74479914  0.25083134  0.43346012  1
  Se  Se164  1  0.75064525  0.25494378  0.94210932  1
  Se  Se165  1  0.75159746  0.57949079  0.45301862  1
  Se  Se166  1  0.73916528  0.59540600  0.93693868  1
  Se  Se167  1  0.74903720  0.93223465  0.44522360  1
  Se  Se168  1  0.74548729  0.93210653  0.94211124  1
  Se  Se169  1  0.24834272  0.08598387  0.44205436  1
  Se  Se170  1  0.24995554  0.07829892  0.94160954  1
  Se  Se171  1  0.25166438  0.41777607  0.44981702  1
  Se  Se172  1  0.26161161  0.40297134  0.94597968  1
  Se  Se173  1  0.25309099  0.75326660  0.44740294  1
  Se  Se174  1  0.24020538  0.75279734  0.94554077  1
  Se  Se175  1  0.57686664  0.08186508  0.43629408  1
  Se  Se176  1  0.57901765  0.09182319  0.94530044  1
  Se  Se177  1  0.57878125  0.39944291  0.43434306  1
  Se  Se178  1  0.58909520  0.41299816  0.95040320  1
  Se  Se179  1  0.59328923  0.75048727  0.44227123  1
  Se  Se180  1  0.57496382  0.75823743  0.94344240  1
  Se  Se181  1  0.93409944  0.08478771  0.43126658  1
  Se  Se182  1  0.92456452  0.08064765  0.94543336  1
  Se  Se183  1  0.91243635  0.41441343  0.44286713  1
  Se  Se184  1  0.93255711  0.40412922  0.94470130  1
  Se  Se185  1  0.93485757  0.74475514  0.43600450  1
  Se  Se186  1  0.91631720  0.74689180  0.94347304  1
  Se  Se187  1  0.24913895  0.26238330  0.30304345  1
  Se  Se188  1  0.24213951  0.23626104  0.80980009  1
  Se  Se189  1  0.24577378  0.57954628  0.31513337  1
  Se  Se190  1  0.24546181  0.57642204  0.80139996  1
  Se  Se191  1  0.25263305  0.92812915  0.29824524  1
  Se  Se192  1  0.24267665  0.91106147  0.80863174  1
  Se  Se193  1  0.60089878  0.26027288  0.29427877  1
  Se  Se194  1  0.58348383  0.25566534  0.80691830  1
  Se  Se195  1  0.58369946  0.57436815  0.31334580  1
  Se  Se196  1  0.57755182  0.57975802  0.81289642  1
  Se  Se197  1  0.57517441  0.91140260  0.29809486  1
  Se  Se198  1  0.58043993  0.92594135  0.80464157  1
  Se  Se199  1  0.89367526  0.22658352  0.30126986  1
  Se  Se200  1  0.91964753  0.25362664  0.80301422  1
  Se  Se201  1  0.91926412  0.58541908  0.30547260  1
  Se  Se202  1  0.92104205  0.58379411  0.79613681  1
  Se  Se203  1  0.90496393  0.90044802  0.31426601  1
  Se  Se204  1  0.92268937  0.91965990  0.80437763  1
  Se  Se205  1  0.06882048  0.06174860  0.29864325  1
  Se  Se206  1  0.08441255  0.07938455  0.80135207  1
  Se  Se207  1  0.08077845  0.41730147  0.31051998  1
  Se  Se208  1  0.08263645  0.41212969  0.80385593  1
  Se  Se209  1  0.08996020  0.74348558  0.30035074  1
  Se  Se210  1  0.08059487  0.74750854  0.80271466  1
  Se  Se211  1  0.40143383  0.08753420  0.29075871  1
  Se  Se212  1  0.41930065  0.08878785  0.80611050  1
  Se  Se213  1  0.41531413  0.41968102  0.29677368  1
  Se  Se214  1  0.42398228  0.41665196  0.81733665  1
  Se  Se215  1  0.41359039  0.75415576  0.30759387  1
  Se  Se216  1  0.41013528  0.75333754  0.80380070  1
  Se  Se217  1  0.72837702  0.05981623  0.29983638  1
  Se  Se218  1  0.75401542  0.09016118  0.80179486  1
  Se  Se219  1  0.74998429  0.41685656  0.30244050  1
  Se  Se220  1  0.75397000  0.41907370  0.79981203  1
  Se  Se221  1  0.74983485  0.74806098  0.31602435  1
  Se  Se222  1  0.75837003  0.76436662  0.81071287  1
  Se  Se223  1  0.22547464  0.12412318  0.18959933  1
  Se  Se224  1  0.24121783  0.09282969  0.68771942  1
  Se  Se225  1  0.25035658  0.42282651  0.20127190  1
  Se  Se226  1  0.24222190  0.41623120  0.68766977  1
  Se  Se227  1  0.23970962  0.76172046  0.19241672  1
  Se  Se228  1  0.24904744  0.74625895  0.69576376  1
  Se  Se229  1  0.59595267  0.06223360  0.19697314  1
  Se  Se230  1  0.58589352  0.08595347  0.69644568  1
  Se  Se231  1  0.59348388  0.41460658  0.19323889  1
  Se  Se232  1  0.58204140  0.41534847  0.70004068  1
  Se  Se233  1  0.56932724  0.74979420  0.18863170  1
  Se  Se234  1  0.57560623  0.75833693  0.69351088  1
  Se  Se235  1  0.91987259  0.07381455  0.20987809  1
  Se  Se236  1  0.91851245  0.08768061  0.69671181  1
  Se  Se237  1  0.91441252  0.41751626  0.19773916  1
  Se  Se238  1  0.91785666  0.41578539  0.68923397  1
  Se  Se239  1  0.92488883  0.74585267  0.19836692  1
  Se  Se240  1  0.91894252  0.75233665  0.69767121  1
  Se  Se241  1  0.05818968  0.27465227  0.20075859  1
  Se  Se242  1  0.08454667  0.25963465  0.69597548  1
  Se  Se243  1  0.08257672  0.58092037  0.19914647  1
  Se  Se244  1  0.07980998  0.58155567  0.69062915  1
  Se  Se245  1  0.07107443  0.93757018  0.20756059  1
  Se  Se246  1  0.08862437  0.91803925  0.69063402  1
  Se  Se247  1  0.42906816  0.25005283  0.20293304  1
  Se  Se248  1  0.41705441  0.24321313  0.69118119  1
  Se  Se249  1  0.42900936  0.57747752  0.19161110  1
  Se  Se250  1  0.41106192  0.58199205  0.70547006  1
  Se  Se251  1  0.41109767  0.92109351  0.18856538  1
  Se  Se252  1  0.42419789  0.91107107  0.68543858  1
  Se  Se253  1  0.77249206  0.22816025  0.20500043  1
  Se  Se254  1  0.74900432  0.25617833  0.69321639  1
  Se  Se255  1  0.76028819  0.57646586  0.18533263  1
  Se  Se256  1  0.75257817  0.57985394  0.68535281  1
  Se  Se257  1  0.75300875  0.90111479  0.19537594  1
  Se  Se258  1  0.75178332  0.92468567  0.69747251  1
