# generated using pymatgen
data_In86Cu29Se144
_symmetry_space_group_name_H-M   'P 1'
_cell_length_a   17.58564997
_cell_length_b   17.59003195
_cell_length_c   23.45020562
_cell_angle_alpha   90.00879256
_cell_angle_beta   90.00991011
_cell_angle_gamma   89.98917622
_symmetry_Int_Tables_number   1
_chemical_formula_structural   In86Cu29Se144
_chemical_formula_sum   'In86 Cu29 Se144'
_cell_volume   7253.90207631
_cell_formula_units_Z   1
loop_
 _symmetry_equiv_pos_site_id
 _symmetry_equiv_pos_as_xyz
  1  'x, y, z'
loop_
 _atom_site_type_symbol
 _atom_site_label
 _atom_site_symmetry_multiplicity
 _atom_site_fract_x
 _atom_site_fract_y
 _atom_site_fract_z
 _atom_site_occupancy
  In  In0  1  0.02069262  0.16334108  0.12320285  1
  In  In1  1  0.01282425  0.18386329  0.61786413  1
  In  In2  1  0.01916524  0.51879529  0.10968520  1
  In  In3  1  0.00381955  0.49479082  0.63040575  1
  In  In4  1  -0.00066254  0.81813330  0.12387802  1
  In  In5  1  -0.00394860  0.82212495  0.62901706  1
  In  In6  1  0.32007087  0.17510372  0.13078982  1
  In  In7  1  0.32701504  0.17647022  0.63547329  1
  In  In8  1  0.32937121  0.50263083  0.12730742  1
  In  In9  1  0.32204241  0.50578840  0.62936652  1
  In  In10  1  0.33279210  0.83111975  0.12177639  1
  In  In11  1  0.34342429  0.82969901  0.63312144  1
  In  In12  1  0.65055799  0.15920767  0.12585145  1
  In  In13  1  0.66994955  0.15967928  0.61897599  1
  In  In14  1  0.66711988  0.50037828  0.11607413  1
  In  In15  1  0.68056039  0.50176179  0.62723549  1
  In  In16  1  0.65947437  0.84169023  0.12785256  1
  In  In17  1  0.65214571  0.82442499  0.62430466  1
  In  In18  1  0.18544695  0.00506604  0.37594100  1
  In  In19  1  0.17566003  -0.01633330  0.89113886  1
  In  In20  1  0.17042960  0.33422373  0.37677864  1
  In  In21  1  0.16797731  0.33414331  0.87758778  1
  In  In22  1  0.16809306  0.65564151  0.36333368  1
  In  In23  1  0.16967799  0.66476268  0.87407698  1
  In  In24  1  0.48111319  -0.01727071  0.36912413  1
  In  In25  1  0.47862142  -0.00717797  0.86721889  1
  In  In26  1  0.48148809  0.33951634  0.37184688  1
  In  In27  1  0.50231488  0.34435074  0.87274706  1
  In  In28  1  0.49754159  0.67591946  0.37940335  1
  In  In29  1  0.48991854  0.67320965  0.87511146  1
  In  In30  1  0.83734335  0.01269671  0.37440444  1
  In  In31  1  0.83082517  0.00889201  0.87181338  1
  In  In32  1  0.83915207  0.33785305  0.38325381  1
  In  In33  1  0.85252466  0.34488801  0.86249232  1
  In  In34  1  0.83777492  0.65254192  0.38008778  1
  In  In35  1  0.82444513  0.64602240  0.86134853  1
  In  In36  1  0.00244807  0.17589465  0.38363254  1
  In  In37  1  0.00097525  0.17535043  0.87364017  1
  In  In38  1  0.00364238  0.50257171  0.37602779  1
  In  In39  1  0.00396980  0.50272284  0.87346647  1
  In  In40  1  0.01429783  0.82240986  0.37197432  1
  In  In41  1  0.01953507  0.82768680  0.87970038  1
  In  In42  1  0.32039314  0.15480822  0.37471643  1
  In  In43  1  0.32547040  0.15279938  0.86455309  1
  In  In44  1  0.32321028  0.48319622  0.35405219  1
  In  In45  1  0.33156964  0.50230403  0.87558243  1
  In  In46  1  0.33996278  0.84154006  0.37257095  1
  In  In47  1  0.33333690  0.82905918  0.87464705  1
  In  In48  1  0.67871153  0.16554030  0.37662929  1
  In  In49  1  0.66385562  0.16700580  0.87461894  1
  In  In50  1  0.67346120  0.51159485  0.37911365  1
  In  In51  1  0.65271946  0.51004185  0.88219969  1
  In  In52  1  0.64513207  0.82921408  0.37829078  1
  In  In53  1  0.66948069  0.81619114  0.87764329  1
  In  In54  1  0.17598026  0.01145912  0.11362666  1
  In  In55  1  0.17037557  0.01456977  0.62211874  1
  In  In56  1  0.18500952  0.34972380  0.11128368  1
  In  In57  1  0.16708168  0.33617838  0.62950093  1
  In  In58  1  0.16562667  0.66468035  0.12258880  1
  In  In59  1  0.17988608  0.65780234  0.63241455  1
  In  In60  1  0.50015475  -0.00965841  0.12744223  1
  In  In61  1  0.49522104  -0.01394531  0.62746183  1
  In  In62  1  0.48544789  0.33942516  0.12759319  1
  In  In63  1  0.48049129  0.32678566  0.63337339  1
  In  In64  1  0.47357339  0.64577876  0.11167428  1
  In  In65  1  0.49050029  0.68116142  0.63972379  1
  In  In66  1  0.82607133  -0.01380378  0.12966127  1
  In  In67  1  0.82402405  0.00638326  0.61950140  1
  In  In68  1  0.82692224  0.34229077  0.12320825  1
  In  In69  1  0.85081263  0.35517755  0.61757252  1
  In  In70  1  0.84661611  0.66161662  0.12498476  1
  In  In71  1  0.85425804  0.63797971  0.65023751  1
  In  In72  1  0.00250148  -0.00706488  0.24938497  1
  In  In73  1  0.65801143  0.32917672  0.24886719  1
  In  In74  1  0.83662000  0.82681276  0.00293343  1
  In  In75  1  0.17262253  0.83764971  0.49826435  1
  In  In76  1  0.65548988  0.66864670  0.25387033  1
  In  In77  1  0.66066044  -0.00490366  0.73822102  1
  In  In78  1  0.49571955  0.17154692  0.00007906  1
  In  In79  1  0.83892194  0.17446032  -0.00508821  1
  In  In80  1  0.00377255  -0.00274918  0.74942089  1
  In  In81  1  0.00256875  0.33862546  0.25380680  1
  In  In82  1  0.66307453  0.33706580  0.74680410  1
  In  In83  1  0.82627096  0.83153285  0.50772213  1
  In  In84  1  0.49931189  0.16186606  0.50498905  1
  In  In85  1  0.50301526  0.50518593  0.49685950  1
  Cu  Cu86  1  0.00024617  0.00940429  0.49925737  1
  Cu  Cu87  1  0.17109571  0.82725837  0.24670557  1
  Cu  Cu88  1  0.66383605  -0.00003748  0.00311840  1
  Cu  Cu89  1  0.32732396  0.66862953  -0.00277839  1
  Cu  Cu90  1  0.00598427  0.34068921  0.50194049  1
  Cu  Cu91  1  0.83689531  0.17444497  0.74074488  1
  Cu  Cu92  1  0.00208657  0.33617958  -0.00693675  1
  Cu  Cu93  1  0.67026536  0.66553154  0.50605802  1
  Cu  Cu94  1  0.17493954  0.83420346  0.75563410  1
  Cu  Cu95  1  0.33231943  0.66412654  0.50395905  1
  Cu  Cu96  1  0.00117400  0.66439691  -0.00448011  1
  Cu  Cu97  1  0.83725054  0.82486009  0.75318931  1
  Cu  Cu98  1  0.66593985  0.00247332  0.49826019  1
  Cu  Cu99  1  0.49469098  0.50663894  0.75533859  1
  Cu  Cu100  1  0.16848893  0.49627271  0.75462123  1
  Cu  Cu101  1  0.66100919  0.66694707  -0.00260355  1
  Cu  Cu102  1  0.83797575  0.50174087  0.25133025  1
  Cu  Cu103  1  0.32426585  0.33575773  0.50115288  1
  Cu  Cu104  1  0.67100107  0.33360801  0.50045641  1
  Cu  Cu105  1  0.33423653  -0.00284583  -0.00124797  1
  Cu  Cu106  1  0.33254030  0.33736035  -0.00098791  1
  Cu  Cu107  1  0.49810289  0.15365637  0.25150291  1
  Cu  Cu108  1  0.82908077  0.15709904  0.25038668  1
  Cu  Cu109  1  0.16384199  0.16876335  0.75112254  1
  Cu  Cu110  1  0.17223057  0.16860511  0.25176632  1
  Cu  Cu111  1  0.00416175  0.65893950  0.50287069  1
  Cu  Cu112  1  0.66981430  0.34342876  -0.00467904  1
  Cu  Cu113  1  0.49416063  0.83124536  0.24672159  1
  Cu  Cu114  1  0.82695984  0.82680400  0.24912026  1
  Se  Se115  1  0.08062911  0.08051098  0.04710373  1
  Se  Se116  1  0.08622163  0.08995693  0.55149954  1
  Se  Se117  1  0.08651351  0.41830771  0.04698843  1
  Se  Se118  1  0.08941804  0.42095852  0.55770571  1
  Se  Se119  1  0.08295992  0.74754944  0.05036303  1
  Se  Se120  1  0.08385486  0.74420425  0.55862931  1
  Se  Se121  1  0.41008672  0.08020726  0.06173052  1
  Se  Se122  1  0.40759828  0.08031529  0.56672362  1
  Se  Se123  1  0.41353734  0.42090125  0.05415877  1
  Se  Se124  1  0.41115305  0.41436496  0.55723211  1
  Se  Se125  1  0.41491183  0.75173947  0.04894905  1
  Se  Se126  1  0.41531002  0.74650729  0.55737546  1
  Se  Se127  1  0.74765810  0.08179072  0.05764191  1
  Se  Se128  1  0.75276659  0.08813826  0.54441293  1
  Se  Se129  1  0.75657308  0.42335329  0.04824226  1
  Se  Se130  1  0.75169356  0.42215192  0.55082662  1
  Se  Se131  1  0.74144703  0.74099166  0.06379861  1
  Se  Se132  1  0.75338161  0.73521131  0.57166997  1
  Se  Se133  1  0.25109471  0.24624621  0.04867071  1
  Se  Se134  1  0.24856774  0.25115123  0.55946238  1
  Se  Se135  1  0.24934178  0.58240447  0.05349835  1
  Se  Se136  1  0.24584957  0.57981324  0.55182646  1
  Se  Se137  1  0.24958006  0.91367711  0.05159181  1
  Se  Se138  1  0.25929520  0.92064485  0.56319797  1
  Se  Se139  1  0.59117549  0.26337869  0.05779205  1
  Se  Se140  1  0.58560263  0.26331285  0.56145902  1
  Se  Se141  1  0.57977116  0.58136448  0.05097550  1
  Se  Se142  1  0.58407157  0.58976914  0.56609671  1
  Se  Se143  1  0.57985274  0.91439160  0.05197348  1
  Se  Se144  1  0.58735881  0.92008576  0.55515876  1
  Se  Se145  1  0.92773832  0.25959096  0.06207112  1
  Se  Se146  1  0.91794542  0.25606003  0.55201252  1
  Se  Se147  1  0.91325448  0.58183130  0.04705326  1
  Se  Se148  1  0.92050929  0.58186292  0.56085408  1
  Se  Se149  1  0.92336621  0.92276248  0.06017287  1
  Se  Se150  1  0.92723614  0.92403153  0.55962364  1
  Se  Se151  1  0.08902700  0.25571738  0.44901902  1
  Se  Se152  1  0.08503294  0.24761487  0.94619052  1
  Se  Se153  1  0.08882892  0.58654413  0.44244825  1
  Se  Se154  1  0.08768748  0.58173757  0.94436575  1
  Se  Se155  1  0.07643494  0.92719816  0.43839694  1
  Se  Se156  1  0.07577144  0.91722944  0.95412486  1
  Se  Se157  1  0.40855581  0.25374155  0.44562521  1
  Se  Se158  1  0.40853807  0.25617178  0.93590569  1
  Se  Se159  1  0.40486130  0.58373933  0.43763029  1
  Se  Se160  1  0.41389615  0.58562258  0.94520921  1
  Se  Se161  1  0.41634393  0.91176838  0.45067084  1
  Se  Se162  1  0.41634269  0.91300291  0.94651922  1
  Se  Se163  1  0.75376291  0.25101352  0.44673051  1
  Se  Se164  1  0.74773092  0.26394938  0.93396664  1
  Se  Se165  1  0.75437300  0.58162330  0.45465068  1
  Se  Se166  1  0.74910677  0.58619884  0.94597754  1
  Se  Se167  1  0.74530868  0.91911123  0.43820650  1
  Se  Se168  1  0.74783785  0.92296415  0.94254125  1
  Se  Se169  1  0.24851955  0.08415880  0.45425029  1
  Se  Se170  1  0.25388388  0.08592942  0.94709483  1
  Se  Se171  1  0.25397151  0.42347709  0.44144707  1
  Se  Se172  1  0.24836024  0.42057629  0.94586704  1
  Se  Se173  1  0.25480264  0.74269785  0.43815183  1
  Se  Se174  1  0.24505855  0.75358157  0.94440822  1
  Se  Se175  1  0.58258047  0.07708428  0.43613577  1
  Se  Se176  1  0.58321993  0.07608759  0.94025862  1
  Se  Se177  1  0.58968777  0.40708370  0.43693202  1
  Se  Se178  1  0.57477352  0.42102784  0.94989687  1
  Se  Se179  1  0.58146980  0.74584034  0.45555308  1
  Se  Se180  1  0.57723736  0.75167241  0.94786263  1
  Se  Se181  1  0.91469389  0.09078627  0.44711343  1
  Se  Se182  1  0.92555838  0.07515430  0.94211449  1
  Se  Se183  1  0.92148177  0.42360205  0.44767734  1
  Se  Se184  1  0.91681537  0.42002139  0.94347206  1
  Se  Se185  1  0.92466356  0.74696075  0.44678784  1
  Se  Se186  1  0.91670487  0.74039167  0.93434432  1
  Se  Se187  1  0.25288026  0.25150083  0.30746358  1
  Se  Se188  1  0.24775009  0.25100012  0.80560068  1
  Se  Se189  1  0.27217104  0.59824527  0.29827498  1
  Se  Se190  1  0.25235032  0.58435144  0.80347758  1
  Se  Se191  1  0.24746452  0.91385948  0.30304149  1
  Se  Se192  1  0.25152850  0.92204507  0.80893178  1
  Se  Se193  1  0.57220365  0.23850383  0.31326711  1
  Se  Se194  1  0.57546135  0.24298656  0.80576659  1
  Se  Se195  1  0.57064830  0.57246027  0.31229706  1
  Se  Se196  1  0.57776450  0.58880048  0.80803171  1
  Se  Se197  1  0.57857699  0.91249609  0.30229659  1
  Se  Se198  1  0.58871717  0.91425939  0.81436311  1
  Se  Se199  1  0.90731401  0.24259767  0.30703398  1
  Se  Se200  1  0.92259135  0.24910382  0.79727438  1
  Se  Se201  1  0.92058046  0.58453335  0.30498002  1
  Se  Se202  1  0.92509888  0.58072024  0.79953751  1
  Se  Se203  1  0.90992854  0.90468695  0.31185916  1
  Se  Se204  1  0.91221524  0.90964251  0.81232946  1
  Se  Se205  1  0.08545176  0.09121238  0.30978135  1
  Se  Se206  1  0.09131933  0.08240070  0.81318705  1
  Se  Se207  1  0.09799689  0.42956023  0.30498132  1
  Se  Se208  1  0.08398057  0.41279548  0.80655726  1
  Se  Se209  1  0.08462375  0.74378026  0.29691602  1
  Se  Se210  1  0.08777643  0.74907683  0.80260819  1
  Se  Se211  1  0.40821199  0.07867093  0.30519998  1
  Se  Se212  1  0.42474158  0.09044412  0.79783698  1
  Se  Se213  1  0.41920046  0.41032099  0.29047230  1
  Se  Se214  1  0.41343836  0.41830157  0.80450283  1
  Se  Se215  1  0.41613242  0.74985873  0.30553262  1
  Se  Se216  1  0.41808363  0.75746730  0.80145933  1
  Se  Se217  1  0.74435069  0.07614842  0.30226538  1
  Se  Se218  1  0.75382301  0.09428394  0.79781890  1
  Se  Se219  1  0.75484756  0.41983863  0.30769663  1
  Se  Se220  1  0.74495820  0.42539753  0.81170688  1
  Se  Se221  1  0.75194021  0.75165929  0.31711879  1
  Se  Se222  1  0.74728633  0.74486645  0.80159256  1
  Se  Se223  1  0.24746261  0.07904716  0.19659962  1
  Se  Se224  1  0.24751937  0.08269042  0.70042090  1
  Se  Se225  1  0.25489918  0.40910821  0.19452992  1
  Se  Se226  1  0.25313978  0.41416836  0.69970380  1
  Se  Se227  1  0.25247726  0.74608165  0.19052980  1
  Se  Se228  1  0.25383886  0.74970107  0.69874667  1
  Se  Se229  1  0.58319436  0.07339192  0.19825435  1
  Se  Se230  1  0.57264910  0.09491608  0.68769459  1
  Se  Se231  1  0.57827926  0.42784512  0.19107994  1
  Se  Se232  1  0.56949345  0.42800434  0.68809944  1
  Se  Se233  1  0.56896342  0.74769558  0.18509903  1
  Se  Se234  1  0.58347652  0.75535736  0.70484230  1
  Se  Se235  1  0.91457361  0.08726147  0.18762468  1
  Se  Se236  1  0.91643948  0.08763099  0.68508572  1
  Se  Se237  1  0.91644477  0.42549528  0.18826491  1
  Se  Se238  1  0.91166840  0.42476151  0.70077203  1
  Se  Se239  1  0.91513543  0.74785899  0.19873571  1
  Se  Se240  1  0.92800497  0.74369971  0.70590213  1
  Se  Se241  1  0.09504975  0.25221181  0.19280266  1
  Se  Se242  1  0.08123259  0.25415665  0.69932796  1
  Se  Se243  1  0.07933342  0.58727673  0.19309514  1
  Se  Se244  1  0.08885197  0.58047832  0.69745336  1
  Se  Se245  1  0.09163667  0.90971571  0.18559227  1
  Se  Se246  1  0.09525406  0.90807832  0.68823776  1
  Se  Se247  1  0.42268026  0.24024819  0.19413030  1
  Se  Se248  1  0.41246364  0.24846006  0.70858223  1
  Se  Se249  1  0.40945259  0.58708537  0.19850811  1
  Se  Se250  1  0.40995383  0.58403834  0.69724817  1
  Se  Se251  1  0.40972226  0.91611120  0.19492066  1
  Se  Se252  1  0.42206691  0.91251301  0.70403899  1
  Se  Se253  1  0.75381074  0.23962950  0.18890558  1
  Se  Se254  1  0.75461490  0.25231824  0.68200183  1
  Se  Se255  1  0.75131638  0.57991209  0.19408408  1
  Se  Se256  1  0.73784533  0.58723755  0.70435253  1
  Se  Se257  1  0.74289232  0.91407474  0.20265059  1
  Se  Se258  1  0.76303823  0.90438876  0.68833520  1
