# generated using pymatgen
data_In86Cu29Se144
_symmetry_space_group_name_H-M   'P 1'
_cell_length_a   17.57730690
_cell_length_b   17.57398540
_cell_length_c   23.44120379
_cell_angle_alpha   90.00443818
_cell_angle_beta   90.01756902
_cell_angle_gamma   89.97276168
_symmetry_Int_Tables_number   1
_chemical_formula_structural   In86Cu29Se144
_chemical_formula_sum   'In86 Cu29 Se144'
_cell_volume   7241.06484100
_cell_formula_units_Z   1
loop_
 _symmetry_equiv_pos_site_id
 _symmetry_equiv_pos_as_xyz
  1  'x, y, z'
loop_
 _atom_site_type_symbol
 _atom_site_label
 _atom_site_symmetry_multiplicity
 _atom_site_fract_x
 _atom_site_fract_y
 _atom_site_fract_z
 _atom_site_occupancy
  In  In0  1  0.00375235  0.16836769  0.11729621  1
  In  In1  1  -0.00534128  0.15793641  0.61886736  1
  In  In2  1  0.01526113  0.51636977  0.12464252  1
  In  In3  1  0.00508015  0.50791414  0.61779807  1
  In  In4  1  -0.01004869  0.82105951  0.11955937  1
  In  In5  1  -0.00464616  0.84590760  0.63576208  1
  In  In6  1  0.32449227  0.15084149  0.12297299  1
  In  In7  1  0.31541840  0.14454134  0.60391991  1
  In  In8  1  0.32988636  0.49591685  0.12151630  1
  In  In9  1  0.32380372  0.51573856  0.62016328  1
  In  In10  1  0.34621298  0.85125524  0.12124915  1
  In  In11  1  0.33241473  0.84276215  0.63163135  1
  In  In12  1  0.66534294  0.16285957  0.12899841  1
  In  In13  1  0.66648619  0.16600462  0.60961114  1
  In  In14  1  0.65922092  0.51133191  0.13134651  1
  In  In15  1  0.66609103  0.48517669  0.62047032  1
  In  In16  1  0.66720253  0.83710394  0.13230934  1
  In  In17  1  0.66916727  0.81912959  0.62166507  1
  In  In18  1  0.17658367  0.01073406  0.36952667  1
  In  In19  1  0.17048704  -0.00707272  0.87231784  1
  In  In20  1  0.16610040  0.33492169  0.38152435  1
  In  In21  1  0.16758049  0.32936951  0.88489095  1
  In  In22  1  0.15664944  0.66441454  0.36838021  1
  In  In23  1  0.14618587  0.68161883  0.89328315  1
  In  In24  1  0.50692959  0.00215635  0.36549007  1
  In  In25  1  0.49172938  0.00781693  0.88455089  1
  In  In26  1  0.49633432  0.32051992  0.36843556  1
  In  In27  1  0.49996120  0.32704218  0.88896528  1
  In  In28  1  0.50801129  0.66461085  0.36841876  1
  In  In29  1  0.49040567  0.67675958  0.90158059  1
  In  In30  1  0.83176686  0.00276922  0.37683458  1
  In  In31  1  0.84572478  -0.01146969  0.88621029  1
  In  In32  1  0.83431021  0.33532109  0.37508065  1
  In  In33  1  0.82346922  0.33064251  0.87497459  1
  In  In34  1  0.82907576  0.66833536  0.37207108  1
  In  In35  1  0.84478027  0.66724235  0.87480545  1
  In  In36  1  0.00095268  0.16132948  0.38303779  1
  In  In37  1  0.01572271  0.14990315  0.88537618  1
  In  In38  1  -0.00284252  0.50222948  0.37912131  1
  In  In39  1  -0.00495272  0.51877007  0.87433433  1
  In  In40  1  -0.00262452  0.81679041  0.36737411  1
  In  In41  1  0.00306220  0.83296925  0.87286777  1
  In  In42  1  0.33498900  0.16246869  0.38528035  1
  In  In43  1  0.34102671  0.15607723  0.88135746  1
  In  In44  1  0.33446648  0.49470016  0.37670096  1
  In  In45  1  0.32500269  0.50558280  0.89030581  1
  In  In46  1  0.33330563  0.84932183  0.36653124  1
  In  In47  1  0.32069544  0.84734848  0.88904476  1
  In  In48  1  0.66699080  0.16411787  0.36956319  1
  In  In49  1  0.66903144  0.16163894  0.88908003  1
  In  In50  1  0.68112901  0.50935488  0.35937908  1
  In  In51  1  0.66534823  0.49690358  0.88540513  1
  In  In52  1  0.68844401  0.85621198  0.34067078  1
  In  In53  1  0.66634456  0.83043134  0.89557081  1
  In  In54  1  0.17920131  0.00921736  0.12075604  1
  In  In55  1  0.16116663  -0.00168893  0.62845843  1
  In  In56  1  0.16822818  0.33498628  0.12084906  1
  In  In57  1  0.16768952  0.33401217  0.62059475  1
  In  In58  1  0.15576364  0.66130011  0.12298860  1
  In  In59  1  0.16147410  0.65675942  0.62177089  1
  In  In60  1  0.49638779  -0.00297107  0.13156330  1
  In  In61  1  0.48807287  0.00163804  0.62391631  1
  In  In62  1  0.50874733  0.33897849  0.11991435  1
  In  In63  1  0.51333148  0.32596653  0.62669225  1
  In  In64  1  0.53567115  0.69076362  0.10177391  1
  In  In65  1  0.49093364  0.66981953  0.62281579  1
  In  In66  1  0.82005263  -0.01768123  0.12201588  1
  In  In67  1  0.84189197  0.00763472  0.61579137  1
  In  In68  1  0.83210311  0.32004071  0.12747775  1
  In  In69  1  0.82672594  0.32966047  0.61179862  1
  In  In70  1  0.81158185  0.70007459  0.15053079  1
  In  In71  1  0.84818071  0.68094592  0.61078187  1
  In  In72  1  0.50860169  0.84099767  0.48622723  1
  In  In73  1  0.67072636  -0.00195966  0.75450536  1
  In  In74  1  0.33334292  0.32696991  0.74462722  1
  In  In75  1  0.49983081  0.49356137  0.49911548  1
  In  In76  1  0.31850358  0.67903023  0.75707139  1
  In  In77  1  0.66998518  0.32825225  0.75155751  1
  In  In78  1  -0.00208754  -0.00436796  0.24964599  1
  In  In79  1  0.66934568  0.66479761  0.75321980  1
  In  In80  1  0.16042996  0.83905480  0.50047756  1
  In  In81  1  0.83634873  0.50739185  0.00459876  1
  In  In82  1  0.34018951  0.66793894  0.24196829  1
  In  In83  1  0.00103828  0.33466448  0.24758908  1
  In  In84  1  -0.00133508  0.33168252  0.74909995  1
  In  In85  1  0.33223489  0.32797027  0.24401776  1
  Cu  Cu86  1  0.00050525  -0.00715771  0.50095227  1
  Cu  Cu87  1  0.66665578  -0.00245455  0.48944191  1
  Cu  Cu88  1  0.49434063  0.83980473  0.75970478  1
  Cu  Cu89  1  0.50344170  0.50170747  0.23729952  1
  Cu  Cu90  1  0.15598848  0.50767494  0.75117387  1
  Cu  Cu91  1  0.83058984  0.15804049  0.24708455  1
  Cu  Cu92  1  0.33505229  -0.00265489  0.00116720  1
  Cu  Cu93  1  0.33222495  0.33476991  0.49712836  1
  Cu  Cu94  1  0.83779496  0.51065593  0.74052898  1
  Cu  Cu95  1  0.50273129  0.16254645  0.25144577  1
  Cu  Cu96  1  0.17166087  0.15594637  0.74939819  1
  Cu  Cu97  1  0.66406619  0.00308184  0.01051926  1
  Cu  Cu98  1  0.67725146  0.66318128  0.49183035  1
  Cu  Cu99  1  0.16772403  0.83658779  0.24200209  1
  Cu  Cu100  1  0.84340870  0.15802018  0.75015603  1
  Cu  Cu101  1  0.32433981  0.67538078  0.49748044  1
  Cu  Cu102  1  0.00271622  -0.00345121  0.00364957  1
  Cu  Cu103  1  0.33391947  0.32479485  0.00516686  1
  Cu  Cu104  1  0.66893639  0.33486096  0.48930530  1
  Cu  Cu105  1  -0.00263242  0.33440783  0.00310222  1
  Cu  Cu106  1  -0.00434583  0.66408087  0.49409162  1
  Cu  Cu107  1  0.33170822  0.66125074  0.01157257  1
  Cu  Cu108  1  -0.00081662  0.33150598  0.50050573  1
  Cu  Cu109  1  0.83891682  0.83852380  0.74969512  1
  Cu  Cu110  1  0.66876997  0.33032890  0.00334832  1
  Cu  Cu111  1  0.49591033  0.15855810  0.75200762  1
  Cu  Cu112  1  0.48911335  0.50620739  0.76657258  1
  Cu  Cu113  1  -0.00388222  0.67347080  0.00104932  1
  Cu  Cu114  1  0.84239244  0.50072580  0.25275653  1
  Se  Se115  1  0.08743899  0.08342599  0.05181203  1
  Se  Se116  1  0.08352906  0.07673384  0.55378957  1
  Se  Se117  1  0.07941250  0.41786483  0.05671722  1
  Se  Se118  1  0.08268429  0.41549229  0.55406363  1
  Se  Se119  1  0.08721724  0.75300610  0.05165252  1
  Se  Se120  1  0.07199101  0.74607646  0.55762973  1
  Se  Se121  1  0.41863531  0.07940973  0.05626217  1
  Se  Se122  1  0.43623874  0.09885545  0.55273580  1
  Se  Se123  1  0.41493966  0.41324060  0.05480766  1
  Se  Se124  1  0.40875508  0.41001021  0.56586814  1
  Se  Se125  1  0.41547376  0.75159564  0.05573090  1
  Se  Se126  1  0.40953108  0.75574256  0.55354131  1
  Se  Se127  1  0.75324968  0.08549287  0.05922736  1
  Se  Se128  1  0.74990369  0.07904806  0.54682914  1
  Se  Se129  1  0.74755787  0.41343024  0.06270187  1
  Se  Se130  1  0.74969699  0.41928008  0.54438232  1
  Se  Se131  1  0.75427493  0.75909687  0.06128666  1
  Se  Se132  1  0.75289790  0.75416990  0.54569921  1
  Se  Se133  1  0.24714402  0.24383863  0.05661047  1
  Se  Se134  1  0.24615893  0.25241536  0.54966303  1
  Se  Se135  1  0.24142396  0.57721020  0.05618406  1
  Se  Se136  1  0.24261193  0.58553362  0.54498610  1
  Se  Se137  1  0.24802377  0.91426748  0.05172932  1
  Se  Se138  1  0.25853480  0.92442567  0.55546997  1
  Se  Se139  1  0.58619456  0.24568472  0.05588526  1
  Se  Se140  1  0.58424688  0.25537523  0.54585889  1
  Se  Se141  1  0.58338935  0.57083690  0.04914685  1
  Se  Se142  1  0.58971235  0.59258816  0.55620698  1
  Se  Se143  1  0.58204931  0.91765046  0.06175662  1
  Se  Se144  1  0.59249832  0.92344884  0.56051890  1
  Se  Se145  1  0.91360688  0.24891337  0.05247170  1
  Se  Se146  1  0.91526162  0.24450229  0.55081892  1
  Se  Se147  1  0.91651207  0.59991343  0.06677850  1
  Se  Se148  1  0.91312027  0.57814885  0.54810295  1
  Se  Se149  1  0.91545752  0.91385063  0.05350520  1
  Se  Se150  1  0.91734535  0.90953910  0.55384208  1
  Se  Se151  1  0.08346813  0.24895157  0.44734717  1
  Se  Se152  1  0.08196519  0.24898841  0.95129384  1
  Se  Se153  1  0.08669731  0.58449917  0.44514772  1
  Se  Se154  1  0.07652278  0.57843932  0.95469999  1
  Se  Se155  1  0.07514972  0.92155010  0.43046202  1
  Se  Se156  1  0.08298493  0.91663780  0.94367009  1
  Se  Se157  1  0.41978973  0.25324278  0.44771001  1
  Se  Se158  1  0.41813713  0.23970305  0.95320376  1
  Se  Se159  1  0.41159018  0.59481128  0.44339271  1
  Se  Se160  1  0.41651214  0.57489345  0.95952796  1
  Se  Se161  1  0.40841763  0.93211859  0.44149212  1
  Se  Se162  1  0.42396557  0.91195492  0.95232196  1
  Se  Se163  1  0.75086511  0.24676697  0.43919739  1
  Se  Se164  1  0.75524193  0.24957790  0.95089314  1
  Se  Se165  1  0.75605767  0.57378318  0.44181490  1
  Se  Se166  1  0.74560051  0.59645836  0.94357411  1
  Se  Se167  1  0.74407575  0.90967409  0.43542464  1
  Se  Se168  1  0.74946441  0.92271972  0.95455713  1
  Se  Se169  1  0.24308766  0.08451633  0.44954074  1
  Se  Se170  1  0.24918536  0.07758342  0.94496958  1
  Se  Se171  1  0.24965686  0.42170376  0.44798408  1
  Se  Se172  1  0.24854273  0.41124975  0.95357152  1
  Se  Se173  1  0.25059673  0.75422690  0.43402749  1
  Se  Se174  1  0.25462172  0.74368403  0.95133172  1
  Se  Se175  1  0.58277611  0.08233210  0.43967733  1
  Se  Se176  1  0.58002633  0.08405285  0.95379056  1
  Se  Se177  1  0.58702708  0.41624456  0.43022722  1
  Se  Se178  1  0.58330266  0.41457425  0.95285243  1
  Se  Se179  1  0.59802037  0.74568290  0.43401671  1
  Se  Se180  1  0.58877527  0.74602357  0.96320250  1
  Se  Se181  1  0.91589940  0.07824668  0.44859903  1
  Se  Se182  1  0.91756309  0.08388957  0.95206703  1
  Se  Se183  1  0.91764387  0.41389679  0.44522538  1
  Se  Se184  1  0.92031708  0.41369821  0.93878482  1
  Se  Se185  1  0.91354016  0.74954333  0.44289957  1
  Se  Se186  1  0.91478780  0.75604902  0.94477886  1
  Se  Se187  1  0.24755699  0.24645916  0.31257723  1
  Se  Se188  1  0.24460447  0.24298110  0.80985086  1
  Se  Se189  1  0.25226898  0.57908620  0.30691673  1
  Se  Se190  1  0.23866845  0.57891137  0.81534914  1
  Se  Se191  1  0.24579903  0.92226120  0.29654855  1
  Se  Se192  1  0.25698561  0.91248764  0.80492063  1
  Se  Se193  1  0.58655838  0.25053530  0.29961243  1
  Se  Se194  1  0.57747985  0.24031367  0.81177934  1
  Se  Se195  1  0.58278742  0.58164746  0.29688744  1
  Se  Se196  1  0.57494980  0.58552448  0.82083429  1
  Se  Se197  1  0.56644874  0.90670491  0.29538426  1
  Se  Se198  1  0.58300867  0.91087210  0.81823139  1
  Se  Se199  1  0.91459647  0.23733579  0.30556224  1
  Se  Se200  1  0.91535940  0.24178306  0.81384750  1
  Se  Se201  1  0.92060892  0.58506568  0.30796110  1
  Se  Se202  1  0.91875594  0.59167185  0.79675566  1
  Se  Se203  1  0.90629631  0.90520128  0.30630126  1
  Se  Se204  1  0.91930938  0.92099862  0.80508100  1
  Se  Se205  1  0.08508431  0.09501651  0.30341416  1
  Se  Se206  1  0.08484083  0.07918714  0.80411154  1
  Se  Se207  1  0.08935746  0.42278793  0.30914407  1
  Se  Se208  1  0.08564529  0.42074724  0.81272070  1
  Se  Se209  1  0.08784945  0.75096264  0.29498985  1
  Se  Se210  1  0.07941019  0.73910818  0.80785838  1
  Se  Se211  1  0.41380772  0.09003604  0.30804500  1
  Se  Se212  1  0.41355139  0.07592415  0.80486615  1
  Se  Se213  1  0.42445039  0.42538518  0.30161865  1
  Se  Se214  1  0.41382781  0.41361896  0.81738600  1
  Se  Se215  1  0.42413521  0.75903899  0.30633709  1
  Se  Se216  1  0.41986478  0.75415721  0.81844416  1
  Se  Se217  1  0.74938116  0.07714639  0.30279273  1
  Se  Se218  1  0.75931417  0.08867018  0.81480998  1
  Se  Se219  1  0.75771212  0.41070445  0.29894795  1
  Se  Se220  1  0.75816876  0.43286513  0.80415973  1
  Se  Se221  1  0.73678783  0.73029634  0.29878165  1
  Se  Se222  1  0.75320699  0.76296007  0.81099852  1
  Se  Se223  1  0.24861182  0.08153195  0.20105494  1
  Se  Se224  1  0.25602089  0.07952425  0.69199402  1
  Se  Se225  1  0.23904466  0.42603812  0.19603464  1
  Se  Se226  1  0.24173025  0.42970127  0.69383043  1
  Se  Se227  1  0.24952952  0.75708963  0.18269755  1
  Se  Se228  1  0.23237669  0.75948679  0.68823779  1
  Se  Se229  1  0.58562589  0.07853535  0.19871018  1
  Se  Se230  1  0.58562400  0.08960515  0.69051998  1
  Se  Se231  1  0.58974460  0.41059132  0.19585204  1
  Se  Se232  1  0.57165301  0.42752324  0.70222724  1
  Se  Se233  1  0.58747090  0.74167529  0.19538074  1
  Se  Se234  1  0.56915013  0.75734923  0.69651399  1
  Se  Se235  1  0.91156784  0.08471444  0.18432321  1
  Se  Se236  1  0.92268558  0.07544902  0.69442483  1
  Se  Se237  1  0.91423696  0.42500292  0.18457836  1
  Se  Se238  1  0.90823342  0.41719053  0.68492711  1
  Se  Se239  1  0.93202965  0.74530743  0.20265808  1
  Se  Se240  1  0.91453623  0.74838720  0.69529757  1
  Se  Se241  1  0.09207397  0.24210167  0.19171167  1
  Se  Se242  1  0.09150870  0.24131077  0.69146728  1
  Se  Se243  1  0.08655094  0.58766441  0.20360787  1
  Se  Se244  1  0.07449915  0.58804592  0.69569897  1
  Se  Se245  1  0.08559923  0.91478065  0.18191693  1
  Se  Se246  1  0.08818778  0.91639433  0.70081332  1
  Se  Se247  1  0.42515744  0.24093768  0.18583495  1
  Se  Se248  1  0.42242163  0.23682950  0.68609454  1
  Se  Se249  1  0.42717211  0.58321651  0.17754259  1
  Se  Se250  1  0.41493260  0.58226509  0.69841480  1
  Se  Se251  1  0.40541098  0.92770029  0.20289048  1
  Se  Se252  1  0.41677766  0.92127454  0.70075027  1
  Se  Se253  1  0.74779337  0.24744739  0.19946824  1
  Se  Se254  1  0.75920597  0.23730021  0.69022385  1
  Se  Se255  1  0.75540280  0.57916395  0.19847663  1
  Se  Se256  1  0.75105484  0.58305214  0.68018265  1
  Se  Se257  1  0.75021996  0.91651641  0.20437595  1
  Se  Se258  1  0.75430903  0.91082236  0.68741897  1
