# generated using pymatgen
data_In86Cu29Se144
_symmetry_space_group_name_H-M   'P 1'
_cell_length_a   17.56864273
_cell_length_b   17.56879723
_cell_length_c   23.42091732
_cell_angle_alpha   90.02192415
_cell_angle_beta   90.01768164
_cell_angle_gamma   89.99011280
_symmetry_Int_Tables_number   1
_chemical_formula_structural   In86Cu29Se144
_chemical_formula_sum   'In86 Cu29 Se144'
_cell_volume   7229.09752543
_cell_formula_units_Z   1
loop_
 _symmetry_equiv_pos_site_id
 _symmetry_equiv_pos_as_xyz
  1  'x, y, z'
loop_
 _atom_site_type_symbol
 _atom_site_label
 _atom_site_symmetry_multiplicity
 _atom_site_fract_x
 _atom_site_fract_y
 _atom_site_fract_z
 _atom_site_occupancy
  In  In0  1  -0.00965138  0.17101672  0.12569615  1
  In  In1  1  0.01143160  0.15206842  0.63141877  1
  In  In2  1  0.00595735  0.51173712  0.11396676  1
  In  In3  1  -0.00772944  0.52153476  0.64983958  1
  In  In4  1  -0.00193842  0.83274830  0.12189468  1
  In  In5  1  -0.00208710  0.82137648  0.62734651  1
  In  In6  1  0.33692026  0.15610890  0.12180305  1
  In  In7  1  0.30781630  0.18258530  0.63229872  1
  In  In8  1  0.33073146  0.49789046  0.11258815  1
  In  In9  1  0.31657146  0.48827398  0.63228529  1
  In  In10  1  0.32693903  0.84416015  0.12223591  1
  In  In11  1  0.34559030  0.83855616  0.61948301  1
  In  In12  1  0.67724447  0.18041248  0.11790172  1
  In  In13  1  0.66062779  0.16904889  0.62614156  1
  In  In14  1  0.67007445  0.50646393  0.11672906  1
  In  In15  1  0.68745253  0.51059220  0.63374666  1
  In  In16  1  0.67694713  0.81035035  0.12534085  1
  In  In17  1  0.66663149  0.81909621  0.62561375  1
  In  In18  1  0.15678664  0.00129462  0.38191089  1
  In  In19  1  0.15470311  -0.01046538  0.86552938  1
  In  In20  1  0.16075374  0.32746278  0.38344830  1
  In  In21  1  0.16384242  0.35294783  0.85615988  1
  In  In22  1  0.16402526  0.68257306  0.37951955  1
  In  In23  1  0.15891376  0.67674416  0.88028254  1
  In  In24  1  0.49062407  0.00003992  0.37678922  1
  In  In25  1  0.50374222  0.01138392  0.87316471  1
  In  In26  1  0.50824248  0.32644237  0.37376919  1
  In  In27  1  0.49759899  0.33644139  0.87842215  1
  In  In28  1  0.51545436  0.66014009  0.37695071  1
  In  In29  1  0.50329366  0.65164581  0.87877801  1
  In  In30  1  0.83406128  -0.02081981  0.37643302  1
  In  In31  1  0.84764247  -0.01033823  0.88323921  1
  In  In32  1  0.83573975  0.35138273  0.37419274  1
  In  In33  1  0.83540610  0.33689226  0.87820429  1
  In  In34  1  0.83739222  0.66485640  0.37210009  1
  In  In35  1  0.83563398  0.66844766  0.87042832  1
  In  In36  1  0.01560412  0.15759538  0.37616886  1
  In  In37  1  -0.00644166  0.15974715  0.87083393  1
  In  In38  1  -0.01646149  0.49567090  0.37625208  1
  In  In39  1  -0.00580877  0.51407011  0.86930442  1
  In  In40  1  0.00008519  0.83078627  0.37436382  1
  In  In41  1  -0.00183694  0.83750200  0.86896012  1
  In  In42  1  0.32937283  0.16168768  0.37837783  1
  In  In43  1  0.33437613  0.17525519  0.86891798  1
  In  In44  1  0.33187995  0.50236762  0.37719107  1
  In  In45  1  0.33892134  0.49196207  0.87774340  1
  In  In46  1  0.32589474  0.83737449  0.39520164  1
  In  In47  1  0.31711585  0.83072335  0.87182913  1
  In  In48  1  0.65751939  0.17310039  0.36974305  1
  In  In49  1  0.66611476  0.16916340  0.88470655  1
  In  In50  1  0.67707723  0.51638674  0.36349550  1
  In  In51  1  0.67309091  0.51123373  0.87687430  1
  In  In52  1  0.68429218  0.81804432  0.38358125  1
  In  In53  1  0.69389789  0.81427367  0.87660095  1
  In  In54  1  0.17027405  -0.01204930  0.12532430  1
  In  In55  1  0.16413287  -0.00153495  0.62449117  1
  In  In56  1  0.15105154  0.33838594  0.12164035  1
  In  In57  1  0.16870886  0.33036757  0.63424951  1
  In  In58  1  0.15629177  0.66044372  0.11729375  1
  In  In59  1  0.15661460  0.66248903  0.62512569  1
  In  In60  1  0.48962390  0.00462354  0.11873883  1
  In  In61  1  0.49724054  -0.01797819  0.62411525  1
  In  In62  1  0.51263149  0.34998989  0.11121267  1
  In  In63  1  0.49052560  0.32722202  0.62697274  1
  In  In64  1  0.51656999  0.66073667  0.12263116  1
  In  In65  1  0.49484415  0.68060332  0.62566536  1
  In  In66  1  0.84377890  0.00728199  0.11880451  1
  In  In67  1  0.85002483  -0.01556000  0.63385389  1
  In  In68  1  0.82767117  0.32842475  0.11554430  1
  In  In69  1  0.84072456  0.35441653  0.63313234  1
  In  In70  1  0.83207675  0.67239903  0.11606186  1
  In  In71  1  0.83851032  0.66674904  0.63111422  1
  In  In72  1  0.50017299  0.83202446  0.00397702  1
  In  In73  1  0.33587893  0.67055416  0.25666286  1
  In  In74  1  0.49833018  0.50500631  0.50477206  1
  In  In75  1  0.66791242  0.34186645  0.76309273  1
  In  In76  1  0.49488565  0.16527848  0.49683361  1
  In  In77  1  0.32840925  0.00224780  0.25225806  1
  In  In78  1  0.83338750  0.16186933  0.50566135  1
  In  In79  1  0.33068157  0.66337426  0.74886075  1
  In  In80  1  0.67015198  -0.01112351  0.75029405  1
  In  In81  1  0.67038147  -0.00134544  0.24931863  1
  In  In82  1  -0.00904090  0.33213495  0.24683027  1
  In  In83  1  0.16105923  0.49887521  0.51268528  1
  In  In84  1  0.33502959  0.33270265  0.25585541  1
  In  In85  1  0.16151280  0.17200940  -0.00393772  1
  Cu  Cu86  1  0.33005355  0.33097137  -0.00995570  1
  Cu  Cu87  1  0.49959035  0.49329328  0.75488216  1
  Cu  Cu88  1  0.15797167  0.83148641  0.24956701  1
  Cu  Cu89  1  0.32915935  0.66449003  -0.00422494  1
  Cu  Cu90  1  0.67721752  0.66612242  0.49867580  1
  Cu  Cu91  1  0.48589137  0.16292756  0.74812669  1
  Cu  Cu92  1  0.00230317  -0.01106380  0.50511813  1
  Cu  Cu93  1  0.50868765  0.18098025  0.24158404  1
  Cu  Cu94  1  0.50002543  0.83543804  0.75099295  1
  Cu  Cu95  1  0.83531085  0.16628951  0.24469030  1
  Cu  Cu96  1  0.84084893  0.82668325  0.24912147  1
  Cu  Cu97  1  0.33111055  0.00451536  0.50607439  1
  Cu  Cu98  1  0.66852739  -0.01096319  0.50563697  1
  Cu  Cu99  1  -0.00455477  0.66453469  0.50273050  1
  Cu  Cu100  1  0.16687108  0.84315664  0.74547337  1
  Cu  Cu101  1  -0.00199550  -0.00323336  -0.00338598  1
  Cu  Cu102  1  -0.00244548  0.33274434  0.50492909  1
  Cu  Cu103  1  0.67486944  0.34693110  0.49847948  1
  Cu  Cu104  1  0.51044642  0.50091497  0.24048916  1
  Cu  Cu105  1  -0.00178233  0.34350376  -0.00587503  1
  Cu  Cu106  1  0.82689096  0.16691698  0.75311536  1
  Cu  Cu107  1  0.50740856  0.82992427  0.25518093  1
  Cu  Cu108  1  0.66961275  0.00142699  0.00063041  1
  Cu  Cu109  1  0.83016276  0.50619492  0.24374817  1
  Cu  Cu110  1  0.16345515  0.16173887  0.75210319  1
  Cu  Cu111  1  0.66893358  0.33802456  -0.00339710  1
  Cu  Cu112  1  0.15699886  0.50128298  0.24402745  1
  Cu  Cu113  1  -0.00300877  0.67349883  -0.00586751  1
  Cu  Cu114  1  0.32911183  0.00119677  -0.00431842  1
  Se  Se115  1  0.07861642  0.07763173  0.05880724  1
  Se  Se116  1  0.08381743  0.08082906  0.55134052  1
  Se  Se117  1  0.08621564  0.42271277  0.04672883  1
  Se  Se118  1  0.06824961  0.41352305  0.57121741  1
  Se  Se119  1  0.08268489  0.75323598  0.05090024  1
  Se  Se120  1  0.08262418  0.74669996  0.55313859  1
  Se  Se121  1  0.41545378  0.08564613  0.04459889  1
  Se  Se122  1  0.41170302  0.08423628  0.56697038  1
  Se  Se123  1  0.41306987  0.41517523  0.04539475  1
  Se  Se124  1  0.40556613  0.41013686  0.55754100  1
  Se  Se125  1  0.40697544  0.74036291  0.06319752  1
  Se  Se126  1  0.41915826  0.75046145  0.54937537  1
  Se  Se127  1  0.75329303  0.08646390  0.05371031  1
  Se  Se128  1  0.74418701  0.07034622  0.56755677  1
  Se  Se129  1  0.75446113  0.42070939  0.04906775  1
  Se  Se130  1  0.75450943  0.42356157  0.55872324  1
  Se  Se131  1  0.74569391  0.74563113  0.04337411  1
  Se  Se132  1  0.75874438  0.74683677  0.55709641  1
  Se  Se133  1  0.25500509  0.25776320  0.05990748  1
  Se  Se134  1  0.23885276  0.25556045  0.55379649  1
  Se  Se135  1  0.24373074  0.58159116  0.04949658  1
  Se  Se136  1  0.26199276  0.59030452  0.56047753  1
  Se  Se137  1  0.24636680  0.91600239  0.04702665  1
  Se  Se138  1  0.25005600  0.91624183  0.55661101  1
  Se  Se139  1  0.58490915  0.25089340  0.04876024  1
  Se  Se140  1  0.59078809  0.26258615  0.55289078  1
  Se  Se141  1  0.57287729  0.57231521  0.04802764  1
  Se  Se142  1  0.59508732  0.59066605  0.56297480  1
  Se  Se143  1  0.59313530  0.92127635  0.06490609  1
  Se  Se144  1  0.58465153  0.90571386  0.55713924  1
  Se  Se145  1  0.92321531  0.25398718  0.04996668  1
  Se  Se146  1  0.91824238  0.25257251  0.56796594  1
  Se  Se147  1  0.91597831  0.58745039  0.04774515  1
  Se  Se148  1  0.92171553  0.58027122  0.56291684  1
  Se  Se149  1  0.91394245  0.91376141  0.05099904  1
  Se  Se150  1  0.91672797  0.90597764  0.55558259  1
  Se  Se151  1  0.07747627  0.24718528  0.45191613  1
  Se  Se152  1  0.07721920  0.26112720  0.93301936  1
  Se  Se153  1  0.07626739  0.58279905  0.44142567  1
  Se  Se154  1  0.08016537  0.58516214  0.94459146  1
  Se  Se155  1  0.08479666  0.90737383  0.44771701  1
  Se  Se156  1  0.08252654  0.91478109  0.94357965  1
  Se  Se157  1  0.40625262  0.26322501  0.44196138  1
  Se  Se158  1  0.41766964  0.24564521  0.94414482  1
  Se  Se159  1  0.40883369  0.59519069  0.44299351  1
  Se  Se160  1  0.41485700  0.57920134  0.94822511  1
  Se  Se161  1  0.41924080  0.92319322  0.45322015  1
  Se  Se162  1  0.41192331  0.91885315  0.93780502  1
  Se  Se163  1  0.74639392  0.25438225  0.44138795  1
  Se  Se164  1  0.75450988  0.25204603  0.94768518  1
  Se  Se165  1  0.75596995  0.58031540  0.44347583  1
  Se  Se166  1  0.75715362  0.58992152  0.94470308  1
  Se  Se167  1  0.75605331  0.90925566  0.45339264  1
  Se  Se168  1  0.74850855  0.91659110  0.94543374  1
  Se  Se169  1  0.24834198  0.08193903  0.44717479  1
  Se  Se170  1  0.24735774  0.07956107  0.93486884  1
  Se  Se171  1  0.25277149  0.41336925  0.44513773  1
  Se  Se172  1  0.24293220  0.41284107  0.93969832  1
  Se  Se173  1  0.24653317  0.74569096  0.45541890  1
  Se  Se174  1  0.24705035  0.75474793  0.95001726  1
  Se  Se175  1  0.59534354  0.07353342  0.44356027  1
  Se  Se176  1  0.58194586  0.08292902  0.95031615  1
  Se  Se177  1  0.58991575  0.42118285  0.43825672  1
  Se  Se178  1  0.58834517  0.41935120  0.93941309  1
  Se  Se179  1  0.58700269  0.74677259  0.44880549  1
  Se  Se180  1  0.58787132  0.74496903  0.94206384  1
  Se  Se181  1  0.92149446  0.07153590  0.44363675  1
  Se  Se182  1  0.91594822  0.08802473  0.94957013  1
  Se  Se183  1  0.91319239  0.41739119  0.45420794  1
  Se  Se184  1  0.91543250  0.42861050  0.94212500  1
  Se  Se185  1  0.91689247  0.74725364  0.44337001  1
  Se  Se186  1  0.91530750  0.75652392  0.93916382  1
  Se  Se187  1  0.23933370  0.24168096  0.30835558  1
  Se  Se188  1  0.24439779  0.25086915  0.80171176  1
  Se  Se189  1  0.23774542  0.57683133  0.30834602  1
  Se  Se190  1  0.24610308  0.58217160  0.81635813  1
  Se  Se191  1  0.24546184  0.90501967  0.31077378  1
  Se  Se192  1  0.25401090  0.92179183  0.79900498  1
  Se  Se193  1  0.59160889  0.26146118  0.29628880  1
  Se  Se194  1  0.57475777  0.23800005  0.80706359  1
  Se  Se195  1  0.58591071  0.59051064  0.29547181  1
  Se  Se196  1  0.58270138  0.57987258  0.80297973  1
  Se  Se197  1  0.58402860  0.91247915  0.31588134  1
  Se  Se198  1  0.58341148  0.90385741  0.81768270  1
  Se  Se199  1  0.90999980  0.24172146  0.31511303  1
  Se  Se200  1  0.90939362  0.24895196  0.80744658  1
  Se  Se201  1  0.91811000  0.58063360  0.30085636  1
  Se  Se202  1  0.93851172  0.61608426  0.79822614  1
  Se  Se203  1  0.91983016  0.91460231  0.30187259  1
  Se  Se204  1  0.91491461  0.92204535  0.80147281  1
  Se  Se205  1  0.08650057  0.07589836  0.30325467  1
  Se  Se206  1  0.07514763  0.07881782  0.80048445  1
  Se  Se207  1  0.08611030  0.41829238  0.30891586  1
  Se  Se208  1  0.04961568  0.40911923  0.80006835  1
  Se  Se209  1  0.07903563  0.74453717  0.30272730  1
  Se  Se210  1  0.09132431  0.75847183  0.80326037  1
  Se  Se211  1  0.42881445  0.09969169  0.30280243  1
  Se  Se212  1  0.40928465  0.07796828  0.80438187  1
  Se  Se213  1  0.43072707  0.42965966  0.30808954  1
  Se  Se214  1  0.41464680  0.40950204  0.80374357  1
  Se  Se215  1  0.42184002  0.76131752  0.31880925  1
  Se  Se216  1  0.42202425  0.75143155  0.81240570  1
  Se  Se217  1  0.75955574  0.08868232  0.31219648  1
  Se  Se218  1  0.75018333  0.08475468  0.81326903  1
  Se  Se219  1  0.75151512  0.41930888  0.29936037  1
  Se  Se220  1  0.76724766  0.43540743  0.80594745  1
  Se  Se221  1  0.75243306  0.74700392  0.30186221  1
  Se  Se222  1  0.73769647  0.72641198  0.79493506  1
  Se  Se223  1  0.23919247  0.09283132  0.19234409  1
  Se  Se224  1  0.24707629  0.07913600  0.69647514  1
  Se  Se225  1  0.24440290  0.42129039  0.19126687  1
  Se  Se226  1  0.24173891  0.41582894  0.70767381  1
  Se  Se227  1  0.24535858  0.75484096  0.19090004  1
  Se  Se228  1  0.24741837  0.75815811  0.68767018  1
  Se  Se229  1  0.58061989  0.08795484  0.18637709  1
  Se  Se230  1  0.57451594  0.08415607  0.69332473  1
  Se  Se231  1  0.59284482  0.41720041  0.18880731  1
  Se  Se232  1  0.58112599  0.41996923  0.68852992  1
  Se  Se233  1  0.58395336  0.74732563  0.19769002  1
  Se  Se234  1  0.58032847  0.74842315  0.69976548  1
  Se  Se235  1  0.92006916  0.08128066  0.19688431  1
  Se  Se236  1  0.91109421  0.08619018  0.69789561  1
  Se  Se237  1  0.91122334  0.42562669  0.18324060  1
  Se  Se238  1  0.92898297  0.41294220  0.70919633  1
  Se  Se239  1  0.91892749  0.74505757  0.18999294  1
  Se  Se240  1  0.94040822  0.72490131  0.70148834  1
  Se  Se241  1  0.09019530  0.24262448  0.19468579  1
  Se  Se242  1  0.08012126  0.24624772  0.69905075  1
  Se  Se243  1  0.07660634  0.58800568  0.19397447  1
  Se  Se244  1  0.11676287  0.56389308  0.69962167  1
  Se  Se245  1  0.08017453  0.91625352  0.19364748  1
  Se  Se246  1  0.07642897  0.91720639  0.69097317  1
  Se  Se247  1  0.42113295  0.25365798  0.18340210  1
  Se  Se248  1  0.40746704  0.25256635  0.69781276  1
  Se  Se249  1  0.41550945  0.57700760  0.18964479  1
  Se  Se250  1  0.42314425  0.57221520  0.68898531  1
  Se  Se251  1  0.42603142  0.90960242  0.19594249  1
  Se  Se252  1  0.41333353  0.91652195  0.70046725  1
  Se  Se253  1  0.75426078  0.25382335  0.19523222  1
  Se  Se254  1  0.75008419  0.25047846  0.69315763  1
  Se  Se255  1  0.74980425  0.58937853  0.18786012  1
  Se  Se256  1  0.74332046  0.60572523  0.70574326  1
  Se  Se257  1  0.75971065  0.90947874  0.18894399  1
  Se  Se258  1  0.76176769  0.89527686  0.69721266  1
