# generated using pymatgen
data_In86Cu29Se144
_symmetry_space_group_name_H-M   'P 1'
_cell_length_a   17.58841780
_cell_length_b   17.58720354
_cell_length_c   23.45650887
_cell_angle_alpha   89.99376067
_cell_angle_beta   89.97809648
_cell_angle_gamma   90.01594725
_symmetry_Int_Tables_number   1
_chemical_formula_structural   In86Cu29Se144
_chemical_formula_sum   'In86 Cu29 Se144'
_cell_volume   7255.82645704
_cell_formula_units_Z   1
loop_
 _symmetry_equiv_pos_site_id
 _symmetry_equiv_pos_as_xyz
  1  'x, y, z'
loop_
 _atom_site_type_symbol
 _atom_site_label
 _atom_site_symmetry_multiplicity
 _atom_site_fract_x
 _atom_site_fract_y
 _atom_site_fract_z
 _atom_site_occupancy
  In  In0  1  0.01336185  0.15526971  0.13048447  1
  In  In1  1  -0.01154212  0.16422758  0.62113316  1
  In  In2  1  0.00860007  0.49245937  0.13392417  1
  In  In3  1  0.00434488  0.49805440  0.62428291  1
  In  In4  1  0.00150541  0.83987608  0.13612709  1
  In  In5  1  -0.00593172  0.84342200  0.62684885  1
  In  In6  1  0.33475521  0.18556821  0.12768218  1
  In  In7  1  0.34157815  0.15977614  0.63028160  1
  In  In8  1  0.33060540  0.50157752  0.12428366  1
  In  In9  1  0.32483586  0.49473926  0.62110466  1
  In  In10  1  0.32939025  0.81630643  0.12704341  1
  In  In11  1  0.34250600  0.83338537  0.62707486  1
  In  In12  1  0.66288528  0.15304794  0.12707069  1
  In  In13  1  0.65745358  0.15892727  0.62135448  1
  In  In14  1  0.66858940  0.51539107  0.12507468  1
  In  In15  1  0.66349878  0.51858091  0.62927911  1
  In  In16  1  0.65593730  0.84033747  0.12861563  1
  In  In17  1  0.67700834  0.82276691  0.63031257  1
  In  In18  1  0.15966992  0.01177793  0.37124157  1
  In  In19  1  0.16975128  0.00289995  0.87092681  1
  In  In20  1  0.18034695  0.34791107  0.36496314  1
  In  In21  1  0.17936989  0.32730206  0.88109601  1
  In  In22  1  0.15947415  0.65595094  0.37426526  1
  In  In23  1  0.15175765  0.66862113  0.87651190  1
  In  In24  1  0.51613139  -0.00814205  0.37667262  1
  In  In25  1  0.50047594  -0.00571777  0.87422333  1
  In  In26  1  0.48916598  0.34382168  0.38381513  1
  In  In27  1  0.48855339  0.35798215  0.87403552  1
  In  In28  1  0.49347164  0.65614638  0.36676903  1
  In  In29  1  0.50852750  0.65681427  0.87705259  1
  In  In30  1  0.83270994  -0.00257443  0.37659025  1
  In  In31  1  0.83024991  -0.00335966  0.86651736  1
  In  In32  1  0.83327725  0.31936141  0.37821776  1
  In  In33  1  0.82655655  0.33189533  0.87459361  1
  In  In34  1  0.84226482  0.67911120  0.37451821  1
  In  In35  1  0.83524392  0.66476002  0.86090534  1
  In  In36  1  -0.00865272  0.15838523  0.36704709  1
  In  In37  1  0.01419441  0.16551864  0.87738097  1
  In  In38  1  0.01783340  0.51663696  0.37041040  1
  In  In39  1  0.00446356  0.51439992  0.87691874  1
  In  In40  1  -0.01263659  0.81360333  0.36472139  1
  In  In41  1  -0.00381666  0.83037603  0.86824176  1
  In  In42  1  0.32875888  0.17933978  0.37461930  1
  In  In43  1  0.32769258  0.15982042  0.86987679  1
  In  In44  1  0.33783333  0.50195758  0.37773520  1
  In  In45  1  0.34199929  0.49248391  0.87769676  1
  In  In46  1  0.33347782  0.82227415  0.36826563  1
  In  In47  1  0.33395250  0.84819455  0.87590209  1
  In  In48  1  0.67564913  0.15730655  0.38394655  1
  In  In49  1  0.67002796  0.16030747  0.87188567  1
  In  In50  1  0.64723850  0.50076575  0.37699978  1
  In  In51  1  0.65064242  0.50370345  0.86816761  1
  In  In52  1  0.67731734  0.84150350  0.36937336  1
  In  In53  1  0.66220233  0.82467296  0.87129551  1
  In  In54  1  0.14837116  0.00401337  0.11619250  1
  In  In55  1  0.16931338  -0.00295559  0.63289883  1
  In  In56  1  0.16682371  0.33602326  0.12455191  1
  In  In57  1  0.16822247  0.34869127  0.62140478  1
  In  In58  1  0.17927575  0.66242225  0.13779484  1
  In  In59  1  0.16385806  0.64784399  0.61813193  1
  In  In60  1  0.51493043  -0.00416864  0.12302811  1
  In  In61  1  0.49795851  0.00495416  0.63300062  1
  In  In62  1  0.48263227  0.33680834  0.12679522  1
  In  In63  1  0.49491764  0.32668775  0.62294809  1
  In  In64  1  0.49868119  0.66466060  0.12402229  1
  In  In65  1  0.50516062  0.66821565  0.62245582  1
  In  In66  1  0.83662918  -0.00630903  0.12931156  1
  In  In67  1  0.83156792  -0.00065332  0.62498817  1
  In  In68  1  0.83632906  0.34821923  0.13115230  1
  In  In69  1  0.84540524  0.32889538  0.61908688  1
  In  In70  1  0.83315274  0.67202486  0.13618346  1
  In  In71  1  0.82622451  0.67354475  0.62617994  1
  In  In72  1  0.83070057  0.49877154  0.50261722  1
  In  In73  1  0.49620311  0.16628004  -0.00385225  1
  In  In74  1  0.66547119  0.33570520  0.75198657  1
  In  In75  1  0.00350899  0.33284534  0.74333051  1
  In  In76  1  0.16024221  0.82511718  0.48958134  1
  In  In77  1  0.84436911  0.15963998  0.01084244  1
  In  In78  1  0.16241352  0.17086570  0.49282898  1
  In  In79  1  0.33197270  0.66814682  0.74700242  1
  In  In80  1  0.83386885  0.83502594  0.00422416  1
  In  In81  1  0.16848875  0.83152332  0.00088306  1
  In  In82  1  0.83365649  0.50257784  -0.00508998  1
  In  In83  1  0.50445489  0.82794239  0.50381623  1
  In  In84  1  0.66636148  0.33298644  0.25750216  1
  In  In85  1  0.33204977  0.00063998  0.24839499  1
  Cu  Cu86  1  0.83798564  0.50527108  0.25527679  1
  Cu  Cu87  1  0.67198756  0.00089015  0.50148410  1
  Cu  Cu88  1  0.50091848  0.83769444  0.74970419  1
  Cu  Cu89  1  0.16861813  0.49794094  0.74800874  1
  Cu  Cu90  1  0.49703024  0.16699144  0.75150021  1
  Cu  Cu91  1  0.83443695  0.16168574  0.74678916  1
  Cu  Cu92  1  -0.00952890  0.00066819  0.49802228  1
  Cu  Cu93  1  0.00309623  0.33640392  0.49592905  1
  Cu  Cu94  1  0.65770651  0.33152967  -0.00397142  1
  Cu  Cu95  1  0.83324520  0.83326567  0.25223740  1
  Cu  Cu96  1  0.33312233  0.00481038  -0.00417128  1
  Cu  Cu97  1  0.66129532  0.32826151  0.50103508  1
  Cu  Cu98  1  0.16270095  0.17389257  0.24906912  1
  Cu  Cu99  1  0.34000709  -0.00411773  0.50700115  1
  Cu  Cu100  1  0.83227212  0.83732155  0.74675963  1
  Cu  Cu101  1  0.83073122  0.16178067  0.25345464  1
  Cu  Cu102  1  0.17042697  0.16462204  0.75148785  1
  Cu  Cu103  1  0.32641894  0.34123211  0.00248857  1
  Cu  Cu104  1  0.66688219  0.67049695  0.50108610  1
  Cu  Cu105  1  0.49408443  0.49990883  0.24949188  1
  Cu  Cu106  1  0.00203695  0.66540531  0.00470934  1
  Cu  Cu107  1  0.16106838  0.83175558  0.75236785  1
  Cu  Cu108  1  0.01140715  0.33529577  0.00382442  1
  Cu  Cu109  1  0.17042121  0.49852147  0.24929667  1
  Cu  Cu110  1  0.65523581  0.66887706  -0.00133595  1
  Cu  Cu111  1  0.33586623  0.66224493  0.00386922  1
  Cu  Cu112  1  0.50325959  0.16567795  0.25165516  1
  Cu  Cu113  1  0.33607913  0.33290688  0.49882014  1
  Cu  Cu114  1  0.50475664  0.82545512  0.24973556  1
  Se  Se115  1  0.08010428  0.09214268  0.04529062  1
  Se  Se116  1  0.08085991  0.07474670  0.55599031  1
  Se  Se117  1  0.08800466  0.42515378  0.05561867  1
  Se  Se118  1  0.08306830  0.42073485  0.54954656  1
  Se  Se119  1  0.07961300  0.74609981  0.06521997  1
  Se  Se120  1  0.07683835  0.74752279  0.56154404  1
  Se  Se121  1  0.41010862  0.08043345  0.06319320  1
  Se  Se122  1  0.42159920  0.08221897  0.55666741  1
  Se  Se123  1  0.41580168  0.42149861  0.05252665  1
  Se  Se124  1  0.41617737  0.41493172  0.55563233  1
  Se  Se125  1  0.41720364  0.74984601  0.05395050  1
  Se  Se126  1  0.40453137  0.73827591  0.55396910  1
  Se  Se127  1  0.74293959  0.06793061  0.05632325  1
  Se  Se128  1  0.75266028  0.08690674  0.55565481  1
  Se  Se129  1  0.74115920  0.41104366  0.05581444  1
  Se  Se130  1  0.73920072  0.40940255  0.56393978  1
  Se  Se131  1  0.74336157  0.73992288  0.05936974  1
  Se  Se132  1  0.75233343  0.75417398  0.55014228  1
  Se  Se133  1  0.24824861  0.25147354  0.05354893  1
  Se  Se134  1  0.25345505  0.25161649  0.55875653  1
  Se  Se135  1  0.24606130  0.58691247  0.05700885  1
  Se  Se136  1  0.25104387  0.57853372  0.54870533  1
  Se  Se137  1  0.25829845  0.92353136  0.06116944  1
  Se  Se138  1  0.25116366  0.91542750  0.55704582  1
  Se  Se139  1  0.58507737  0.25432143  0.06293727  1
  Se  Se140  1  0.57739325  0.24439457  0.55373658  1
  Se  Se141  1  0.57915369  0.57954956  0.05239658  1
  Se  Se142  1  0.58311159  0.58521712  0.55061811  1
  Se  Se143  1  0.58293513  0.91181751  0.04994796  1
  Se  Se144  1  0.59062425  0.92122652  0.56327414  1
  Se  Se145  1  0.92488839  0.26388918  0.06432346  1
  Se  Se146  1  0.92072837  0.24885246  0.54549200  1
  Se  Se147  1  0.91815900  0.58666275  0.06351452  1
  Se  Se148  1  0.92007412  0.58982944  0.55941406  1
  Se  Se149  1  0.93115476  0.92433998  0.05622411  1
  Se  Se150  1  0.91123470  0.91660969  0.55300033  1
  Se  Se151  1  0.07843330  0.25962580  0.42958118  1
  Se  Se152  1  0.08856048  0.24995883  0.94781450  1
  Se  Se153  1  0.08680299  0.58246082  0.45283206  1
  Se  Se154  1  0.08704706  0.58278419  0.95319806  1
  Se  Se155  1  0.07409564  0.92625094  0.43751254  1
  Se  Se156  1  0.07860548  0.91711497  0.93864853  1
  Se  Se157  1  0.41687663  0.24486942  0.44802455  1
  Se  Se158  1  0.40734524  0.26077163  0.93994881  1
  Se  Se159  1  0.43478393  0.57168340  0.44391072  1
  Se  Se160  1  0.41757558  0.58291752  0.94520527  1
  Se  Se161  1  0.41163134  0.91592266  0.44060197  1
  Se  Se162  1  0.41877156  0.91911288  0.94912260  1
  Se  Se163  1  0.75062649  0.24787422  0.45215063  1
  Se  Se164  1  0.74647055  0.24904656  0.94771706  1
  Se  Se165  1  0.74337195  0.58749076  0.43855945  1
  Se  Se166  1  0.74203930  0.59359089  0.93807130  1
  Se  Se167  1  0.75133713  0.91461745  0.44760984  1
  Se  Se168  1  0.74529122  0.91827481  0.93950197  1
  Se  Se169  1  0.26027495  0.07415380  0.44382095  1
  Se  Se170  1  0.24717700  0.08492624  0.94436318  1
  Se  Se171  1  0.25231426  0.41608880  0.44574966  1
  Se  Se172  1  0.24656901  0.42576485  0.94696583  1
  Se  Se173  1  0.26128057  0.73659748  0.44173197  1
  Se  Se174  1  0.25920385  0.74200199  0.93889445  1
  Se  Se175  1  0.58269131  0.07965615  0.44976687  1
  Se  Se176  1  0.59277667  0.07614073  0.94479650  1
  Se  Se177  1  0.58005754  0.41720196  0.45260695  1
  Se  Se178  1  0.58184226  0.42199833  0.94533504  1
  Se  Se179  1  0.58913247  0.74628778  0.43477701  1
  Se  Se180  1  0.57597357  0.75407242  0.94485264  1
  Se  Se181  1  0.91212074  0.08825448  0.44429891  1
  Se  Se182  1  0.92118352  0.07589993  0.93800760  1
  Se  Se183  1  0.92078056  0.41661220  0.43625837  1
  Se  Se184  1  0.92688732  0.40655502  0.94008839  1
  Se  Se185  1  0.91967774  0.75241741  0.44963668  1
  Se  Se186  1  0.91943442  0.73939200  0.94255498  1
  Se  Se187  1  0.25324604  0.25293191  0.29831842  1
  Se  Se188  1  0.25154440  0.25141962  0.80290471  1
  Se  Se189  1  0.25124452  0.57929113  0.30740683  1
  Se  Se190  1  0.24268884  0.58141530  0.81093335  1
  Se  Se191  1  0.24274832  0.91454807  0.31014994  1
  Se  Se192  1  0.24803547  0.91538913  0.80192644  1
  Se  Se193  1  0.57783860  0.24401950  0.31801660  1
  Se  Se194  1  0.57299645  0.24844589  0.81499370  1
  Se  Se195  1  0.58450106  0.58127641  0.29750137  1
  Se  Se196  1  0.58236977  0.58998434  0.79681478  1
  Se  Se197  1  0.58619491  0.91453471  0.29933563  1
  Se  Se198  1  0.58662502  0.91772316  0.80405657  1
  Se  Se199  1  0.91344637  0.25073436  0.30092345  1
  Se  Se200  1  0.91203501  0.24394778  0.80775695  1
  Se  Se201  1  0.92098996  0.59033903  0.30702365  1
  Se  Se202  1  0.92338535  0.57956509  0.80169260  1
  Se  Se203  1  0.91631702  0.91775212  0.30575662  1
  Se  Se204  1  0.91822651  0.91763540  0.80050385  1
  Se  Se205  1  0.08023658  0.08512940  0.29663708  1
  Se  Se206  1  0.08288663  0.08321919  0.80173026  1
  Se  Se207  1  0.08138393  0.41812563  0.30191189  1
  Se  Se208  1  0.08935325  0.41738724  0.81080240  1
  Se  Se209  1  0.09774562  0.75616027  0.30768366  1
  Se  Se210  1  0.07733950  0.74485124  0.80054911  1
  Se  Se211  1  0.42260086  0.08525475  0.31353015  1
  Se  Se212  1  0.41838699  0.07973113  0.80663277  1
  Se  Se213  1  0.41486805  0.41481843  0.30481176  1
  Se  Se214  1  0.41052282  0.42222093  0.79583337  1
  Se  Se215  1  0.41617906  0.74440335  0.29830511  1
  Se  Se216  1  0.41980957  0.75710739  0.81023920  1
  Se  Se217  1  0.74693720  0.07952307  0.30655776  1
  Se  Se218  1  0.74732682  0.08184107  0.79944334  1
  Se  Se219  1  0.75660965  0.42546050  0.31589553  1
  Se  Se220  1  0.75863630  0.42875132  0.80797103  1
  Se  Se221  1  0.74992652  0.74682862  0.30325454  1
  Se  Se222  1  0.74941890  0.75185795  0.79988569  1
  Se  Se223  1  0.24479498  0.09275539  0.18787049  1
  Se  Se224  1  0.25433212  0.08048391  0.69778203  1
  Se  Se225  1  0.25255172  0.41515780  0.19416872  1
  Se  Se226  1  0.25217967  0.41318333  0.69788015  1
  Se  Se227  1  0.24435718  0.76016706  0.20436916  1
  Se  Se228  1  0.23806759  0.75494117  0.68649565  1
  Se  Se229  1  0.58292499  0.07838605  0.20059547  1
  Se  Se230  1  0.58466957  0.08561721  0.70077632  1
  Se  Se231  1  0.58077872  0.42021405  0.19080497  1
  Se  Se232  1  0.57740225  0.42110185  0.68948809  1
  Se  Se233  1  0.58670088  0.74284517  0.19374429  1
  Se  Se234  1  0.57942436  0.75119275  0.69491843  1
  Se  Se235  1  0.91442119  0.08453000  0.19416495  1
  Se  Se236  1  0.91991191  0.07967844  0.69477822  1
  Se  Se237  1  0.91910688  0.41836484  0.20436425  1
  Se  Se238  1  0.90589157  0.42423754  0.69293384  1
  Se  Se239  1  0.92168356  0.75078602  0.20144483  1
  Se  Se240  1  0.91519449  0.75362207  0.69336887  1
  Se  Se241  1  0.07978477  0.25638223  0.19418463  1
  Se  Se242  1  0.09358597  0.24036834  0.68426098  1
  Se  Se243  1  0.08393277  0.58413164  0.20000845  1
  Se  Se244  1  0.08347201  0.57988302  0.69633560  1
  Se  Se245  1  0.08946420  0.92582906  0.19637704  1
  Se  Se246  1  0.08073724  0.91858539  0.69839821  1
  Se  Se247  1  0.41885651  0.25251239  0.20391626  1
  Se  Se248  1  0.41537493  0.25092938  0.69834572  1
  Se  Se249  1  0.41381171  0.58401349  0.19358980  1
  Se  Se250  1  0.41921665  0.57818669  0.68769418  1
  Se  Se251  1  0.42436633  0.90942772  0.19024201  1
  Se  Se252  1  0.41338681  0.91876662  0.69881413  1
  Se  Se253  1  0.75286227  0.24394320  0.19084994  1
  Se  Se254  1  0.75612334  0.24683418  0.68934479  1
  Se  Se255  1  0.75123364  0.58284506  0.20069334  1
  Se  Se256  1  0.75278881  0.58727053  0.69735447  1
  Se  Se257  1  0.75012555  0.91321259  0.19533982  1
  Se  Se258  1  0.74645833  0.92054081  0.69538813  1
