# generated using pymatgen
data_In86Cu29Se144
_symmetry_space_group_name_H-M   'P 1'
_cell_length_a   17.58781922
_cell_length_b   17.58950305
_cell_length_c   23.44954323
_cell_angle_alpha   89.98977543
_cell_angle_beta   90.00993885
_cell_angle_gamma   89.98279056
_symmetry_Int_Tables_number   1
_chemical_formula_structural   In86Cu29Se144
_chemical_formula_sum   'In86 Cu29 Se144'
_cell_volume   7254.37359076
_cell_formula_units_Z   1
loop_
 _symmetry_equiv_pos_site_id
 _symmetry_equiv_pos_as_xyz
  1  'x, y, z'
loop_
 _atom_site_type_symbol
 _atom_site_label
 _atom_site_symmetry_multiplicity
 _atom_site_fract_x
 _atom_site_fract_y
 _atom_site_fract_z
 _atom_site_occupancy
  In  In0  1  0.00604104  0.16714893  0.12283901  1
  In  In1  1  0.01702174  0.16503271  0.64395466  1
  In  In2  1  0.02155749  0.47840004  0.13970783  1
  In  In3  1  0.01287386  0.49239692  0.63182331  1
  In  In4  1  -0.00472086  0.84471405  0.12580036  1
  In  In5  1  0.00247355  0.83243220  0.63029357  1
  In  In6  1  0.32189293  0.17994961  0.14359430  1
  In  In7  1  0.33503668  0.15729870  0.63647406  1
  In  In8  1  0.31188118  0.48025993  0.11089941  1
  In  In9  1  0.31413770  0.50242212  0.62051745  1
  In  In10  1  0.34653247  0.84134698  0.12097889  1
  In  In11  1  0.32848173  0.84466460  0.62664865  1
  In  In12  1  0.67270223  0.16311745  0.12210683  1
  In  In13  1  0.66003021  0.17594290  0.63286588  1
  In  In14  1  0.65224452  0.49560075  0.12006950  1
  In  In15  1  0.65582249  0.49337765  0.62814606  1
  In  In16  1  0.66839847  0.83485378  0.11515463  1
  In  In17  1  0.67750737  0.84310427  0.63200555  1
  In  In18  1  0.16612494  -0.00547934  0.36539648  1
  In  In19  1  0.17647755  0.01891014  0.85951642  1
  In  In20  1  0.17820651  0.33900694  0.35475796  1
  In  In21  1  0.16789438  0.32996623  0.87317472  1
  In  In22  1  0.16284707  0.67441118  0.38413646  1
  In  In23  1  0.15295845  0.66659615  0.87752405  1
  In  In24  1  0.50261940  0.01449451  0.37886435  1
  In  In25  1  0.48608757  -0.00703684  0.87510160  1
  In  In26  1  0.47860964  0.30910930  0.34699099  1
  In  In27  1  0.50108474  0.33257330  0.87535242  1
  In  In28  1  0.48921000  0.65454401  0.37130384  1
  In  In29  1  0.49789100  0.66904097  0.88321180  1
  In  In30  1  0.84855062  -0.00710331  0.37542418  1
  In  In31  1  0.83452285  0.00342153  0.87650736  1
  In  In32  1  0.83824789  0.33323495  0.36726432  1
  In  In33  1  0.82694705  0.32615929  0.87548845  1
  In  In34  1  0.83782446  0.65092097  0.37555858  1
  In  In35  1  0.85071355  0.66914501  0.87504615  1
  In  In36  1  0.01614716  0.16359018  0.36204068  1
  In  In37  1  0.00287240  0.16454276  0.87240091  1
  In  In38  1  0.01989884  0.51053047  0.35202789  1
  In  In39  1  0.00589118  0.50627899  0.87465105  1
  In  In40  1  0.02734604  0.85331145  0.36150976  1
  In  In41  1  -0.00753928  0.83173926  0.87490442  1
  In  In42  1  0.33706526  0.16758221  0.36275505  1
  In  In43  1  0.31513291  0.15883440  0.86402746  1
  In  In44  1  0.32905274  0.49417489  0.37796805  1
  In  In45  1  0.34077733  0.49099567  0.88349586  1
  In  In46  1  0.30998800  0.82598751  0.37672957  1
  In  In47  1  0.33695528  0.85638762  0.88313935  1
  In  In48  1  0.65470709  0.16534641  0.37627557  1
  In  In49  1  0.67325262  0.17364995  0.87417025  1
  In  In50  1  0.67577784  0.48494478  0.37011750  1
  In  In51  1  0.66377104  0.48687175  0.87566303  1
  In  In52  1  0.67005703  0.83322279  0.37955370  1
  In  In53  1  0.65603166  0.84627324  0.88169788  1
  In  In54  1  0.16380422  0.01072401  0.13252992  1
  In  In55  1  0.17097491  0.00104339  0.63242948  1
  In  In56  1  0.16560177  0.33264055  0.12927632  1
  In  In57  1  0.16209802  0.33630014  0.63467949  1
  In  In58  1  0.16679983  0.64721682  0.12734053  1
  In  In59  1  0.15919430  0.65334023  0.61481814  1
  In  In60  1  0.50021183  0.00194458  0.12797523  1
  In  In61  1  0.48768048  0.01503864  0.63445447  1
  In  In62  1  0.48171827  0.33848348  0.13385235  1
  In  In63  1  0.50404924  0.32562782  0.63168450  1
  In  In64  1  0.50124725  0.66684587  0.11653062  1
  In  In65  1  0.49071153  0.67482406  0.62721915  1
  In  In66  1  0.84312104  0.01054184  0.10960508  1
  In  In67  1  0.83823256  -0.00297319  0.63390527  1
  In  In68  1  0.84674321  0.31817485  0.12405366  1
  In  In69  1  0.84231176  0.32499115  0.63283162  1
  In  In70  1  0.84235854  0.67860758  0.11946019  1
  In  In71  1  0.83933129  0.67985294  0.62652076  1
  In  In72  1  0.83700080  0.50015096  -0.00366374  1
  In  In73  1  0.67640739  0.66160243  0.74809970  1
  In  In74  1  0.48731313  0.84128456  0.51284952  1
  In  In75  1  0.33085779  0.66389429  0.25036326  1
  In  In76  1  0.67555380  0.66515131  0.24646605  1
  In  In77  1  0.16818680  0.16732734  0.50122721  1
  In  In78  1  0.49104554  0.16375432  0.00545332  1
  In  In79  1  0.83907617  0.83226815  0.50366705  1
  In  In80  1  0.16632886  0.83854083  -0.00073583  1
  In  In81  1  0.84743844  0.16792929  0.49527974  1
  In  In82  1  0.83642041  0.49314718  0.50038701  1
  In  In83  1  0.67099080  0.00572419  0.23985006  1
  In  In84  1  0.48598198  0.49078518  0.48638413  1
  In  In85  1  0.32874552  0.66668135  0.74630248  1
  Cu  Cu86  1  0.83386435  0.83792747  0.75406230  1
  Cu  Cu87  1  0.66600408  0.01508609  0.50714274  1
  Cu  Cu88  1  0.64503882  0.66513100  0.49928747  1
  Cu  Cu89  1  0.83574280  0.49847982  0.24549946  1
  Cu  Cu90  1  0.33148406  0.00338712  0.50410455  1
  Cu  Cu91  1  0.01119863  0.33806138  0.50068884  1
  Cu  Cu92  1  0.49648087  0.83827404  0.75455855  1
  Cu  Cu93  1  0.84114994  0.49271896  0.75598049  1
  Cu  Cu94  1  0.16765059  0.82929101  0.24765479  1
  Cu  Cu95  1  0.84661382  0.83614959  0.24645086  1
  Cu  Cu96  1  0.16771233  0.49944845  0.75156361  1
  Cu  Cu97  1  0.01140603  0.32481197  0.00221602  1
  Cu  Cu98  1  0.66102715  0.33562338  -0.00200070  1
  Cu  Cu99  1  0.66734201  0.66985026  -0.00071577  1
  Cu  Cu100  1  0.33372340  0.32617231  0.49460117  1
  Cu  Cu101  1  0.50079194  0.84298145  0.24666954  1
  Cu  Cu102  1  0.83606333  0.15760308  0.24298376  1
  Cu  Cu103  1  0.50041609  0.48997983  0.75362185  1
  Cu  Cu104  1  0.00203510  0.66227384  0.00328630  1
  Cu  Cu105  1  0.49432677  0.49561088  0.24290807  1
  Cu  Cu106  1  0.33486484  0.66688126  0.00178209  1
  Cu  Cu107  1  0.50465361  0.16666138  0.75568987  1
  Cu  Cu108  1  0.16247557  0.83340068  0.75585588  1
  Cu  Cu109  1  0.66664501  0.00000982  -0.00138871  1
  Cu  Cu110  1  0.83278641  0.16722611  0.75402192  1
  Cu  Cu111  1  0.32594383  0.32742382  0.00310017  1
  Cu  Cu112  1  0.00287933  0.00273996  -0.00285717  1
  Cu  Cu113  1  0.00008066  0.66521747  0.49489844  1
  Cu  Cu114  1  0.65730579  0.32687439  0.50234047  1
  Se  Se115  1  0.08671399  0.08158407  0.05364243  1
  Se  Se116  1  0.07727035  0.08104796  0.56173434  1
  Se  Se117  1  0.08824368  0.41614155  0.05348677  1
  Se  Se118  1  0.09299328  0.41875987  0.55657775  1
  Se  Se119  1  0.08275392  0.74556804  0.06272348  1
  Se  Se120  1  0.07443204  0.74761939  0.55630193  1
  Se  Se121  1  0.40026573  0.08518504  0.07093137  1
  Se  Se122  1  0.41339200  0.08828542  0.55621867  1
  Se  Se123  1  0.41644332  0.41220561  0.05096583  1
  Se  Se124  1  0.40928791  0.40703155  0.56014066  1
  Se  Se125  1  0.41878694  0.75300833  0.05079049  1
  Se  Se126  1  0.39461589  0.73978934  0.55774906  1
  Se  Se127  1  0.74962196  0.08788981  0.04639270  1
  Se  Se128  1  0.75531455  0.08766384  0.56359639  1
  Se  Se129  1  0.74901878  0.41026134  0.05839575  1
  Se  Se130  1  0.74148572  0.40516990  0.56071492  1
  Se  Se131  1  0.75396667  0.75163928  0.04983435  1
  Se  Se132  1  0.73443161  0.74182223  0.55616994  1
  Se  Se133  1  0.24791927  0.24609682  0.06105872  1
  Se  Se134  1  0.25685569  0.25517205  0.56360000  1
  Se  Se135  1  0.24553125  0.58274448  0.04752445  1
  Se  Se136  1  0.24357429  0.57816056  0.54478608  1
  Se  Se137  1  0.25216501  0.92721631  0.06133397  1
  Se  Se138  1  0.24596092  0.92221126  0.55554381  1
  Se  Se139  1  0.58240400  0.25762245  0.06245093  1
  Se  Se140  1  0.57661792  0.24413882  0.55610897  1
  Se  Se141  1  0.58360410  0.58330058  0.04830321  1
  Se  Se142  1  0.57157537  0.58103204  0.55799599  1
  Se  Se143  1  0.58153831  0.92363998  0.05572248  1
  Se  Se144  1  0.58915476  0.92786902  0.56536426  1
  Se  Se145  1  0.92067851  0.24206723  0.04760573  1
  Se  Se146  1  0.93581382  0.25420162  0.56074913  1
  Se  Se147  1  0.92748147  0.57703349  0.06428350  1
  Se  Se148  1  0.92198878  0.58807428  0.56056241  1
  Se  Se149  1  0.91931156  0.91445940  0.04615363  1
  Se  Se150  1  0.92670569  0.92751849  0.55811100  1
  Se  Se151  1  0.08501826  0.25720550  0.43622090  1
  Se  Se152  1  0.08971163  0.24291291  0.94293454  1
  Se  Se153  1  0.07776841  0.57655767  0.44083729  1
  Se  Se154  1  0.08603659  0.57927562  0.95122528  1
  Se  Se155  1  0.09149745  0.92224640  0.44381062  1
  Se  Se156  1  0.08210390  0.92513620  0.93431731  1
  Se  Se157  1  0.41586749  0.24825724  0.43651974  1
  Se  Se158  1  0.40597077  0.25046030  0.93991614  1
  Se  Se159  1  0.39491852  0.59788620  0.44605770  1
  Se  Se160  1  0.41841149  0.58204188  0.94928995  1
  Se  Se161  1  0.40849532  0.92213960  0.43925640  1
  Se  Se162  1  0.42128098  0.92071487  0.95766640  1
  Se  Se163  1  0.74806001  0.25659927  0.44275784  1
  Se  Se164  1  0.74825484  0.25121094  0.95101852  1
  Se  Se165  1  0.73500350  0.58572825  0.44499920  1
  Se  Se166  1  0.74495662  0.59109319  0.93547886  1
  Se  Se167  1  0.74388542  0.93038640  0.44805441  1
  Se  Se168  1  0.75277963  0.91748433  0.94632537  1
  Se  Se169  1  0.25603831  0.08030872  0.43746180  1
  Se  Se170  1  0.25363758  0.07595835  0.94214670  1
  Se  Se171  1  0.24651066  0.40444647  0.44097450  1
  Se  Se172  1  0.24736030  0.41331461  0.94648591  1
  Se  Se173  1  0.23733723  0.75856320  0.45524924  1
  Se  Se174  1  0.25688031  0.74584519  0.93804157  1
  Se  Se175  1  0.57871888  0.09208450  0.45386678  1
  Se  Se176  1  0.58419535  0.08260862  0.93998430  1
  Se  Se177  1  0.58477722  0.40365574  0.43534380  1
  Se  Se178  1  0.57635206  0.41890716  0.94837484  1
  Se  Se179  1  0.57237162  0.75052960  0.44072967  1
  Se  Se180  1  0.58135574  0.75413530  0.94835896  1
  Se  Se181  1  0.93912845  0.07653119  0.43977299  1
  Se  Se182  1  0.91781166  0.08666053  0.94478701  1
  Se  Se183  1  0.92814251  0.41171359  0.43784269  1
  Se  Se184  1  0.92815589  0.40548790  0.94189443  1
  Se  Se185  1  0.92156281  0.74652338  0.43536228  1
  Se  Se186  1  0.92056108  0.74881168  0.95178556  1
  Se  Se187  1  0.23597351  0.22853134  0.29539913  1
  Se  Se188  1  0.25029775  0.25690683  0.79887206  1
  Se  Se189  1  0.24034845  0.57953719  0.31183970  1
  Se  Se190  1  0.24733911  0.57943039  0.81363423  1
  Se  Se191  1  0.25473249  0.91196355  0.29853137  1
  Se  Se192  1  0.25278165  0.91441792  0.80372374  1
  Se  Se193  1  0.60486150  0.26283439  0.30494883  1
  Se  Se194  1  0.58663962  0.25356641  0.80644909  1
  Se  Se195  1  0.57887410  0.57419808  0.30339394  1
  Se  Se196  1  0.57682136  0.58059781  0.80786421  1
  Se  Se197  1  0.58679567  0.91447626  0.30818794  1
  Se  Se198  1  0.58070216  0.92209303  0.80557358  1
  Se  Se199  1  0.91329518  0.23716779  0.30470456  1
  Se  Se200  1  0.91552620  0.25150483  0.80714495  1
  Se  Se201  1  0.91541026  0.58605469  0.29679223  1
  Se  Se202  1  0.92128519  0.58394969  0.80247562  1
  Se  Se203  1  0.92633675  0.92354687  0.29803863  1
  Se  Se204  1  0.91750636  0.92080378  0.80623184  1
  Se  Se205  1  0.09619157  0.08161986  0.29215550  1
  Se  Se206  1  0.07733288  0.08462091  0.79690706  1
  Se  Se207  1  0.06355262  0.39186880  0.29795194  1
  Se  Se208  1  0.08406442  0.41937884  0.80710193  1
  Se  Se209  1  0.08771340  0.74403940  0.30258328  1
  Se  Se210  1  0.07811316  0.74910066  0.80605006  1
  Se  Se211  1  0.42682226  0.08198478  0.30182415  1
  Se  Se212  1  0.41643356  0.08338676  0.80479251  1
  Se  Se213  1  0.40740203  0.42262993  0.30068671  1
  Se  Se214  1  0.41346181  0.41253259  0.80689553  1
  Se  Se215  1  0.42356763  0.75977728  0.30804030  1
  Se  Se216  1  0.41610288  0.75466190  0.81072873  1
  Se  Se217  1  0.75871235  0.08440130  0.31250261  1
  Se  Se218  1  0.74891638  0.08378211  0.80677694  1
  Se  Se219  1  0.75359895  0.41179656  0.29608087  1
  Se  Se220  1  0.75079396  0.41538934  0.80538668  1
  Se  Se221  1  0.76288302  0.75916740  0.30827290  1
  Se  Se222  1  0.75267157  0.75519794  0.81339044  1
  Se  Se223  1  0.22634695  0.10256275  0.20867289  1
  Se  Se224  1  0.23640243  0.09414509  0.70234075  1
  Se  Se225  1  0.24786427  0.42047025  0.19616136  1
  Se  Se226  1  0.25414019  0.41967689  0.69872663  1
  Se  Se227  1  0.24892484  0.75491772  0.18374542  1
  Se  Se228  1  0.23650321  0.75463134  0.68861397  1
  Se  Se229  1  0.57375794  0.10034025  0.19459380  1
  Se  Se230  1  0.58625818  0.08271303  0.69964696  1
  Se  Se231  1  0.58373480  0.41360488  0.19491108  1
  Se  Se232  1  0.58735649  0.40942805  0.70139266  1
  Se  Se233  1  0.57994029  0.75762482  0.19135796  1
  Se  Se234  1  0.57796900  0.75732126  0.69577517  1
  Se  Se235  1  0.92004689  0.07755631  0.18878111  1
  Se  Se236  1  0.91723933  0.08511256  0.70007948  1
  Se  Se237  1  0.91432046  0.40951927  0.19496868  1
  Se  Se238  1  0.92325132  0.41357984  0.69724538  1
  Se  Se239  1  0.92509936  0.74812516  0.19450633  1
  Se  Se240  1  0.91675846  0.75282526  0.70152110  1
  Se  Se241  1  0.06393542  0.26562944  0.19314310  1
  Se  Se242  1  0.08587101  0.25882296  0.70870291  1
  Se  Se243  1  0.08081373  0.58481559  0.20189285  1
  Se  Se244  1  0.08683987  0.58663734  0.69788491  1
  Se  Se245  1  0.08624819  0.91532440  0.19491934  1
  Se  Se246  1  0.08303610  0.91733928  0.69825570  1
  Se  Se247  1  0.41760027  0.25150427  0.20779816  1
  Se  Se248  1  0.41921702  0.24633964  0.69998413  1
  Se  Se249  1  0.41688817  0.57924968  0.18370169  1
  Se  Se250  1  0.42324532  0.57154714  0.69157827  1
  Se  Se251  1  0.41327395  0.92452052  0.19807302  1
  Se  Se252  1  0.41311936  0.91831959  0.69812477  1
  Se  Se253  1  0.75437305  0.24390368  0.19193789  1
  Se  Se254  1  0.75039472  0.25259584  0.69958357  1
  Se  Se255  1  0.75792566  0.57586770  0.18105017  1
  Se  Se256  1  0.76480112  0.56941964  0.68684097  1
  Se  Se257  1  0.76206974  0.91109518  0.18470847  1
  Se  Se258  1  0.74923795  0.92433635  0.70533928  1
