# generated using pymatgen
data_In86Cu29Se144
_symmetry_space_group_name_H-M   'P 1'
_cell_length_a   17.58177197
_cell_length_b   17.57814181
_cell_length_c   23.43542965
_cell_angle_alpha   89.99445654
_cell_angle_beta   90.01289672
_cell_angle_gamma   90.00010402
_symmetry_Int_Tables_number   1
_chemical_formula_structural   In86Cu29Se144
_chemical_formula_sum   'In86 Cu29 Se144'
_cell_volume   7242.83370141
_cell_formula_units_Z   1
loop_
 _symmetry_equiv_pos_site_id
 _symmetry_equiv_pos_as_xyz
  1  'x, y, z'
loop_
 _atom_site_type_symbol
 _atom_site_label
 _atom_site_symmetry_multiplicity
 _atom_site_fract_x
 _atom_site_fract_y
 _atom_site_fract_z
 _atom_site_occupancy
  In  In0  1  0.00641756  0.18918445  0.10615830  1
  In  In1  1  -0.01440893  0.16498416  0.63474268  1
  In  In2  1  0.00381563  0.49484544  0.11573068  1
  In  In3  1  0.00370167  0.50996759  0.62656410  1
  In  In4  1  0.00552933  0.81708459  0.12827673  1
  In  In5  1  0.00098283  0.83413073  0.63328695  1
  In  In6  1  0.33128482  0.16966640  0.11655426  1
  In  In7  1  0.34405682  0.17249129  0.62959171  1
  In  In8  1  0.33141352  0.49470303  0.11990067  1
  In  In9  1  0.33596213  0.49877089  0.63493970  1
  In  In10  1  0.32892856  0.83649589  0.12403071  1
  In  In11  1  0.32583989  0.82864403  0.62759532  1
  In  In12  1  0.66748263  0.17262911  0.12705285  1
  In  In13  1  0.67691496  0.17383148  0.63091234  1
  In  In14  1  0.64959193  0.48199073  0.11961702  1
  In  In15  1  0.66271540  0.49793581  0.62465766  1
  In  In16  1  0.67464521  0.83726780  0.13024864  1
  In  In17  1  0.67054347  0.81683001  0.62131500  1
  In  In18  1  0.17055635  -0.01040915  0.36322229  1
  In  In19  1  0.15514078  0.00177103  0.88486438  1
  In  In20  1  0.16826121  0.34252665  0.35743249  1
  In  In21  1  0.17907831  0.32459248  0.90226513  1
  In  In22  1  0.16676344  0.66048402  0.36508903  1
  In  In23  1  0.16725138  0.67014757  0.88119277  1
  In  In24  1  0.50744056  0.00428268  0.35907047  1
  In  In25  1  0.50365137  0.00530770  0.87809658  1
  In  In26  1  0.50465649  0.34186813  0.36828332  1
  In  In27  1  0.49567327  0.33675065  0.88334668  1
  In  In28  1  0.48078410  0.65532720  0.37553348  1
  In  In29  1  0.46154805  0.65171652  0.87275524  1
  In  In30  1  0.82694707  0.00386642  0.37283768  1
  In  In31  1  0.84467930  -0.00280333  0.87579078  1
  In  In32  1  0.84491027  0.34356263  0.35308366  1
  In  In33  1  0.82572491  0.34079048  0.88634682  1
  In  In34  1  0.84535084  0.65504009  0.38521363  1
  In  In35  1  0.83741743  0.64897527  0.87127878  1
  In  In36  1  -0.01706685  0.17497964  0.36467263  1
  In  In37  1  0.00925040  0.16193531  0.88999580  1
  In  In38  1  -0.00220195  0.49987596  0.36437482  1
  In  In39  1  -0.00971414  0.49232130  0.88619167  1
  In  In40  1  0.00263487  0.81927332  0.37488423  1
  In  In41  1  0.00800824  0.83734898  0.86999771  1
  In  In42  1  0.34254061  0.17501356  0.35712695  1
  In  In43  1  0.32576319  0.18147428  0.89457941  1
  In  In44  1  0.33834252  0.50330607  0.36638612  1
  In  In45  1  0.33330244  0.49996057  0.89091184  1
  In  In46  1  0.32643658  0.82482204  0.36227746  1
  In  In47  1  0.33024530  0.80265967  0.87654417  1
  In  In48  1  0.68331346  0.17316974  0.35469720  1
  In  In49  1  0.64539729  0.18635830  0.88885860  1
  In  In50  1  0.66748504  0.49523398  0.37545352  1
  In  In51  1  0.67688903  0.48938543  0.88105978  1
  In  In52  1  0.67077633  0.84190205  0.37462876  1
  In  In53  1  0.65886387  0.84028971  0.87336087  1
  In  In54  1  0.17585138  0.01397735  0.11397962  1
  In  In55  1  0.16470410  -0.01550625  0.63136629  1
  In  In56  1  0.17174657  0.33339328  0.11479622  1
  In  In57  1  0.16774415  0.34990257  0.63507832  1
  In  In58  1  0.17003648  0.65955044  0.11614608  1
  In  In59  1  0.16589703  0.66429521  0.63773700  1
  In  In60  1  0.48860324  0.01027474  0.12963122  1
  In  In61  1  0.49877495  0.01120126  0.62525946  1
  In  In62  1  0.49369905  0.33391983  0.12082365  1
  In  In63  1  0.49240637  0.34873946  0.64168741  1
  In  In64  1  0.48785487  0.64850700  0.11595992  1
  In  In65  1  0.50171786  0.65363534  0.62868195  1
  In  In66  1  0.81815187  0.01109330  0.13582699  1
  In  In67  1  0.84663131  0.00098923  0.63313538  1
  In  In68  1  0.83226525  0.33395481  0.12256512  1
  In  In69  1  0.82082866  0.32989614  0.62794965  1
  In  In70  1  0.84822342  0.66395133  0.12909147  1
  In  In71  1  0.84635392  0.67319252  0.60878592  1
  In  In72  1  0.66501148  0.65999780  0.74610099  1
  In  In73  1  0.50091441  0.82540451  0.49977745  1
  In  In74  1  0.51263586  0.17360181  0.48826485  1
  In  In75  1  0.83866495  0.83661120  0.00430734  1
  In  In76  1  0.16575199  0.82209239  0.49941026  1
  In  In77  1  0.16762270  0.50664532  0.49853462  1
  In  In78  1  0.66559506  0.66922540  0.24946659  1
  In  In79  1  0.50007377  0.83058773  -0.00176640  1
  In  In80  1  0.16524198  0.16585161  0.49566369  1
  In  In81  1  0.00733199  0.00943402  0.24136055  1
  In  In82  1  0.66862847  0.00621251  0.75389768  1
  In  In83  1  0.82634530  0.17284166  0.49018328  1
  In  In84  1  0.32704200  0.00222179  0.75303046  1
  In  In85  1  0.00664041  0.33363244  0.76440425  1
  Cu  Cu86  1  0.17918999  0.50081370  0.76333145  1
  Cu  Cu87  1  0.66908980  0.66093217  0.49797117  1
  Cu  Cu88  1  0.66703856  0.00785328  0.00719440  1
  Cu  Cu89  1  0.49735625  0.16325541  0.23952034  1
  Cu  Cu90  1  0.33208408  -0.00223042  0.00031312  1
  Cu  Cu91  1  0.33977591  -0.00159602  0.48699098  1
  Cu  Cu92  1  0.67223281  -0.00422423  0.49678819  1
  Cu  Cu93  1  0.48996746  0.49419395  0.24255727  1
  Cu  Cu94  1  0.66673310  0.33206686  0.00573833  1
  Cu  Cu95  1  0.83665664  0.82396475  0.75005327  1
  Cu  Cu96  1  -0.00727345  -0.00166057  0.00542262  1
  Cu  Cu97  1  0.82985611  0.16759286  0.75808544  1
  Cu  Cu98  1  0.67131954  0.66503177  -0.00618889  1
  Cu  Cu99  1  0.83939650  0.49824647  0.75056878  1
  Cu  Cu100  1  0.49888965  0.82853088  0.24946374  1
  Cu  Cu101  1  -0.00054812  0.66666907  0.00043987  1
  Cu  Cu102  1  0.65858894  0.34051628  0.50132546  1
  Cu  Cu103  1  0.00114360  -0.00432708  0.50856978  1
  Cu  Cu104  1  0.16440240  0.83018953  0.75356380  1
  Cu  Cu105  1  0.83943624  0.83450267  0.25081859  1
  Cu  Cu106  1  0.17528082  0.82825984  0.24411407  1
  Cu  Cu107  1  0.33353317  0.33838157  0.50752652  1
  Cu  Cu108  1  0.49201512  0.18274639  0.76086290  1
  Cu  Cu109  1  0.16844197  0.17090970  0.76679180  1
  Cu  Cu110  1  0.17004721  0.17394007  0.23592782  1
  Cu  Cu111  1  0.16287845  0.49699989  0.23675006  1
  Cu  Cu112  1  -0.00595523  0.33702711  0.48921090  1
  Cu  Cu113  1  0.49783633  0.49888038  0.75810720  1
  Cu  Cu114  1  0.83216108  0.50031675  0.24452460  1
  Se  Se115  1  0.08066093  0.08572647  0.04917907  1
  Se  Se116  1  0.07847841  0.08049046  0.56524947  1
  Se  Se117  1  0.10313390  0.43118324  0.04628065  1
  Se  Se118  1  0.07753328  0.40697663  0.55477725  1
  Se  Se119  1  0.08490448  0.75022306  0.05070536  1
  Se  Se120  1  0.07657379  0.73830329  0.56288634  1
  Se  Se121  1  0.41716359  0.08180979  0.05044884  1
  Se  Se122  1  0.41237077  0.08431538  0.54881117  1
  Se  Se123  1  0.43640863  0.43759561  0.05346369  1
  Se  Se124  1  0.41708012  0.41854377  0.56166533  1
  Se  Se125  1  0.40532526  0.74202444  0.05301159  1
  Se  Se126  1  0.40921361  0.74037177  0.56017102  1
  Se  Se127  1  0.75371303  0.08966103  0.05653946  1
  Se  Se128  1  0.74809625  0.07875008  0.55977884  1
  Se  Se129  1  0.75090208  0.42092981  0.05365448  1
  Se  Se130  1  0.74862853  0.41477548  0.55652131  1
  Se  Se131  1  0.74660451  0.74188760  0.05955968  1
  Se  Se132  1  0.75122164  0.75081461  0.54526784  1
  Se  Se133  1  0.24698570  0.24486715  0.04573319  1
  Se  Se134  1  0.25079489  0.25663694  0.56324723  1
  Se  Se135  1  0.24076185  0.56471248  0.04709555  1
  Se  Se136  1  0.25523596  0.58985835  0.56444133  1
  Se  Se137  1  0.24754953  0.91418972  0.05132907  1
  Se  Se138  1  0.25937142  0.92515642  0.55219703  1
  Se  Se139  1  0.58102911  0.24803747  0.05593868  1
  Se  Se140  1  0.58520838  0.25701093  0.56443319  1
  Se  Se141  1  0.59083333  0.58645887  0.05330333  1
  Se  Se142  1  0.58428120  0.58299817  0.55419941  1
  Se  Se143  1  0.58862602  0.92007412  0.06168323  1
  Se  Se144  1  0.58848869  0.92458059  0.55915472  1
  Se  Se145  1  0.92007788  0.27368678  0.04220607  1
  Se  Se146  1  0.92195031  0.25536074  0.55577712  1
  Se  Se147  1  0.91457020  0.58345750  0.05180791  1
  Se  Se148  1  0.91106004  0.56479169  0.55331862  1
  Se  Se149  1  0.91994776  0.92300350  0.07301031  1
  Se  Se150  1  0.91726439  0.91454818  0.56159670  1
  Se  Se151  1  0.07697098  0.25615850  0.43285222  1
  Se  Se152  1  0.07144281  0.25779107  0.95773823  1
  Se  Se153  1  0.07349383  0.59118144  0.43863196  1
  Se  Se154  1  0.07748555  0.58439399  0.94362054  1
  Se  Se155  1  0.08110561  0.92429798  0.44201291  1
  Se  Se156  1  0.07350670  0.91323015  0.95108356  1
  Se  Se157  1  0.40623878  0.25867893  0.44081002  1
  Se  Se158  1  0.43212666  0.24129451  0.95393847  1
  Se  Se159  1  0.40801915  0.57339342  0.44730230  1
  Se  Se160  1  0.42844488  0.57188652  0.95969875  1
  Se  Se161  1  0.42018404  0.91661878  0.43121519  1
  Se  Se162  1  0.40704056  0.91793126  0.93608643  1
  Se  Se163  1  0.73783503  0.26662099  0.43498940  1
  Se  Se164  1  0.74973274  0.24695558  0.95192321  1
  Se  Se165  1  0.74989682  0.57602930  0.44503323  1
  Se  Se166  1  0.75805399  0.57891821  0.94712293  1
  Se  Se167  1  0.75875290  0.91469485  0.44569136  1
  Se  Se168  1  0.74110627  0.92340716  0.94581810  1
  Se  Se169  1  0.25632671  0.08014373  0.43111243  1
  Se  Se170  1  0.24479973  0.08155681  0.95022060  1
  Se  Se171  1  0.25054346  0.40773113  0.44040070  1
  Se  Se172  1  0.23633143  0.43689172  0.96438288  1
  Se  Se173  1  0.25829290  0.73693206  0.43919889  1
  Se  Se174  1  0.23992665  0.75719693  0.95364338  1
  Se  Se175  1  0.60131162  0.07812972  0.43239153  1
  Se  Se176  1  0.57887828  0.08344722  0.95193226  1
  Se  Se177  1  0.57580252  0.42107236  0.44529960  1
  Se  Se178  1  0.58729809  0.41636450  0.94945392  1
  Se  Se179  1  0.58857883  0.73807948  0.43412889  1
  Se  Se180  1  0.58720131  0.74021864  0.93571408  1
  Se  Se181  1  0.92788644  0.07732802  0.44297135  1
  Se  Se182  1  0.91162772  0.08106830  0.95046448  1
  Se  Se183  1  0.91204052  0.41798718  0.43435201  1
  Se  Se184  1  0.92559999  0.39750623  0.95670465  1
  Se  Se185  1  0.91476338  0.75578109  0.44722676  1
  Se  Se186  1  0.91795567  0.74608902  0.93789717  1
  Se  Se187  1  0.25278005  0.25570023  0.29395179  1
  Se  Se188  1  0.24900299  0.25684227  0.81786354  1
  Se  Se189  1  0.24535281  0.57474993  0.29793613  1
  Se  Se190  1  0.25855736  0.58665881  0.81727324  1
  Se  Se191  1  0.25730630  0.91802454  0.29279235  1
  Se  Se192  1  0.24283762  0.91184579  0.81607576  1
  Se  Se193  1  0.57374014  0.24291865  0.30294787  1
  Se  Se194  1  0.58264926  0.26290651  0.80754648  1
  Se  Se195  1  0.57172138  0.57541206  0.30369027  1
  Se  Se196  1  0.58040935  0.58005948  0.81694701  1
  Se  Se197  1  0.58781988  0.90968905  0.29869008  1
  Se  Se198  1  0.56918413  0.91319617  0.80164191  1
  Se  Se199  1  0.91105038  0.24671713  0.28767736  1
  Se  Se200  1  0.91201232  0.24454188  0.81973063  1
  Se  Se201  1  0.91066290  0.58605682  0.30005327  1
  Se  Se202  1  0.92746001  0.57415273  0.80443146  1
  Se  Se203  1  0.92329165  0.91763957  0.30756154  1
  Se  Se204  1  0.91457965  0.91248340  0.80306585  1
  Se  Se205  1  0.09529706  0.09939147  0.30670750  1
  Se  Se206  1  0.08025885  0.08490793  0.81064902  1
  Se  Se207  1  0.07628042  0.41758385  0.29267341  1
  Se  Se208  1  0.09891569  0.41851434  0.82360184  1
  Se  Se209  1  0.08803311  0.75180375  0.30026769  1
  Se  Se210  1  0.08242353  0.74380549  0.80518628  1
  Se  Se211  1  0.41393513  0.07753264  0.29378844  1
  Se  Se212  1  0.41439420  0.09338210  0.81421595  1
  Se  Se213  1  0.40967011  0.40926923  0.29913122  1
  Se  Se214  1  0.41285056  0.42094573  0.81535739  1
  Se  Se215  1  0.41628745  0.74225240  0.30004467  1
  Se  Se216  1  0.42949239  0.75874948  0.80339346  1
  Se  Se217  1  0.76369992  0.08241476  0.29418087  1
  Se  Se218  1  0.74846401  0.09236332  0.82227921  1
  Se  Se219  1  0.74313949  0.42209980  0.29773495  1
  Se  Se220  1  0.75717043  0.41569417  0.80528432  1
  Se  Se221  1  0.75984064  0.75195092  0.31118638  1
  Se  Se222  1  0.75353889  0.75234087  0.81158779  1
  Se  Se223  1  0.25383118  0.08484642  0.19100373  1
  Se  Se224  1  0.23776646  0.09509349  0.69165884  1
  Se  Se225  1  0.25073643  0.41184599  0.19025837  1
  Se  Se226  1  0.25661713  0.41564915  0.70661616  1
  Se  Se227  1  0.25192756  0.74193445  0.18787136  1
  Se  Se228  1  0.25227718  0.74928012  0.70224747  1
  Se  Se229  1  0.58752047  0.07970063  0.19315674  1
  Se  Se230  1  0.57204302  0.10185332  0.69858447  1
  Se  Se231  1  0.57803867  0.40783232  0.19782790  1
  Se  Se232  1  0.58950697  0.42319019  0.70417046  1
  Se  Se233  1  0.57231418  0.75028869  0.18293292  1
  Se  Se234  1  0.57365702  0.75866974  0.69330762  1
  Se  Se235  1  0.92365459  0.09900276  0.18006388  1
  Se  Se236  1  0.91572911  0.08260639  0.70981158  1
  Se  Se237  1  0.91738879  0.42104928  0.18925061  1
  Se  Se238  1  0.91883084  0.41190846  0.69238332  1
  Se  Se239  1  0.92169067  0.74639310  0.20252310  1
  Se  Se240  1  0.91543506  0.74130792  0.69312226  1
  Se  Se241  1  0.08401390  0.25612053  0.18612587  1
  Se  Se242  1  0.09095124  0.24274249  0.69521038  1
  Se  Se243  1  0.08034183  0.58467099  0.18601499  1
  Se  Se244  1  0.09060251  0.57122523  0.70326355  1
  Se  Se245  1  0.09554552  0.91315050  0.18551718  1
  Se  Se246  1  0.07964129  0.91734108  0.70507154  1
  Se  Se247  1  0.41293019  0.24817642  0.18955367  1
  Se  Se248  1  0.40644573  0.25978438  0.70404669  1
  Se  Se249  1  0.40784725  0.58206532  0.19360987  1
  Se  Se250  1  0.41756402  0.58491686  0.70364848  1
  Se  Se251  1  0.41815577  0.91167559  0.19308571  1
  Se  Se252  1  0.42026146  0.91754309  0.68921673  1
  Se  Se253  1  0.74628510  0.26048403  0.19372591  1
  Se  Se254  1  0.74889022  0.25288932  0.70635255  1
  Se  Se255  1  0.74724211  0.57822644  0.18506538  1
  Se  Se256  1  0.76344391  0.57927875  0.68760944  1
  Se  Se257  1  0.74967228  0.91675781  0.20419238  1
  Se  Se258  1  0.75302041  0.90674483  0.69288263  1
