# generated using pymatgen
data_In86Cu29Se144
_symmetry_space_group_name_H-M   'P 1'
_cell_length_a   17.58446379
_cell_length_b   17.58848409
_cell_length_c   23.44581189
_cell_angle_alpha   90.00146988
_cell_angle_beta   89.98866296
_cell_angle_gamma   90.01128161
_symmetry_Int_Tables_number   1
_chemical_formula_structural   In86Cu29Se144
_chemical_formula_sum   'In86 Cu29 Se144'
_cell_volume   7251.41564395
_cell_formula_units_Z   1
loop_
 _symmetry_equiv_pos_site_id
 _symmetry_equiv_pos_as_xyz
  1  'x, y, z'
loop_
 _atom_site_type_symbol
 _atom_site_label
 _atom_site_symmetry_multiplicity
 _atom_site_fract_x
 _atom_site_fract_y
 _atom_site_fract_z
 _atom_site_occupancy
  In  In0  1  -0.01522939  0.16460252  0.12836415  1
  In  In1  1  0.00923048  0.15810794  0.62832124  1
  In  In2  1  0.00546853  0.51050417  0.11453657  1
  In  In3  1  0.00935446  0.49310214  0.64435728  1
  In  In4  1  0.00211517  0.83570493  0.11474106  1
  In  In5  1  -0.00929589  0.83985324  0.63910443  1
  In  In6  1  0.34674405  0.17255066  0.12743239  1
  In  In7  1  0.33008062  0.16342080  0.61933568  1
  In  In8  1  0.33621309  0.49780158  0.12550516  1
  In  In9  1  0.32880900  0.49361852  0.62041025  1
  In  In10  1  0.33037794  0.83589967  0.10675861  1
  In  In11  1  0.35058643  0.84336180  0.63685717  1
  In  In12  1  0.65605193  0.16850045  0.13494802  1
  In  In13  1  0.66752153  0.18085537  0.61949354  1
  In  In14  1  0.66575742  0.49932484  0.12276842  1
  In  In15  1  0.66477091  0.50288307  0.62838972  1
  In  In16  1  0.66775731  0.83306517  0.11997109  1
  In  In17  1  0.67049635  0.81371300  0.63355264  1
  In  In18  1  0.17115105  0.01346227  0.37334180  1
  In  In19  1  0.15976765  -0.00699900  0.87006668  1
  In  In20  1  0.17445454  0.32759396  0.38197636  1
  In  In21  1  0.16197309  0.35128153  0.87047825  1
  In  In22  1  0.15503908  0.65819760  0.37749277  1
  In  In23  1  0.16116960  0.67230118  0.87609696  1
  In  In24  1  0.51571034  -0.00231992  0.37571528  1
  In  In25  1  0.48688005  -0.00657897  0.87477765  1
  In  In26  1  0.50019524  0.33491938  0.37692635  1
  In  In27  1  0.51395889  0.34403078  0.87373099  1
  In  In28  1  0.50541202  0.64270497  0.37340379  1
  In  In29  1  0.50848770  0.65906911  0.88220849  1
  In  In30  1  0.82557586  -0.01152480  0.37110964  1
  In  In31  1  0.83745202  -0.02192186  0.87139189  1
  In  In32  1  0.82068277  0.34513957  0.37480593  1
  In  In33  1  0.83587246  0.34109406  0.87031249  1
  In  In34  1  0.82732819  0.67641963  0.37993039  1
  In  In35  1  0.82597990  0.67265009  0.87049168  1
  In  In36  1  0.01341837  0.16605530  0.37813319  1
  In  In37  1  -0.00039576  0.16655236  0.86302094  1
  In  In38  1  0.00086439  0.50839959  0.38107526  1
  In  In39  1  -0.00161819  0.50291591  0.86943341  1
  In  In40  1  -0.01774062  0.82426815  0.37510952  1
  In  In41  1  -0.00662642  0.83429227  0.86840285  1
  In  In42  1  0.32474621  0.18099466  0.38161483  1
  In  In43  1  0.33901383  0.15682945  0.87325727  1
  In  In44  1  0.35328292  0.48052345  0.38845301  1
  In  In45  1  0.32791217  0.50663488  0.88267918  1
  In  In46  1  0.33592659  0.84095214  0.37216237  1
  In  In47  1  0.32972737  0.83951994  0.88737070  1
  In  In48  1  0.66134435  0.16291679  0.37690340  1
  In  In49  1  0.66411813  0.18062253  0.87328467  1
  In  In50  1  0.63116453  0.47366048  0.33835036  1
  In  In51  1  0.66326315  0.50295606  0.87672117  1
  In  In52  1  0.67228192  0.83910943  0.36826449  1
  In  In53  1  0.68095185  0.81950779  0.88192332  1
  In  In54  1  0.16619885  -0.01660383  0.12189483  1
  In  In55  1  0.16483641  0.00879080  0.63033454  1
  In  In56  1  0.16997435  0.34862017  0.12390844  1
  In  In57  1  0.16543869  0.33153240  0.62363696  1
  In  In58  1  0.16655021  0.66653256  0.11323826  1
  In  In59  1  0.16187394  0.65279691  0.63098221  1
  In  In60  1  0.50827084  0.00163419  0.12295486  1
  In  In61  1  0.49135973  -0.00270336  0.62815631  1
  In  In62  1  0.50128541  0.33819101  0.13148570  1
  In  In63  1  0.51326066  0.34071141  0.61448696  1
  In  In64  1  0.50304953  0.66617892  0.12135566  1
  In  In65  1  0.51208331  0.66410617  0.62817993  1
  In  In66  1  0.83959716  -0.00459866  0.12795403  1
  In  In67  1  0.84919540  -0.00399956  0.62642940  1
  In  In68  1  0.81418128  0.33680167  0.12279320  1
  In  In69  1  0.82658575  0.34188299  0.63326801  1
  In  In70  1  0.82182387  0.65596548  0.11174690  1
  In  In71  1  0.82980331  0.67236553  0.63526845  1
  In  In72  1  -0.00582924  0.66623563  0.24570100  1
  In  In73  1  0.50716010  0.82982213  0.50985662  1
  In  In74  1  0.67147739  -0.00094895  0.75492187  1
  In  In75  1  0.33727262  0.66021603  0.24505514  1
  In  In76  1  0.33163011  0.33152807  0.74219530  1
  In  In77  1  0.82662270  0.50866012  0.50317550  1
  In  In78  1  0.33733314  0.00626626  0.24250588  1
  In  In79  1  0.49699441  0.16451107  0.00424273  1
  In  In80  1  0.82882518  0.16997224  -0.00381478  1
  In  In81  1  0.16824590  0.83352036  0.50199215  1
  In  In82  1  0.83657325  0.16838857  0.49440487  1
  In  In83  1  -0.00867560  0.32933216  0.25302238  1
  In  In84  1  0.33093467  0.67251465  0.76007489  1
  In  In85  1  0.16284599  0.16336814  -0.00701050  1
  Cu  Cu86  1  0.50007753  0.50306366  0.75025279  1
  Cu  Cu87  1  0.00315422  0.33326506  0.50775758  1
  Cu  Cu88  1  0.50516621  0.82680739  0.24627874  1
  Cu  Cu89  1  0.66833617  0.66601073  -0.00016389  1
  Cu  Cu90  1  -0.00306125  0.34716480  -0.00376953  1
  Cu  Cu91  1  0.16348618  0.16816209  0.25441674  1
  Cu  Cu92  1  0.32830223  0.65908884  0.50157440  1
  Cu  Cu93  1  0.49819069  0.16922979  0.25493429  1
  Cu  Cu94  1  0.67564851  -0.00438541  0.49667465  1
  Cu  Cu95  1  0.82554950  0.50513625  0.75448622  1
  Cu  Cu96  1  0.66685998  0.66207085  0.50013799  1
  Cu  Cu97  1  0.82811968  0.50072707  0.24116969  1
  Cu  Cu98  1  0.33378485  0.33734062  0.00007870  1
  Cu  Cu99  1  0.33891766  0.65946794  -0.00041466  1
  Cu  Cu100  1  0.50309391  0.16809713  0.75193058  1
  Cu  Cu101  1  0.83314834  0.16994500  0.74469420  1
  Cu  Cu102  1  0.16022060  0.83638497  0.23856912  1
  Cu  Cu103  1  -0.00121224  -0.00740563  -0.00347821  1
  Cu  Cu104  1  0.17246167  0.16533008  0.74531957  1
  Cu  Cu105  1  0.66664722  -0.00157086  -0.00008678  1
  Cu  Cu106  1  0.16777399  0.83556822  0.75660997  1
  Cu  Cu107  1  -0.00207202  0.66962486  -0.01064425  1
  Cu  Cu108  1  0.33497959  0.00828144  0.50189012  1
  Cu  Cu109  1  0.17589916  0.49405524  0.25348073  1
  Cu  Cu110  1  0.82664428  0.15681213  0.25355497  1
  Cu  Cu111  1  0.00144810  0.66161522  0.50662316  1
  Cu  Cu112  1  0.33519997  0.33415809  0.50168874  1
  Cu  Cu113  1  0.82933911  0.83658318  0.24552726  1
  Cu  Cu114  1  0.00711195  -0.00561737  0.50578541  1
  Se  Se115  1  0.07096097  0.07929405  0.05787235  1
  Se  Se116  1  0.08903266  0.08344998  0.55260837  1
  Se  Se117  1  0.08767373  0.42087382  0.05052315  1
  Se  Se118  1  0.07929415  0.42147074  0.56176430  1
  Se  Se119  1  0.08195919  0.74930517  0.04765139  1
  Se  Se120  1  0.07971364  0.74752658  0.56397736  1
  Se  Se121  1  0.40267384  0.07033861  0.05719692  1
  Se  Se122  1  0.42376868  0.08478226  0.55486790  1
  Se  Se123  1  0.41885364  0.41283225  0.05754972  1
  Se  Se124  1  0.41845616  0.41997137  0.55266080  1
  Se  Se125  1  0.41988492  0.74670709  0.05090119  1
  Se  Se126  1  0.40546732  0.74193659  0.56205838  1
  Se  Se127  1  0.74149762  0.08263479  0.06124970  1
  Se  Se128  1  0.75279939  0.07680848  0.55952621  1
  Se  Se129  1  0.76391906  0.43508299  0.05316972  1
  Se  Se130  1  0.74016996  0.40905833  0.55630860  1
  Se  Se131  1  0.75232597  0.75529660  0.04845248  1
  Se  Se132  1  0.74968697  0.74270133  0.55629247  1
  Se  Se133  1  0.25424330  0.25204917  0.05706373  1
  Se  Se134  1  0.24930610  0.25167758  0.55427987  1
  Se  Se135  1  0.25396199  0.57796186  0.05444843  1
  Se  Se136  1  0.24371837  0.58062654  0.55617079  1
  Se  Se137  1  0.23780358  0.91225018  0.04429883  1
  Se  Se138  1  0.26168448  0.92089547  0.56174206  1
  Se  Se139  1  0.59011198  0.25614929  0.05784483  1
  Se  Se140  1  0.57792656  0.24284024  0.54749553  1
  Se  Se141  1  0.58414899  0.58256338  0.05243868  1
  Se  Se142  1  0.58329236  0.58085542  0.55448084  1
  Se  Se143  1  0.58090526  0.91617293  0.05176379  1
  Se  Se144  1  0.59838992  0.92229106  0.56574707  1
  Se  Se145  1  0.92174523  0.26230908  0.05665418  1
  Se  Se146  1  0.91826992  0.25474136  0.56454439  1
  Se  Se147  1  0.91821931  0.58550908  0.04635667  1
  Se  Se148  1  0.92173336  0.58286702  0.56843916  1
  Se  Se149  1  0.90992325  0.91608795  0.05068727  1
  Se  Se150  1  0.92213467  0.90985493  0.55465301  1
  Se  Se151  1  0.08391671  0.25165755  0.45029242  1
  Se  Se152  1  0.07206196  0.25847405  0.93877920  1
  Se  Se153  1  0.08553416  0.57857944  0.45465299  1
  Se  Se154  1  0.08261990  0.58171912  0.94210731  1
  Se  Se155  1  0.08019777  0.91782491  0.43591348  1
  Se  Se156  1  0.08066165  0.91170166  0.94104527  1
  Se  Se157  1  0.41884273  0.25090479  0.44800778  1
  Se  Se158  1  0.41225222  0.25726058  0.93877038  1
  Se  Se159  1  0.42065032  0.58278193  0.45144575  1
  Se  Se160  1  0.42336672  0.57503516  0.94900497  1
  Se  Se161  1  0.41520615  0.92179299  0.44617484  1
  Se  Se162  1  0.41987384  0.91806715  0.95323385  1
  Se  Se163  1  0.74000451  0.26070659  0.44495334  1
  Se  Se164  1  0.73994256  0.26746430  0.94501338  1
  Se  Se165  1  0.73716774  0.58138329  0.43351417  1
  Se  Se166  1  0.75076561  0.58615554  0.94245304  1
  Se  Se167  1  0.75423715  0.90618146  0.44683086  1
  Se  Se168  1  0.75302143  0.91655615  0.94886564  1
  Se  Se169  1  0.24868806  0.08711882  0.44799064  1
  Se  Se170  1  0.25629272  0.07147159  0.94136596  1
  Se  Se171  1  0.24729888  0.41853124  0.45037035  1
  Se  Se172  1  0.24650152  0.41636452  0.94706074  1
  Se  Se173  1  0.25823856  0.74313919  0.43813364  1
  Se  Se174  1  0.25230336  0.74130498  0.94699061  1
  Se  Se175  1  0.58650330  0.07893561  0.45078052  1
  Se  Se176  1  0.58991291  0.08089223  0.93910419  1
  Se  Se177  1  0.58636252  0.42738348  0.43572026  1
  Se  Se178  1  0.57697375  0.42719037  0.94855413  1
  Se  Se179  1  0.58688008  0.74505102  0.43933895  1
  Se  Se180  1  0.58390447  0.75133699  0.94904983  1
  Se  Se181  1  0.92592827  0.07052651  0.44039192  1
  Se  Se182  1  0.92181898  0.07992483  0.93866586  1
  Se  Se183  1  0.92129155  0.41007182  0.44592465  1
  Se  Se184  1  0.91233980  0.42496990  0.94159942  1
  Se  Se185  1  0.91693657  0.74330283  0.45303047  1
  Se  Se186  1  0.91254467  0.75392615  0.94019753  1
  Se  Se187  1  0.24821647  0.25303762  0.30340305  1
  Se  Se188  1  0.24610643  0.24477890  0.81106113  1
  Se  Se189  1  0.24982161  0.57827977  0.31410072  1
  Se  Se190  1  0.23875468  0.57421543  0.80755576  1
  Se  Se191  1  0.24228651  0.91285868  0.30091583  1
  Se  Se192  1  0.25581836  0.91497430  0.80788624  1
  Se  Se193  1  0.58449314  0.24947655  0.30785316  1
  Se  Se194  1  0.58370024  0.25694609  0.80040638  1
  Se  Se195  1  0.60076921  0.60477560  0.29627957  1
  Se  Se196  1  0.58330568  0.58581994  0.80357571  1
  Se  Se197  1  0.58297682  0.91541803  0.29974156  1
  Se  Se198  1  0.58696512  0.91151610  0.81814258  1
  Se  Se199  1  0.90386358  0.23838735  0.31663700  1
  Se  Se200  1  0.91402204  0.25339467  0.80141553  1
  Se  Se201  1  0.90641363  0.57498688  0.30759586  1
  Se  Se202  1  0.91208339  0.58759666  0.80423224  1
  Se  Se203  1  0.91622296  0.91269483  0.30233466  1
  Se  Se204  1  0.92966700  0.92873856  0.79642678  1
  Se  Se205  1  0.08024497  0.08088708  0.30181709  1
  Se  Se206  1  0.08792331  0.08358636  0.80037373  1
  Se  Se207  1  0.08458697  0.42146751  0.31072058  1
  Se  Se208  1  0.07126529  0.41173582  0.79952192  1
  Se  Se209  1  0.08896803  0.75628492  0.30559850  1
  Se  Se210  1  0.08209053  0.74973712  0.80286022  1
  Se  Se211  1  0.41835319  0.08710474  0.31510290  1
  Se  Se212  1  0.41970625  0.08180601  0.80030479  1
  Se  Se213  1  0.41898825  0.41645344  0.30532859  1
  Se  Se214  1  0.41505446  0.42364883  0.80769191  1
  Se  Se215  1  0.42394544  0.75333573  0.30974739  1
  Se  Se216  1  0.42267909  0.75562402  0.81963858  1
  Se  Se217  1  0.74225815  0.07711141  0.30837943  1
  Se  Se218  1  0.76121178  0.09323150  0.81436657  1
  Se  Se219  1  0.75048134  0.40938093  0.29181641  1
  Se  Se220  1  0.74268229  0.41779598  0.80530820  1
  Se  Se221  1  0.75313313  0.75033682  0.30200720  1
  Se  Se222  1  0.75289259  0.75883064  0.79827884  1
  Se  Se223  1  0.23873302  0.09252411  0.18565855  1
  Se  Se224  1  0.25995897  0.08219580  0.69624698  1
  Se  Se225  1  0.25733860  0.41339306  0.19803986  1
  Se  Se226  1  0.23718407  0.42809091  0.69572078  1
  Se  Se227  1  0.24657563  0.75530221  0.18643184  1
  Se  Se228  1  0.24552409  0.75892596  0.69046964  1
  Se  Se229  1  0.57610137  0.08041311  0.20141592  1
  Se  Se230  1  0.58559306  0.08938983  0.69084467  1
  Se  Se231  1  0.59903965  0.40780222  0.19494242  1
  Se  Se232  1  0.57998694  0.41745779  0.69513573  1
  Se  Se233  1  0.58690898  0.74793222  0.18981163  1
  Se  Se234  1  0.56428064  0.76276619  0.69803660  1
  Se  Se235  1  0.91576142  0.07966695  0.20116535  1
  Se  Se236  1  0.91903545  0.08420806  0.69738065  1
  Se  Se237  1  0.91808971  0.42493146  0.18589884  1
  Se  Se238  1  0.90954139  0.41804999  0.70369783  1
  Se  Se239  1  0.90729971  0.75391403  0.18369659  1
  Se  Se240  1  0.92645807  0.73935094  0.70150833  1
  Se  Se241  1  0.08681684  0.24761664  0.18886663  1
  Se  Se242  1  0.08669081  0.24856542  0.69471974  1
  Se  Se243  1  0.09647532  0.57726942  0.19385901  1
  Se  Se244  1  0.07496561  0.59549791  0.70707959  1
  Se  Se245  1  0.07189864  0.91899011  0.19205275  1
  Se  Se246  1  0.08914961  0.91907210  0.69718694  1
  Se  Se247  1  0.41738354  0.25375226  0.20088032  1
  Se  Se248  1  0.42721025  0.24537584  0.68608328  1
  Se  Se249  1  0.43384781  0.56986307  0.19501308  1
  Se  Se250  1  0.41413022  0.57983452  0.69231758  1
  Se  Se251  1  0.41954404  0.90432607  0.18779434  1
  Se  Se252  1  0.42959799  0.91885149  0.70813161  1
  Se  Se253  1  0.75351017  0.24452552  0.19620298  1
  Se  Se254  1  0.74434925  0.25187442  0.69722793  1
  Se  Se255  1  0.74708773  0.58859294  0.19198187  1
  Se  Se256  1  0.74232963  0.58691336  0.69837676  1
  Se  Se257  1  0.74529253  0.91920453  0.19193071  1
  Se  Se258  1  0.75879416  0.91080578  0.69215685  1
