# generated using pymatgen
data_In86Cu29Se144
_symmetry_space_group_name_H-M   'P 1'
_cell_length_a   17.57816962
_cell_length_b   17.57559903
_cell_length_c   23.43704841
_cell_angle_alpha   90.00398611
_cell_angle_beta   90.02553383
_cell_angle_gamma   90.00351482
_symmetry_Int_Tables_number   1
_chemical_formula_structural   In86Cu29Se144
_chemical_formula_sum   'In86 Cu29 Se144'
_cell_volume   7240.80178542
_cell_formula_units_Z   1
loop_
 _symmetry_equiv_pos_site_id
 _symmetry_equiv_pos_as_xyz
  1  'x, y, z'
loop_
 _atom_site_type_symbol
 _atom_site_label
 _atom_site_symmetry_multiplicity
 _atom_site_fract_x
 _atom_site_fract_y
 _atom_site_fract_z
 _atom_site_occupancy
  In  In0  1  -0.01285291  0.15565150  0.11651546  1
  In  In1  1  -0.01017754  0.16607757  0.63428026  1
  In  In2  1  -0.00229075  0.50478479  0.11017747  1
  In  In3  1  0.00156332  0.53639866  0.62884701  1
  In  In4  1  0.00557238  0.83512396  0.11588448  1
  In  In5  1  0.00480435  0.82365248  0.63604609  1
  In  In6  1  0.34612138  0.17725254  0.11951352  1
  In  In7  1  0.33904751  0.15770592  0.62119575  1
  In  In8  1  0.32025706  0.48674670  0.12930602  1
  In  In9  1  0.33686681  0.49393214  0.62304647  1
  In  In10  1  0.32495318  0.84238659  0.12510223  1
  In  In11  1  0.32384927  0.81917863  0.60582667  1
  In  In12  1  0.66927093  0.16956094  0.12564899  1
  In  In13  1  0.65602973  0.17234700  0.63142443  1
  In  In14  1  0.66943467  0.49327818  0.12801946  1
  In  In15  1  0.66608471  0.49779262  0.62648916  1
  In  In16  1  0.67799528  0.82554725  0.13082623  1
  In  In17  1  0.66195032  0.84122073  0.62942951  1
  In  In18  1  0.16070052  -0.00696671  0.36710608  1
  In  In19  1  0.15428279  0.00690073  0.88144290  1
  In  In20  1  0.16307393  0.33045332  0.36602444  1
  In  In21  1  0.16139265  0.34129933  0.88900565  1
  In  In22  1  0.17999024  0.67062858  0.38000571  1
  In  In23  1  0.15055272  0.67396586  0.88913102  1
  In  In24  1  0.50788285  -0.00595447  0.37828097  1
  In  In25  1  0.51422144  0.00462105  0.87501115  1
  In  In26  1  0.50546822  0.33480118  0.37418391  1
  In  In27  1  0.49871047  0.32587528  0.87496747  1
  In  In28  1  0.50818959  0.65540806  0.38867839  1
  In  In29  1  0.51603083  0.65677894  0.86656170  1
  In  In30  1  0.83693902  0.00314604  0.36639157  1
  In  In31  1  0.83066967  -0.00310635  0.87978177  1
  In  In32  1  0.82821235  0.35165596  0.37547475  1
  In  In33  1  0.82259265  0.34369921  0.88454933  1
  In  In34  1  0.82313476  0.66855184  0.37645555  1
  In  In35  1  0.83313457  0.66815710  0.87743501  1
  In  In36  1  0.01016722  0.16075278  0.36685420  1
  In  In37  1  0.00180119  0.15924642  0.88334791  1
  In  In38  1  -0.00734946  0.49445142  0.37846596  1
  In  In39  1  -0.00253628  0.50970559  0.88346946  1
  In  In40  1  0.00024142  0.83883967  0.37720376  1
  In  In41  1  -0.01105219  0.82817143  0.87995892  1
  In  In42  1  0.34348607  0.18118172  0.36524840  1
  In  In43  1  0.33313393  0.16861457  0.88522576  1
  In  In44  1  0.34246486  0.50675713  0.37538217  1
  In  In45  1  0.33263849  0.49247091  0.87517956  1
  In  In46  1  0.34062130  0.81944882  0.39113639  1
  In  In47  1  0.32444536  0.82331764  0.87494876  1
  In  In48  1  0.65345194  0.15843266  0.35918465  1
  In  In49  1  0.66697993  0.16655127  0.87989210  1
  In  In50  1  0.66489398  0.49936266  0.37393991  1
  In  In51  1  0.67750762  0.51149205  0.85787066  1
  In  In52  1  0.66480761  0.82540370  0.37057984  1
  In  In53  1  0.67632154  0.84365522  0.86765246  1
  In  In54  1  0.15271011  -0.01016477  0.11770817  1
  In  In55  1  0.16472513  -0.00951037  0.63023244  1
  In  In56  1  0.18071640  0.33964945  0.12312850  1
  In  In57  1  0.17594343  0.34051179  0.62904187  1
  In  In58  1  0.15471550  0.65652332  0.10887061  1
  In  In59  1  0.14844110  0.66967070  0.62964362  1
  In  In60  1  0.50525626  0.02193317  0.12909670  1
  In  In61  1  0.50458657  0.00256759  0.61615662  1
  In  In62  1  0.51345127  0.31165607  0.14693226  1
  In  In63  1  0.51680634  0.34842321  0.60741973  1
  In  In64  1  0.51075483  0.67400099  0.12979207  1
  In  In65  1  0.50466633  0.67368303  0.61858246  1
  In  In66  1  0.83145935  0.00116008  0.12569536  1
  In  In67  1  0.83464833  -0.00508262  0.63746208  1
  In  In68  1  0.82909003  0.33138569  0.11420737  1
  In  In69  1  0.81457476  0.33694651  0.63195475  1
  In  In70  1  0.82871554  0.65861573  0.10950399  1
  In  In71  1  0.84398362  0.65634088  0.63084095  1
  In  In72  1  -0.00609646  0.32830372  0.24339759  1
  In  In73  1  0.34121911  0.33579668  0.74700801  1
  In  In74  1  0.49478925  0.49390772  -0.00178888  1
  In  In75  1  0.33407031  -0.00114230  0.24990170  1
  In  In76  1  -0.00780103  0.33953144  0.76473841  1
  In  In77  1  0.17035052  0.16191738  0.48666176  1
  In  In78  1  0.82573320  0.16842882  0.49871927  1
  In  In79  1  0.00019916  0.66604619  0.23607064  1
  In  In80  1  0.16893086  0.50602651  0.50310041  1
  In  In81  1  0.33463621  0.66342946  0.25519967  1
  In  In82  1  0.49632203  0.84201725  -0.00030012  1
  In  In83  1  0.83757150  0.82795423  0.50112876  1
  In  In84  1  0.33279099  0.66468796  0.74608724  1
  In  In85  1  0.33846656  -0.00253026  0.74063924  1
  Cu  Cu86  1  0.66423528  0.33634262  0.00281809  1
  Cu  Cu87  1  0.15507555  0.83713572  0.75662272  1
  Cu  Cu88  1  0.00296645  0.32672563  0.00051845  1
  Cu  Cu89  1  0.32626347  0.00178580  0.00389717  1
  Cu  Cu90  1  0.82894043  0.82859157  0.75557820  1
  Cu  Cu91  1  0.67011281  0.66051503  0.50204636  1
  Cu  Cu92  1  0.16096634  0.17281228  0.76123634  1
  Cu  Cu93  1  0.66684878  -0.00052429  0.49934624  1
  Cu  Cu94  1  0.50605193  0.16576471  0.74915769  1
  Cu  Cu95  1  0.32676837  0.66721812  0.00063486  1
  Cu  Cu96  1  0.50068866  0.50199636  0.25734038  1
  Cu  Cu97  1  0.83011282  0.16867482  0.24170935  1
  Cu  Cu98  1  0.33938269  0.32869192  0.00371615  1
  Cu  Cu99  1  0.00811578  -0.00212392  0.50114102  1
  Cu  Cu100  1  0.50533167  0.83285352  0.74263642  1
  Cu  Cu101  1  0.16526538  0.82988680  0.24406032  1
  Cu  Cu102  1  0.33932411  0.33068242  0.49432218  1
  Cu  Cu103  1  -0.00739874  -0.00231230  -0.00054855  1
  Cu  Cu104  1  0.66783474  0.00337301  0.00243896  1
  Cu  Cu105  1  0.51132805  0.83420008  0.25328148  1
  Cu  Cu106  1  0.82814507  0.15506337  0.75701692  1
  Cu  Cu107  1  0.83476082  0.84066128  0.24933708  1
  Cu  Cu108  1  0.66283732  0.33659972  0.49870438  1
  Cu  Cu109  1  0.66940105  0.66743695  -0.00555018  1
  Cu  Cu110  1  -0.00512808  0.34299484  0.50481549  1
  Cu  Cu111  1  0.16583124  0.15849738  0.24127547  1
  Cu  Cu112  1  0.34031356  -0.00057938  0.49788948  1
  Cu  Cu113  1  0.82609951  0.50741771  0.24505701  1
  Cu  Cu114  1  0.83511272  0.49943533  0.75221439  1
  Se  Se115  1  0.08050122  0.08179989  0.04966416  1
  Se  Se116  1  0.08052219  0.08720092  0.56014150  1
  Se  Se117  1  0.08486825  0.40956925  0.05562084  1
  Se  Se118  1  0.07729303  0.41739745  0.56619234  1
  Se  Se119  1  0.08225992  0.75051540  0.04669265  1
  Se  Se120  1  0.08067425  0.75613091  0.55737706  1
  Se  Se121  1  0.41724887  0.08149014  0.05236007  1
  Se  Se122  1  0.42173077  0.08719512  0.54768428  1
  Se  Se123  1  0.41961766  0.40496954  0.06771050  1
  Se  Se124  1  0.41529666  0.42042508  0.54749025  1
  Se  Se125  1  0.41017491  0.74450430  0.06049712  1
  Se  Se126  1  0.42211582  0.74873645  0.54610819  1
  Se  Se127  1  0.75147052  0.08671739  0.05608359  1
  Se  Se128  1  0.74648819  0.07479126  0.56333960  1
  Se  Se129  1  0.74938514  0.42451922  0.05029029  1
  Se  Se130  1  0.74894046  0.41606398  0.55345106  1
  Se  Se131  1  0.74703510  0.75434513  0.04906771  1
  Se  Se132  1  0.74631493  0.74390638  0.56376974  1
  Se  Se133  1  0.24962135  0.24668671  0.05304117  1
  Se  Se134  1  0.25399471  0.25419435  0.55390816  1
  Se  Se135  1  0.25547977  0.57517175  0.05457924  1
  Se  Se136  1  0.25412866  0.59511156  0.56636943  1
  Se  Se137  1  0.24405420  0.91215648  0.05013039  1
  Se  Se138  1  0.24984538  0.92757912  0.55391266  1
  Se  Se139  1  0.58213242  0.25466222  0.05879209  1
  Se  Se140  1  0.58591801  0.24261144  0.54896730  1
  Se  Se141  1  0.58638376  0.58947615  0.05449389  1
  Se  Se142  1  0.58385947  0.57956245  0.55520218  1
  Se  Se143  1  0.58765386  0.92273521  0.06440687  1
  Se  Se144  1  0.58513640  0.91239620  0.55075098  1
  Se  Se145  1  0.91242323  0.24620585  0.04894215  1
  Se  Se146  1  0.91770265  0.25686504  0.56153897  1
  Se  Se147  1  0.92614502  0.59474119  0.04228638  1
  Se  Se148  1  0.91348306  0.58386918  0.55016006  1
  Se  Se149  1  0.91065719  0.91606131  0.05523403  1
  Se  Se150  1  0.92288817  0.92359272  0.56123296  1
  Se  Se151  1  0.06989490  0.26128564  0.44216046  1
  Se  Se152  1  0.08793913  0.24278288  0.94957367  1
  Se  Se153  1  0.07728668  0.58918273  0.43974662  1
  Se  Se154  1  0.09754341  0.56684915  0.95256410  1
  Se  Se155  1  0.08895886  0.91650570  0.44549599  1
  Se  Se156  1  0.07651796  0.91527713  0.94525565  1
  Se  Se157  1  0.42325604  0.24733865  0.44335426  1
  Se  Se158  1  0.42400537  0.24716738  0.95033685  1
  Se  Se159  1  0.39672922  0.60060537  0.44758345  1
  Se  Se160  1  0.41281983  0.59570989  0.93889423  1
  Se  Se161  1  0.42469949  0.91389632  0.44811611  1
  Se  Se162  1  0.40486274  0.92788109  0.93564207  1
  Se  Se163  1  0.74029917  0.25617659  0.43549213  1
  Se  Se164  1  0.74767934  0.25046726  0.95023798  1
  Se  Se165  1  0.75065565  0.57944179  0.44496402  1
  Se  Se166  1  0.74663176  0.57797683  0.94160887  1
  Se  Se167  1  0.75162879  0.92280025  0.44024387  1
  Se  Se168  1  0.74579497  0.91417996  0.94951672  1
  Se  Se169  1  0.26416077  0.07327674  0.42920887  1
  Se  Se170  1  0.24499737  0.08496779  0.94764134  1
  Se  Se171  1  0.24980984  0.40788460  0.43927920  1
  Se  Se172  1  0.25878626  0.41656963  0.95171736  1
  Se  Se173  1  0.23688755  0.76026828  0.45431461  1
  Se  Se174  1  0.24517129  0.75559491  0.95139180  1
  Se  Se175  1  0.58936999  0.08519098  0.44325975  1
  Se  Se176  1  0.58128945  0.08603584  0.95129351  1
  Se  Se177  1  0.58007723  0.42242633  0.44578362  1
  Se  Se178  1  0.59172715  0.41619171  0.93632182  1
  Se  Se179  1  0.59176056  0.74965528  0.44802030  1
  Se  Se180  1  0.58500169  0.74979525  0.93935967  1
  Se  Se181  1  0.92695589  0.07989630  0.44283949  1
  Se  Se182  1  0.90912671  0.08407445  0.94906718  1
  Se  Se183  1  0.90918751  0.42257499  0.45193196  1
  Se  Se184  1  0.92159695  0.41348777  0.94741367  1
  Se  Se185  1  0.92725616  0.73845433  0.44130120  1
  Se  Se186  1  0.91801543  0.73896777  0.95125031  1
  Se  Se187  1  0.24126110  0.24280304  0.29979420  1
  Se  Se188  1  0.24766762  0.25322981  0.81324166  1
  Se  Se189  1  0.23766664  0.57198000  0.30680954  1
  Se  Se190  1  0.24753267  0.58915448  0.81800724  1
  Se  Se191  1  0.25253454  0.89805796  0.30815215  1
  Se  Se192  1  0.24553764  0.91762520  0.80810061  1
  Se  Se193  1  0.59268180  0.26589419  0.30120942  1
  Se  Se194  1  0.58506738  0.24758066  0.80688348  1
  Se  Se195  1  0.58331149  0.58906945  0.30727177  1
  Se  Se196  1  0.58257934  0.57842416  0.79061833  1
  Se  Se197  1  0.59220579  0.92090084  0.30484574  1
  Se  Se198  1  0.58069381  0.91718656  0.80177866  1
  Se  Se199  1  0.90562984  0.24413527  0.31138006  1
  Se  Se200  1  0.90419430  0.24095905  0.81700293  1
  Se  Se201  1  0.91182707  0.58154446  0.30481643  1
  Se  Se202  1  0.91600153  0.58222697  0.80820415  1
  Se  Se203  1  0.92340906  0.91699260  0.30322671  1
  Se  Se204  1  0.91167781  0.91385851  0.80895570  1
  Se  Se205  1  0.08293740  0.07578807  0.29526302  1
  Se  Se206  1  0.07748588  0.08368246  0.80551031  1
  Se  Se207  1  0.08019460  0.42396745  0.30307818  1
  Se  Se208  1  0.09290484  0.42717450  0.81280663  1
  Se  Se209  1  0.08707281  0.74913678  0.30654150  1
  Se  Se210  1  0.07851681  0.74941599  0.81019649  1
  Se  Se211  1  0.42876761  0.08593474  0.30562734  1
  Se  Se212  1  0.41821746  0.09036959  0.80721752  1
  Se  Se213  1  0.41580719  0.41785053  0.30753116  1
  Se  Se214  1  0.43126798  0.42743665  0.80566371  1
  Se  Se215  1  0.42776428  0.75409081  0.31146068  1
  Se  Se216  1  0.42607880  0.75737462  0.80725343  1
  Se  Se217  1  0.75234452  0.08293323  0.29886600  1
  Se  Se218  1  0.74207701  0.07592715  0.81082620  1
  Se  Se219  1  0.74745045  0.42110415  0.29967420  1
  Se  Se220  1  0.75311276  0.40886940  0.79991524  1
  Se  Se221  1  0.75539468  0.75192817  0.30138282  1
  Se  Se222  1  0.74467912  0.74230664  0.80556723  1
  Se  Se223  1  0.24694516  0.07958615  0.18182204  1
  Se  Se224  1  0.23935407  0.09722121  0.69472357  1
  Se  Se225  1  0.25190224  0.40695923  0.20520520  1
  Se  Se226  1  0.24246436  0.43369961  0.70092553  1
  Se  Se227  1  0.24312316  0.74506824  0.18678088  1
  Se  Se228  1  0.24268983  0.76506408  0.69433687  1
  Se  Se229  1  0.58844326  0.09293682  0.19985492  1
  Se  Se230  1  0.58116317  0.07509548  0.69475642  1
  Se  Se231  1  0.58287323  0.42165586  0.19973992  1
  Se  Se232  1  0.59100948  0.40185116  0.69110884  1
  Se  Se233  1  0.59307172  0.74702842  0.20207765  1
  Se  Se234  1  0.58751249  0.74491137  0.69397237  1
  Se  Se235  1  0.91737461  0.08180486  0.19664010  1
  Se  Se236  1  0.91874548  0.07904186  0.70442282  1
  Se  Se237  1  0.90952533  0.42760152  0.18622995  1
  Se  Se238  1  0.91674904  0.42205352  0.68903860  1
  Se  Se239  1  0.90547150  0.75721340  0.18371207  1
  Se  Se240  1  0.91437910  0.74698236  0.70167296  1
  Se  Se241  1  0.08449319  0.24072839  0.18288466  1
  Se  Se242  1  0.08646854  0.25357515  0.69621873  1
  Se  Se243  1  0.09206118  0.56765030  0.18786430  1
  Se  Se244  1  0.08832505  0.58631727  0.70778871  1
  Se  Se245  1  0.07871110  0.91270931  0.19479823  1
  Se  Se246  1  0.07574321  0.92237243  0.70141461  1
  Se  Se247  1  0.40648583  0.24694253  0.20404035  1
  Se  Se248  1  0.42659456  0.24362141  0.68605290  1
  Se  Se249  1  0.42388392  0.57747708  0.18939806  1
  Se  Se250  1  0.42583656  0.57691994  0.68908226  1
  Se  Se251  1  0.42919247  0.90846479  0.19027055  1
  Se  Se252  1  0.41950628  0.90217382  0.67989868  1
  Se  Se253  1  0.75266131  0.25935436  0.19200831  1
  Se  Se254  1  0.75057274  0.24060788  0.70008817  1
  Se  Se255  1  0.74789797  0.59151236  0.18828090  1
  Se  Se256  1  0.75144540  0.58013215  0.69572602  1
  Se  Se257  1  0.74737021  0.92158395  0.19718980  1
  Se  Se258  1  0.74687482  0.91479547  0.70246646  1
