# generated using pymatgen
data_In86Cu29Se144
_symmetry_space_group_name_H-M   'P 1'
_cell_length_a   17.58074384
_cell_length_b   17.57633194
_cell_length_c   23.43606298
_cell_angle_alpha   90.00728118
_cell_angle_beta   89.98733693
_cell_angle_gamma   89.99554314
_symmetry_Int_Tables_number   1
_chemical_formula_structural   In86Cu29Se144
_chemical_formula_sum   'In86 Cu29 Se144'
_cell_volume   7241.86013788
_cell_formula_units_Z   1
loop_
 _symmetry_equiv_pos_site_id
 _symmetry_equiv_pos_as_xyz
  1  'x, y, z'
loop_
 _atom_site_type_symbol
 _atom_site_label
 _atom_site_symmetry_multiplicity
 _atom_site_fract_x
 _atom_site_fract_y
 _atom_site_fract_z
 _atom_site_occupancy
  In  In0  1  -0.00841321  0.18027560  0.13712391  1
  In  In1  1  -0.00665011  0.16891784  0.61596468  1
  In  In2  1  -0.00360764  0.50231077  0.12893970  1
  In  In3  1  -0.00363207  0.50290016  0.61442320  1
  In  In4  1  0.01355613  0.82033388  0.13743202  1
  In  In5  1  0.00727164  0.84294283  0.60288622  1
  In  In6  1  0.33597121  0.16364237  0.12611512  1
  In  In7  1  0.34014578  0.16787218  0.63436827  1
  In  In8  1  0.30840331  0.52299769  0.14490599  1
  In  In9  1  0.33632371  0.48619119  0.62684820  1
  In  In10  1  0.33346137  0.82964952  0.11975352  1
  In  In11  1  0.33250157  0.84193836  0.62485001  1
  In  In12  1  0.66940344  0.17670462  0.11870182  1
  In  In13  1  0.67254182  0.16936085  0.62833759  1
  In  In14  1  0.67610405  0.48954519  0.13274382  1
  In  In15  1  0.65860091  0.49492661  0.61241166  1
  In  In16  1  0.65266921  0.83216988  0.12577767  1
  In  In17  1  0.66901770  0.82764161  0.62180885  1
  In  In18  1  0.14858976  -0.01456379  0.36469088  1
  In  In19  1  0.17672928  -0.01802007  0.88393305  1
  In  In20  1  0.16468584  0.33828774  0.35754018  1
  In  In21  1  0.18238513  0.32984539  0.88105752  1
  In  In22  1  0.17566781  0.66637654  0.36178758  1
  In  In23  1  0.17435745  0.66304954  0.89494540  1
  In  In24  1  0.49434521  0.00794057  0.37280411  1
  In  In25  1  0.49259337  0.00549229  0.87840200  1
  In  In26  1  0.51346987  0.33646496  0.36703609  1
  In  In27  1  0.49147372  0.32646323  0.86299719  1
  In  In28  1  0.48572277  0.65596452  0.36466944  1
  In  In29  1  0.50429732  0.66513088  0.88577367  1
  In  In30  1  0.85976711  -0.01201874  0.39537050  1
  In  In31  1  0.84777256  0.00614812  0.87762824  1
  In  In32  1  0.83712635  0.34180780  0.37840737  1
  In  In33  1  0.82317452  0.34055175  0.88051950  1
  In  In34  1  0.83278754  0.66516453  0.36886928  1
  In  In35  1  0.82189974  0.65646718  0.87992781  1
  In  In36  1  -0.00587871  0.16518235  0.37204673  1
  In  In37  1  -0.00485879  0.15849465  0.88330806  1
  In  In38  1  -0.01485341  0.48178072  0.35306103  1
  In  In39  1  -0.00094634  0.49947145  0.88618334  1
  In  In40  1  0.00550680  0.83340901  0.37250197  1
  In  In41  1  0.01153013  0.84114772  0.88035745  1
  In  In42  1  0.33434943  0.16184257  0.36339634  1
  In  In43  1  0.35196748  0.17665084  0.86698448  1
  In  In44  1  0.33739097  0.50283094  0.36379132  1
  In  In45  1  0.34040093  0.48669306  0.88404087  1
  In  In46  1  0.31860594  0.82509757  0.36703317  1
  In  In47  1  0.33163813  0.83482795  0.88106022  1
  In  In48  1  0.67876407  0.18253252  0.36970175  1
  In  In49  1  0.64736393  0.18499122  0.88655589  1
  In  In50  1  0.66637697  0.50046705  0.37336241  1
  In  In51  1  0.67122767  0.50050844  0.87776358  1
  In  In52  1  0.67886381  0.83355878  0.37508063  1
  In  In53  1  0.66270450  0.82233941  0.87904084  1
  In  In54  1  0.17474180  -0.00911288  0.13297548  1
  In  In55  1  0.17852052  0.00151140  0.62278738  1
  In  In56  1  0.15165259  0.35414365  0.14237402  1
  In  In57  1  0.17732471  0.33645580  0.62608080  1
  In  In58  1  0.16426088  0.66111210  0.12397820  1
  In  In59  1  0.15582927  0.66211066  0.61775740  1
  In  In60  1  0.48535133  -0.00909023  0.11301439  1
  In  In61  1  0.48754084  -0.00490161  0.63442293  1
  In  In62  1  0.50214274  0.33124896  0.12694587  1
  In  In63  1  0.49430539  0.34440989  0.63701427  1
  In  In64  1  0.48938588  0.67907116  0.13130977  1
  In  In65  1  0.50966269  0.66447611  0.62309312  1
  In  In66  1  0.83308056  0.01459318  0.12735047  1
  In  In67  1  0.83913076  0.00405009  0.61204216  1
  In  In68  1  0.82968188  0.33118053  0.12772289  1
  In  In69  1  0.82233532  0.32450881  0.61020245  1
  In  In70  1  0.84461300  0.65568853  0.13806611  1
  In  In71  1  0.83263772  0.66822544  0.60921060  1
  In  In72  1  0.16730574  0.16761502  0.00682708  1
  In  In73  1  0.50220397  0.16965106  0.50672132  1
  In  In74  1  0.15953798  0.16163391  0.49301932  1
  In  In75  1  0.83519246  0.83181266  0.00027154  1
  In  In76  1  0.66327623  0.00964636  0.75659389  1
  In  In77  1  0.00251428  0.33179816  0.73899266  1
  In  In78  1  0.50237675  0.83134590  0.50692625  1
  In  In79  1  0.66732038  0.00381034  0.25141928  1
  In  In80  1  0.49483435  0.50126285  0.00707122  1
  In  In81  1  0.33752221  0.66398910  0.75688189  1
  In  In82  1  0.65952910  0.66122838  0.75056380  1
  In  In83  1  0.16008778  0.49847989  0.48689476  1
  In  In84  1  -0.00100168  0.66717527  0.74449760  1
  In  In85  1  0.00931929  0.00156014  0.74862471  1
  Cu  Cu86  1  0.83498730  0.83571504  0.25619191  1
  Cu  Cu87  1  0.49403903  0.83136200  0.24598906  1
  Cu  Cu88  1  0.66682471  0.66605044  0.49251482  1
  Cu  Cu89  1  -0.00072092  0.66323790  0.01026790  1
  Cu  Cu90  1  0.33025807  0.65905117  0.48932500  1
  Cu  Cu91  1  0.82659846  0.49521642  0.25077866  1
  Cu  Cu92  1  -0.00188684  0.00170878  0.00879502  1
  Cu  Cu93  1  -0.00251396  0.66785955  0.48806405  1
  Cu  Cu94  1  0.17894770  0.15956449  0.75273823  1
  Cu  Cu95  1  0.83088845  0.17610168  0.75080673  1
  Cu  Cu96  1  0.66449438  0.33213626  0.00263851  1
  Cu  Cu97  1  0.17322290  0.82855894  0.75506639  1
  Cu  Cu98  1  0.67340216  0.01174227  0.50007432  1
  Cu  Cu99  1  0.83320265  0.16739005  0.25340811  1
  Cu  Cu100  1  0.66824813  0.66184150  0.00613379  1
  Cu  Cu101  1  0.82570748  0.49755059  0.74881467  1
  Cu  Cu102  1  0.17220946  0.48873749  0.75520611  1
  Cu  Cu103  1  0.33607141  0.00350431  0.00132116  1
  Cu  Cu104  1  0.16764470  0.16811570  0.24715741  1
  Cu  Cu105  1  0.33198355  0.33797039  0.00528820  1
  Cu  Cu106  1  0.66489633  0.00363227  0.00318079  1
  Cu  Cu107  1  0.66900006  0.34251631  0.49419649  1
  Cu  Cu108  1  0.34039833  0.33228675  0.49958256  1
  Cu  Cu109  1  0.83303924  0.83348567  0.74005201  1
  Cu  Cu110  1  0.16863085  0.83649873  0.24658486  1
  Cu  Cu111  1  0.32435476  -0.01041925  0.49599268  1
  Cu  Cu112  1  0.50440489  0.49604219  0.24638309  1
  Cu  Cu113  1  0.49968827  0.16006418  0.24470632  1
  Cu  Cu114  1  -0.00599434  0.33597133  0.01077880  1
  Se  Se115  1  0.07758195  0.08212596  0.06960708  1
  Se  Se116  1  0.07515421  0.06889049  0.55677058  1
  Se  Se117  1  0.08115131  0.41975199  0.05853094  1
  Se  Se118  1  0.08248482  0.40518462  0.55604951  1
  Se  Se119  1  0.08346271  0.75211201  0.05538394  1
  Se  Se120  1  0.08536351  0.74442667  0.54420176  1
  Se  Se121  1  0.41815637  0.09297464  0.04948046  1
  Se  Se122  1  0.40510590  0.07194248  0.55544159  1
  Se  Se123  1  0.40370110  0.41955627  0.07037151  1
  Se  Se124  1  0.42170586  0.41454407  0.55417843  1
  Se  Se125  1  0.42639395  0.75690478  0.05213961  1
  Se  Se126  1  0.40430339  0.73705960  0.55784968  1
  Se  Se127  1  0.75051127  0.08602980  0.05348350  1
  Se  Se128  1  0.75360171  0.09668579  0.55358753  1
  Se  Se129  1  0.74975598  0.41414168  0.05511014  1
  Se  Se130  1  0.75556689  0.42624902  0.54650193  1
  Se  Se131  1  0.74992735  0.74407616  0.06491929  1
  Se  Se132  1  0.74612136  0.75438329  0.54590511  1
  Se  Se133  1  0.24833748  0.26251904  0.06726331  1
  Se  Se134  1  0.25868248  0.24755556  0.55489341  1
  Se  Se135  1  0.25070318  0.58231660  0.05531115  1
  Se  Se136  1  0.25392833  0.57904340  0.55576574  1
  Se  Se137  1  0.25092381  0.92143630  0.05408369  1
  Se  Se138  1  0.24361162  0.90758643  0.55139647  1
  Se  Se139  1  0.57630519  0.24974439  0.05134402  1
  Se  Se140  1  0.59166723  0.26437071  0.56033791  1
  Se  Se141  1  0.58782049  0.58549656  0.06882514  1
  Se  Se142  1  0.58025849  0.58660770  0.54652930  1
  Se  Se143  1  0.58307631  0.91469611  0.05095691  1
  Se  Se144  1  0.59046567  0.93358778  0.56101021  1
  Se  Se145  1  0.91250561  0.24650674  0.05790642  1
  Se  Se146  1  0.92788198  0.26254710  0.54991234  1
  Se  Se147  1  0.90995684  0.58053755  0.05652879  1
  Se  Se148  1  0.91754029  0.58358487  0.54407103  1
  Se  Se149  1  0.92055528  0.91605487  0.06723672  1
  Se  Se150  1  0.90437184  0.90948378  0.54498009  1
  Se  Se151  1  0.08302435  0.26189207  0.43433745  1
  Se  Se152  1  0.07439510  0.25889237  0.94564920  1
  Se  Se153  1  0.07428546  0.58763679  0.42628629  1
  Se  Se154  1  0.08211876  0.57958054  0.95457626  1
  Se  Se155  1  0.08359816  0.91419078  0.44575458  1
  Se  Se156  1  0.08312589  0.91955568  0.95638899  1
  Se  Se157  1  0.41494676  0.24955841  0.43713029  1
  Se  Se158  1  0.41502930  0.26103981  0.94540921  1
  Se  Se159  1  0.41633073  0.57502926  0.44204822  1
  Se  Se160  1  0.40302452  0.59410438  0.94918867  1
  Se  Se161  1  0.41356693  0.91466534  0.43946785  1
  Se  Se162  1  0.41793404  0.91737936  0.94810419  1
  Se  Se163  1  0.75344845  0.25467698  0.44699317  1
  Se  Se164  1  0.75136173  0.24880754  0.94941638  1
  Se  Se165  1  0.75205796  0.58319515  0.44076166  1
  Se  Se166  1  0.74979303  0.57606002  0.95404039  1
  Se  Se167  1  0.74729770  0.92023714  0.44776280  1
  Se  Se168  1  0.74509530  0.92489906  0.93963463  1
  Se  Se169  1  0.25286967  0.07403535  0.43414323  1
  Se  Se170  1  0.25740373  0.08638790  0.94003660  1
  Se  Se171  1  0.25812107  0.40583056  0.43668638  1
  Se  Se172  1  0.24542496  0.42065703  0.95396635  1
  Se  Se173  1  0.24534275  0.74475825  0.44222986  1
  Se  Se174  1  0.23757531  0.76957914  0.95066343  1
  Se  Se175  1  0.59021092  0.08490255  0.43883889  1
  Se  Se176  1  0.57980582  0.08339076  0.94792821  1
  Se  Se177  1  0.57919691  0.42032494  0.44357393  1
  Se  Se178  1  0.58214941  0.41276275  0.94288607  1
  Se  Se179  1  0.58121718  0.74614351  0.43572596  1
  Se  Se180  1  0.58606756  0.74768121  0.95486323  1
  Se  Se181  1  0.91570587  0.09969896  0.45192720  1
  Se  Se182  1  0.91379676  0.08461942  0.95710748  1
  Se  Se183  1  0.92784762  0.42206181  0.44263762  1
  Se  Se184  1  0.91281167  0.41513439  0.94945075  1
  Se  Se185  1  0.91280140  0.75226991  0.43731482  1
  Se  Se186  1  0.92602121  0.73908211  0.93908317  1
  Se  Se187  1  0.25438434  0.25031721  0.29842071  1
  Se  Se188  1  0.25304844  0.25170689  0.80473903  1
  Se  Se189  1  0.25118552  0.57764751  0.29496112  1
  Se  Se190  1  0.24185495  0.57689232  0.81513367  1
  Se  Se191  1  0.25154074  0.92202651  0.30002180  1
  Se  Se192  1  0.25473158  0.91510905  0.80487937  1
  Se  Se193  1  0.58399316  0.24230818  0.29843024  1
  Se  Se194  1  0.59014266  0.25364260  0.80150441  1
  Se  Se195  1  0.58368276  0.58230167  0.30254351  1
  Se  Se196  1  0.57001435  0.57258464  0.81097133  1
  Se  Se197  1  0.57476950  0.90914884  0.30903767  1
  Se  Se198  1  0.58090028  0.90968760  0.81204897  1
  Se  Se199  1  0.91416207  0.25466907  0.30625488  1
  Se  Se200  1  0.91865892  0.24875418  0.81044415  1
  Se  Se201  1  0.91276767  0.58530219  0.29592660  1
  Se  Se202  1  0.90996935  0.57576637  0.80705088  1
  Se  Se203  1  0.91829670  0.92120874  0.30711957  1
  Se  Se204  1  0.91392740  0.90672219  0.80505850  1
  Se  Se205  1  0.08204406  0.08849636  0.30299695  1
  Se  Se206  1  0.09582580  0.08721797  0.81567375  1
  Se  Se207  1  0.10205834  0.43987408  0.29405517  1
  Se  Se208  1  0.08399264  0.41474976  0.81263561  1
  Se  Se209  1  0.08590505  0.75264858  0.30046632  1
  Se  Se210  1  0.09018653  0.74799954  0.81165098  1
  Se  Se211  1  0.41527202  0.07536723  0.29542862  1
  Se  Se212  1  0.42077509  0.08135104  0.80157287  1
  Se  Se213  1  0.42170366  0.41236092  0.30136726  1
  Se  Se214  1  0.41293215  0.42298883  0.80346260  1
  Se  Se215  1  0.40928985  0.74898439  0.30033618  1
  Se  Se216  1  0.42795619  0.75457274  0.81400910  1
  Se  Se217  1  0.76267910  0.07947420  0.31598721  1
  Se  Se218  1  0.75935300  0.09433071  0.81527678  1
  Se  Se219  1  0.74588351  0.41131756  0.30623141  1
  Se  Se220  1  0.74556098  0.41601893  0.80457769  1
  Se  Se221  1  0.74667661  0.74964799  0.30056487  1
  Se  Se222  1  0.75994176  0.75449353  0.80481092  1
  Se  Se223  1  0.25244122  0.08392109  0.19647992  1
  Se  Se224  1  0.25745688  0.07540616  0.69663743  1
  Se  Se225  1  0.26573332  0.40361936  0.20006949  1
  Se  Se226  1  0.25675582  0.40918346  0.70122957  1
  Se  Se227  1  0.24712047  0.75250034  0.18973076  1
  Se  Se228  1  0.24210730  0.74376826  0.69023679  1
  Se  Se229  1  0.57877581  0.08106334  0.18238793  1
  Se  Se230  1  0.57264147  0.09364712  0.69236934  1
  Se  Se231  1  0.58762034  0.40829303  0.19787891  1
  Se  Se232  1  0.59068341  0.42707843  0.69374399  1
  Se  Se233  1  0.58507290  0.74831983  0.20086038  1
  Se  Se234  1  0.57409026  0.76303472  0.69500571  1
  Se  Se235  1  0.91743406  0.08296779  0.20174977  1
  Se  Se236  1  0.91023375  0.09052236  0.69382117  1
  Se  Se237  1  0.91247033  0.41504000  0.19567042  1
  Se  Se238  1  0.90781452  0.42391462  0.68581705  1
  Se  Se239  1  0.91748956  0.75049182  0.20309059  1
  Se  Se240  1  0.91626745  0.75891894  0.68006368  1
  Se  Se241  1  0.07830004  0.25666451  0.20547827  1
  Se  Se242  1  0.09685347  0.23281374  0.68823168  1
  Se  Se243  1  0.07575495  0.58978338  0.19491853  1
  Se  Se244  1  0.09149937  0.56589724  0.69320473  1
  Se  Se245  1  0.07871518  0.92312983  0.20080620  1
  Se  Se246  1  0.09133869  0.90291403  0.69003360  1
  Se  Se247  1  0.41797405  0.24767421  0.19483343  1
  Se  Se248  1  0.41795610  0.25277175  0.70024865  1
  Se  Se249  1  0.42022471  0.58575561  0.20022913  1
  Se  Se250  1  0.42370816  0.57860882  0.69065988  1
  Se  Se251  1  0.41363825  0.91572891  0.19139524  1
  Se  Se252  1  0.41502863  0.90537031  0.70064979  1
  Se  Se253  1  0.74766511  0.24552067  0.19737713  1
  Se  Se254  1  0.75214373  0.25839338  0.69463396  1
  Se  Se255  1  0.74493082  0.58474176  0.20083426  1
  Se  Se256  1  0.75580868  0.58452834  0.68637341  1
  Se  Se257  1  0.75543928  0.91066950  0.19027782  1
  Se  Se258  1  0.75305456  0.92133365  0.68872869  1
