# generated using pymatgen
data_In86Cu29Se144
_symmetry_space_group_name_H-M   'P 1'
_cell_length_a   17.57905335
_cell_length_b   17.58108128
_cell_length_c   23.43977322
_cell_angle_alpha   90.01117383
_cell_angle_beta   90.00240666
_cell_angle_gamma   90.00011878
_symmetry_Int_Tables_number   1
_chemical_formula_structural   In86Cu29Se144
_chemical_formula_sum   'In86 Cu29 Se144'
_cell_volume   7244.26724134
_cell_formula_units_Z   1
loop_
 _symmetry_equiv_pos_site_id
 _symmetry_equiv_pos_as_xyz
  1  'x, y, z'
loop_
 _atom_site_type_symbol
 _atom_site_label
 _atom_site_symmetry_multiplicity
 _atom_site_fract_x
 _atom_site_fract_y
 _atom_site_fract_z
 _atom_site_occupancy
  In  In0  1  0.01024150  0.15492125  0.13471866  1
  In  In1  1  -0.00859024  0.17492161  0.61687414  1
  In  In2  1  -0.00931424  0.51161896  0.12966363  1
  In  In3  1  0.02438518  0.50350004  0.63357445  1
  In  In4  1  -0.00057473  0.83162703  0.12223004  1
  In  In5  1  0.01188165  0.81615210  0.62860835  1
  In  In6  1  0.32439124  0.17085014  0.13181426  1
  In  In7  1  0.33679563  0.16438608  0.61950389  1
  In  In8  1  0.34480664  0.49011542  0.12764233  1
  In  In9  1  0.33775871  0.49109621  0.64943260  1
  In  In10  1  0.32469267  0.83963142  0.12924685  1
  In  In11  1  0.32631745  0.83514515  0.62492845  1
  In  In12  1  0.66153063  0.17226430  0.13527838  1
  In  In13  1  0.66793640  0.17641286  0.61996625  1
  In  In14  1  0.66591972  0.49953982  0.11947767  1
  In  In15  1  0.66022874  0.49469644  0.63921826  1
  In  In16  1  0.67502085  0.82213526  0.13097196  1
  In  In17  1  0.66203509  0.82770154  0.62579839  1
  In  In18  1  0.15785606  -0.00862334  0.37096651  1
  In  In19  1  0.16696682  0.00493841  0.88296432  1
  In  In20  1  0.17260435  0.33702452  0.36660761  1
  In  In21  1  0.17283703  0.32502948  0.87633272  1
  In  In22  1  0.17548489  0.67422463  0.36721687  1
  In  In23  1  0.18087178  0.68055030  0.86039135  1
  In  In24  1  0.50832496  0.00763567  0.36785602  1
  In  In25  1  0.48749989  0.00750454  0.87564265  1
  In  In26  1  0.48903250  0.32088950  0.36965529  1
  In  In27  1  0.51736805  0.36101966  0.84449779  1
  In  In28  1  0.49938605  0.66701794  0.36755653  1
  In  In29  1  0.48651535  0.64778079  0.86230144  1
  In  In30  1  0.84012849  0.00764895  0.36753460  1
  In  In31  1  0.82279657  -0.00544403  0.88153180  1
  In  In32  1  0.82286971  0.32345707  0.36580074  1
  In  In33  1  0.83805484  0.34832518  0.87823916  1
  In  In34  1  0.83783238  0.67123317  0.36566395  1
  In  In35  1  0.83317769  0.66629072  0.87833337  1
  In  In36  1  -0.00776399  0.15890637  0.36853104  1
  In  In37  1  0.01133572  0.17878762  0.87800795  1
  In  In38  1  0.00430254  0.50219033  0.36219322  1
  In  In39  1  -0.01465116  0.50275207  0.88286646  1
  In  In40  1  0.01015219  0.83918104  0.36835514  1
  In  In41  1  0.01495532  0.82076865  0.88858995  1
  In  In42  1  0.34414609  0.17246786  0.37430424  1
  In  In43  1  0.32622385  0.17686683  0.86899814  1
  In  In44  1  0.33429505  0.49942729  0.36745096  1
  In  In45  1  0.33774953  0.50640707  0.86442385  1
  In  In46  1  0.32587696  0.82765179  0.37098820  1
  In  In47  1  0.33084327  0.82555952  0.87657633  1
  In  In48  1  0.66495926  0.17068916  0.37422359  1
  In  In49  1  0.65084457  0.17894017  0.87255842  1
  In  In50  1  0.66745100  0.50113480  0.36797581  1
  In  In51  1  0.66764234  0.50369575  0.87443434  1
  In  In52  1  0.66732155  0.83326977  0.36442392  1
  In  In53  1  0.68188165  0.82880595  0.88377958  1
  In  In54  1  0.16491443  -0.00149904  0.12642909  1
  In  In55  1  0.18474588  -0.01814858  0.61785626  1
  In  In56  1  0.17912468  0.32098981  0.13053376  1
  In  In57  1  0.17605667  0.32661416  0.63440019  1
  In  In58  1  0.15710986  0.67274066  0.12755129  1
  In  In59  1  0.17214293  0.66795393  0.64036787  1
  In  In60  1  0.49500547  0.00465665  0.14042678  1
  In  In61  1  0.48652381  0.01684391  0.61882993  1
  In  In62  1  0.49373562  0.33903203  0.12776886  1
  In  In63  1  0.49736768  0.32742353  0.63481911  1
  In  In64  1  0.50753672  0.65645629  0.12693471  1
  In  In65  1  0.49972905  0.65728032  0.64434965  1
  In  In66  1  0.84406780  -0.01119644  0.13411291  1
  In  In67  1  0.82476262  0.00358913  0.61691784  1
  In  In68  1  0.82398025  0.34573668  0.12851062  1
  In  In69  1  0.83453404  0.32398998  0.62023455  1
  In  In70  1  0.83192820  0.66514277  0.11876835  1
  In  In71  1  0.83831313  0.65922710  0.63011933  1
  In  In72  1  0.66352831  -0.00305393  0.74571843  1
  In  In73  1  0.84013461  0.16327236  0.00739591  1
  In  In74  1  0.16548297  0.16047772  0.50094977  1
  In  In75  1  0.00140287  -0.00423169  0.75373714  1
  In  In76  1  0.83576751  0.49779742  0.50333977  1
  In  In77  1  0.49974694  0.49743694  0.51365637  1
  In  In78  1  0.17476297  0.49636625  0.50793156  1
  In  In79  1  0.33418967  0.00398727  0.74823499  1
  In  In80  1  -0.00148500  0.33930345  0.74954936  1
  In  In81  1  0.49454770  0.17121332  -0.00380679  1
  In  In82  1  0.49367388  0.84072016  0.50251695  1
  In  In83  1  0.15943732  0.50368907  0.00353084  1
  In  In84  1  0.83889596  0.84040373  0.48525277  1
  In  In85  1  0.50416619  0.82275151  0.00676558  1
  Cu  Cu86  1  0.66836844  -0.00536905  0.00824187  1
  Cu  Cu87  1  0.16091547  0.83118173  0.24593818  1
  Cu  Cu88  1  0.83129224  0.50401506  0.24487474  1
  Cu  Cu89  1  0.82936307  0.50291744  0.75442644  1
  Cu  Cu90  1  -0.00433149  0.33077572  0.49323505  1
  Cu  Cu91  1  0.50390129  0.16979726  0.25329237  1
  Cu  Cu92  1  0.66122764  0.01766499  0.49712735  1
  Cu  Cu93  1  0.32668701  0.00004922  0.00408638  1
  Cu  Cu94  1  0.83060905  0.82691524  0.24476885  1
  Cu  Cu95  1  0.83800706  0.82337810  0.75626443  1
  Cu  Cu96  1  0.00580574  0.33065212  0.00360273  1
  Cu  Cu97  1  0.01969139  0.66639952  0.50238768  1
  Cu  Cu98  1  0.83333571  0.17201263  0.24931295  1
  Cu  Cu99  1  0.50622129  0.50062267  0.24769509  1
  Cu  Cu100  1  0.66646122  0.33953393  -0.00618938  1
  Cu  Cu101  1  0.49184739  0.83123484  0.24974854  1
  Cu  Cu102  1  -0.00260502  0.67008663  0.00196512  1
  Cu  Cu103  1  0.16891482  0.16112201  0.25499072  1
  Cu  Cu104  1  -0.00064590  -0.00513377  0.49326226  1
  Cu  Cu105  1  0.66592933  0.65938931  -0.00102647  1
  Cu  Cu106  1  0.82503999  0.16978376  0.74537888  1
  Cu  Cu107  1  0.33398846  0.66638708  0.50085984  1
  Cu  Cu108  1  0.33907556  0.33627548  0.00063031  1
  Cu  Cu109  1  0.32951227  0.66151533  -0.00715750  1
  Cu  Cu110  1  0.17141471  0.49828510  0.24331402  1
  Cu  Cu111  1  0.50730492  0.83094122  0.75375943  1
  Cu  Cu112  1  0.67006330  0.67281083  0.49982201  1
  Cu  Cu113  1  0.65501215  0.32979721  0.49711666  1
  Cu  Cu114  1  0.00443914  0.00098438  0.00819418  1
  Se  Se115  1  0.08877716  0.08805282  0.05551813  1
  Se  Se116  1  0.07489954  0.06945916  0.56208112  1
  Se  Se117  1  0.08049599  0.41049572  0.06877660  1
  Se  Se118  1  0.07553397  0.40145267  0.55867934  1
  Se  Se119  1  0.08530005  0.75241735  0.05147592  1
  Se  Se120  1  0.10137610  0.74559468  0.55856854  1
  Se  Se121  1  0.41248722  0.07788257  0.06065848  1
  Se  Se122  1  0.40411914  0.08075611  0.54405657  1
  Se  Se123  1  0.42481418  0.41980598  0.05009885  1
  Se  Se124  1  0.40198548  0.41174708  0.56590407  1
  Se  Se125  1  0.40491492  0.73887827  0.06131383  1
  Se  Se126  1  0.42088757  0.73693531  0.56337772  1
  Se  Se127  1  0.74457745  0.07957316  0.06704205  1
  Se  Se128  1  0.75122618  0.09342589  0.55037615  1
  Se  Se129  1  0.75131573  0.41846045  0.04911855  1
  Se  Se130  1  0.73527491  0.41186313  0.55797744  1
  Se  Se131  1  0.74521116  0.74846536  0.05096711  1
  Se  Se132  1  0.75639961  0.75064786  0.55563350  1
  Se  Se133  1  0.25719120  0.24984227  0.05222246  1
  Se  Se134  1  0.25221733  0.26018387  0.55272160  1
  Se  Se135  1  0.25612426  0.58636971  0.06310367  1
  Se  Se136  1  0.26403981  0.58596303  0.56749843  1
  Se  Se137  1  0.24471919  0.91407777  0.05448490  1
  Se  Se138  1  0.26703054  0.91454435  0.54403459  1
  Se  Se139  1  0.59094918  0.25625482  0.05566136  1
  Se  Se140  1  0.57315987  0.25285382  0.55631597  1
  Se  Se141  1  0.57822331  0.57823576  0.04946010  1
  Se  Se142  1  0.59461275  0.59481834  0.56371912  1
  Se  Se143  1  0.58227631  0.92229754  0.06761310  1
  Se  Se144  1  0.59253991  0.93002737  0.55994175  1
  Se  Se145  1  0.92573190  0.25443858  0.06797863  1
  Se  Se146  1  0.90908233  0.24756786  0.54314250  1
  Se  Se147  1  0.91538675  0.58071307  0.04982897  1
  Se  Se148  1  0.93496421  0.58606416  0.55831490  1
  Se  Se149  1  0.91521074  0.91705121  0.05381357  1
  Se  Se150  1  0.92453549  0.91541630  0.56088693  1
  Se  Se151  1  0.08062329  0.25287739  0.43560953  1
  Se  Se152  1  0.09200985  0.25043667  0.95253599  1
  Se  Se153  1  0.08842470  0.58046903  0.43938529  1
  Se  Se154  1  0.08017343  0.59550754  0.93862222  1
  Se  Se155  1  0.08593837  0.90925005  0.44765082  1
  Se  Se156  1  0.08694396  0.91980342  0.95084442  1
  Se  Se157  1  0.41757977  0.25221721  0.44932838  1
  Se  Se158  1  0.41682819  0.26384451  0.93304750  1
  Se  Se159  1  0.41590446  0.58584797  0.44335928  1
  Se  Se160  1  0.41441511  0.57742286  0.94335373  1
  Se  Se161  1  0.41341754  0.92231590  0.43288175  1
  Se  Se162  1  0.41266501  0.91902652  0.94806509  1
  Se  Se163  1  0.74699379  0.25417799  0.44520025  1
  Se  Se164  1  0.74869116  0.25030888  0.94225436  1
  Se  Se165  1  0.74942088  0.59132682  0.44125803  1
  Se  Se166  1  0.75332522  0.57857404  0.94645727  1
  Se  Se167  1  0.73643636  0.93018166  0.43775224  1
  Se  Se168  1  0.75408055  0.91264800  0.95759311  1
  Se  Se169  1  0.25038839  0.07865369  0.43374403  1
  Se  Se170  1  0.25877366  0.08867309  0.94350117  1
  Se  Se171  1  0.26068459  0.41046311  0.44198176  1
  Se  Se172  1  0.25339466  0.41754685  0.94422667  1
  Se  Se173  1  0.25067432  0.74643469  0.44625075  1
  Se  Se174  1  0.24526358  0.74927632  0.94666385  1
  Se  Se175  1  0.57469656  0.09435315  0.44328337  1
  Se  Se176  1  0.59205342  0.07343285  0.94442212  1
  Se  Se177  1  0.58247377  0.41850165  0.43957271  1
  Se  Se178  1  0.57951188  0.41407269  0.93665201  1
  Se  Se179  1  0.58700201  0.74985082  0.44174087  1
  Se  Se180  1  0.58372687  0.73736637  0.93712954  1
  Se  Se181  1  0.91594126  0.08191937  0.44543349  1
  Se  Se182  1  0.92786345  0.07740158  0.93999966  1
  Se  Se183  1  0.92041787  0.41514763  0.43431176  1
  Se  Se184  1  0.91770152  0.41455060  0.95646627  1
  Se  Se185  1  0.93205983  0.73826095  0.44098576  1
  Se  Se186  1  0.91126619  0.75324098  0.94904799  1
  Se  Se187  1  0.25461857  0.24761763  0.30370336  1
  Se  Se188  1  0.24535550  0.25454589  0.79702139  1
  Se  Se189  1  0.25145972  0.58262015  0.30074341  1
  Se  Se190  1  0.24291967  0.57740901  0.79977152  1
  Se  Se191  1  0.24427296  0.91205676  0.30229598  1
  Se  Se192  1  0.24550557  0.91652813  0.81078914  1
  Se  Se193  1  0.58813091  0.25648113  0.30280328  1
  Se  Se194  1  0.58181290  0.24770520  0.79325746  1
  Se  Se195  1  0.58681287  0.58723568  0.30136842  1
  Se  Se196  1  0.58748183  0.58122195  0.80139051  1
  Se  Se197  1  0.58034019  0.91466854  0.29974407  1
  Se  Se198  1  0.57924807  0.91326910  0.81718152  1
  Se  Se199  1  0.92117350  0.25369218  0.30129602  1
  Se  Se200  1  0.90815062  0.24383084  0.80894751  1
  Se  Se201  1  0.91761634  0.58595984  0.29825744  1
  Se  Se202  1  0.91482561  0.58376490  0.80687631  1
  Se  Se203  1  0.91037303  0.90812342  0.30473252  1
  Se  Se204  1  0.91049852  0.90933721  0.81589237  1
  Se  Se205  1  0.07924173  0.07770381  0.30233884  1
  Se  Se206  1  0.09141975  0.09243754  0.80730826  1
  Se  Se207  1  0.08714610  0.41532338  0.29789863  1
  Se  Se208  1  0.08189443  0.42175866  0.81796641  1
  Se  Se209  1  0.07992227  0.74501580  0.30062768  1
  Se  Se210  1  0.08068115  0.75858359  0.80354365  1
  Se  Se211  1  0.41668407  0.08526607  0.30189640  1
  Se  Se212  1  0.42701047  0.09966484  0.80174396  1
  Se  Se213  1  0.42148277  0.41808802  0.30218775  1
  Se  Se214  1  0.38395465  0.38987482  0.80537499  1
  Se  Se215  1  0.41033675  0.74565760  0.30256929  1
  Se  Se216  1  0.41627867  0.75395916  0.80473887  1
  Se  Se217  1  0.74998451  0.08872636  0.30449783  1
  Se  Se218  1  0.75181702  0.08888056  0.80967127  1
  Se  Se219  1  0.75083439  0.41946447  0.30073450  1
  Se  Se220  1  0.75054042  0.41438694  0.80577799  1
  Se  Se221  1  0.74593400  0.74441186  0.29882104  1
  Se  Se222  1  0.74731701  0.74633703  0.80705475  1
  Se  Se223  1  0.24973947  0.07812702  0.19748414  1
  Se  Se224  1  0.23821357  0.08641231  0.68698664  1
  Se  Se225  1  0.25773757  0.41191158  0.19606645  1
  Se  Se226  1  0.20710995  0.44753008  0.68974014  1
  Se  Se227  1  0.24788686  0.74808953  0.19546894  1
  Se  Se228  1  0.26343670  0.75238642  0.70052068  1
  Se  Se229  1  0.58785832  0.08233612  0.20356636  1
  Se  Se230  1  0.57714462  0.09153791  0.68957632  1
  Se  Se231  1  0.58683671  0.41648234  0.19187419  1
  Se  Se232  1  0.56752372  0.42141167  0.70243773  1
  Se  Se233  1  0.57755222  0.75061439  0.19496762  1
  Se  Se234  1  0.59115145  0.74814657  0.70071381  1
  Se  Se235  1  0.91625207  0.08228610  0.20077615  1
  Se  Se236  1  0.90827386  0.08705366  0.69079237  1
  Se  Se237  1  0.91720538  0.41779352  0.19627354  1
  Se  Se238  1  0.90776476  0.42781928  0.68630372  1
  Se  Se239  1  0.91492538  0.74671724  0.18923423  1
  Se  Se240  1  0.91862998  0.74662446  0.69634484  1
  Se  Se241  1  0.08864754  0.24696043  0.19939745  1
  Se  Se242  1  0.08143137  0.23699844  0.69334341  1
  Se  Se243  1  0.08331115  0.58393196  0.19723059  1
  Se  Se244  1  0.06979431  0.60294823  0.70448245  1
  Se  Se245  1  0.07778899  0.91638988  0.19325957  1
  Se  Se246  1  0.09432552  0.91039930  0.69311954  1
  Se  Se247  1  0.41938494  0.24783641  0.19471173  1
  Se  Se248  1  0.39298981  0.25684839  0.69293628  1
  Se  Se249  1  0.41819858  0.58167641  0.19617975  1
  Se  Se250  1  0.41757057  0.57894376  0.71256348  1
  Se  Se251  1  0.40777070  0.91782517  0.20077062  1
  Se  Se252  1  0.43130494  0.91294427  0.69098366  1
  Se  Se253  1  0.74940217  0.25629364  0.19773965  1
  Se  Se254  1  0.74675323  0.25717933  0.69362065  1
  Se  Se255  1  0.74746454  0.58440098  0.18878418  1
  Se  Se256  1  0.74822894  0.58498954  0.69734568  1
  Se  Se257  1  0.74651942  0.91667208  0.19798100  1
  Se  Se258  1  0.76345752  0.90547720  0.69226962  1
