# generated using pymatgen
data_In86Cu29Se144
_symmetry_space_group_name_H-M   'P 1'
_cell_length_a   17.57696719
_cell_length_b   17.57713186
_cell_length_c   23.44206252
_cell_angle_alpha   89.99432011
_cell_angle_beta   90.01307337
_cell_angle_gamma   89.99111887
_symmetry_Int_Tables_number   1
_chemical_formula_structural   In86Cu29Se144
_chemical_formula_sum   'In86 Cu29 Se144'
_cell_volume   7242.48749336
_cell_formula_units_Z   1
loop_
 _symmetry_equiv_pos_site_id
 _symmetry_equiv_pos_as_xyz
  1  'x, y, z'
loop_
 _atom_site_type_symbol
 _atom_site_label
 _atom_site_symmetry_multiplicity
 _atom_site_fract_x
 _atom_site_fract_y
 _atom_site_fract_z
 _atom_site_occupancy
  In  In0  1  -0.01139177  0.15002759  0.12449260  1
  In  In1  1  0.00245677  0.16843983  0.61438930  1
  In  In2  1  -0.00399320  0.51258672  0.13241491  1
  In  In3  1  -0.00825303  0.48618196  0.60007804  1
  In  In4  1  -0.00097439  0.83425261  0.12730997  1
  In  In5  1  0.00007132  0.83472565  0.61593887  1
  In  In6  1  0.32846775  0.18367062  0.12813469  1
  In  In7  1  0.33037883  0.16057291  0.62795682  1
  In  In8  1  0.32782705  0.49975895  0.13371187  1
  In  In9  1  0.31726466  0.49982318  0.62026037  1
  In  In10  1  0.32250872  0.81911269  0.10774287  1
  In  In11  1  0.33353247  0.85305454  0.62784659  1
  In  In12  1  0.67105860  0.15383779  0.12500624  1
  In  In13  1  0.66620319  0.15986276  0.62163443  1
  In  In14  1  0.68357642  0.49917919  0.12406686  1
  In  In15  1  0.67677835  0.50508036  0.62472919  1
  In  In16  1  0.65881748  0.82586336  0.11763763  1
  In  In17  1  0.66743999  0.82761184  0.63757322  1
  In  In18  1  0.15654082  0.01183447  0.38198251  1
  In  In19  1  0.16813089  -0.00136379  0.87773612  1
  In  In20  1  0.16787198  0.31954547  0.38751491  1
  In  In21  1  0.16251920  0.32229113  0.87223247  1
  In  In22  1  0.16578187  0.67148730  0.37211492  1
  In  In23  1  0.17902577  0.67913556  0.88131113  1
  In  In24  1  0.51113908  0.00499120  0.37825993  1
  In  In25  1  0.49246197  -0.01237645  0.86223505  1
  In  In26  1  0.48873099  0.32749866  0.37313900  1
  In  In27  1  0.48724631  0.33873556  0.86862415  1
  In  In28  1  0.50395907  0.67174356  0.36100918  1
  In  In29  1  0.50904513  0.66358755  0.87610908  1
  In  In30  1  0.83660973  -0.01208221  0.37891616  1
  In  In31  1  0.82174043  0.00711807  0.87759399  1
  In  In32  1  0.85023451  0.32713647  0.39308662  1
  In  In33  1  0.83942162  0.32619739  0.88241188  1
  In  In34  1  0.83582531  0.66900521  0.37212345  1
  In  In35  1  0.82385795  0.67915239  0.88603893  1
  In  In36  1  0.00184603  0.15980721  0.37917504  1
  In  In37  1  0.00260662  0.16310324  0.87958470  1
  In  In38  1  -0.00950824  0.50878128  0.38212477  1
  In  In39  1  -0.00252656  0.48723252  0.87975978  1
  In  In40  1  0.00074474  0.83497914  0.37099085  1
  In  In41  1  0.00092513  0.83324088  0.88621469  1
  In  In42  1  0.32880472  0.17079999  0.38013993  1
  In  In43  1  0.32175880  0.15489162  0.86321856  1
  In  In44  1  0.32418080  0.49328215  0.36950833  1
  In  In45  1  0.33938401  0.50360541  0.87112836  1
  In  In46  1  0.33511595  0.82210706  0.37018538  1
  In  In47  1  0.32243478  0.84128586  0.88895103  1
  In  In48  1  0.66878662  0.16865770  0.38458395  1
  In  In49  1  0.68478954  0.15281357  0.87288065  1
  In  In50  1  0.67324699  0.51339981  0.37307730  1
  In  In51  1  0.66844660  0.51086547  0.87344661  1
  In  In52  1  0.67901010  0.83430799  0.37303360  1
  In  In53  1  0.66796021  0.83549082  0.87509324  1
  In  In54  1  0.15748606  -0.00873684  0.12105718  1
  In  In55  1  0.17466553  0.00716961  0.61835521  1
  In  In56  1  0.17725932  0.33229449  0.12949445  1
  In  In57  1  0.16766639  0.33358070  0.61722431  1
  In  In58  1  0.16253572  0.67086639  0.13262299  1
  In  In59  1  0.16171874  0.66128336  0.61289422  1
  In  In60  1  0.51095212  -0.00446056  0.12184377  1
  In  In61  1  0.48954658  0.00316463  0.63775668  1
  In  In62  1  0.48169137  0.32656019  0.13112818  1
  In  In63  1  0.49712496  0.31413032  0.62300107  1
  In  In64  1  0.49027872  0.67495603  0.13025366  1
  In  In65  1  0.51004083  0.68447789  0.62962082  1
  In  In66  1  0.84659221  0.00790607  0.12094261  1
  In  In67  1  0.83337913  -0.00455973  0.62112610  1
  In  In68  1  0.83076503  0.32651653  0.12067335  1
  In  In69  1  0.83074330  0.32881725  0.61237989  1
  In  In70  1  0.83363750  0.66735283  0.12701176  1
  In  In71  1  0.82571652  0.66412712  0.62278949  1
  In  In72  1  0.50234855  0.16582140  0.00202600  1
  In  In73  1  -0.00411998  0.32566561  0.73634908  1
  In  In74  1  0.50349159  0.50439450  -0.00681275  1
  In  In75  1  0.00283565  0.00488923  0.75124509  1
  In  In76  1  0.50154627  0.49871554  0.48961369  1
  In  In77  1  0.49835078  0.84153209  0.50541394  1
  In  In78  1  0.66307541  0.32880907  0.74337956  1
  In  In79  1  0.33328748  -0.00065039  0.25113375  1
  In  In80  1  0.33692910  0.67210562  0.75175397  1
  In  In81  1  -0.00294087  0.66066386  0.75016079  1
  In  In82  1  0.66793993  0.33634018  0.25120604  1
  In  In83  1  0.15946503  0.50496127  0.00827686  1
  In  In84  1  0.00384771  0.33107155  0.26358597  1
  In  In85  1  0.66867677  -0.00146617  0.24609652  1
  Cu  Cu86  1  -0.00343252  -0.00565321  0.49794595  1
  Cu  Cu87  1  0.33233401  0.00643868  -0.00515841  1
  Cu  Cu88  1  0.16362901  0.49716454  0.73967856  1
  Cu  Cu89  1  0.00276011  -0.00185800  0.00036197  1
  Cu  Cu90  1  -0.00191376  0.66810230  0.00950224  1
  Cu  Cu91  1  0.16312150  0.16655826  0.25719767  1
  Cu  Cu92  1  0.17021039  0.50222593  0.25336748  1
  Cu  Cu93  1  0.67053083  0.00402561  0.50272990  1
  Cu  Cu94  1  0.67265752  0.66601378  -0.00011143  1
  Cu  Cu95  1  0.49738603  0.16668363  0.74884504  1
  Cu  Cu96  1  0.16325675  0.83437954  0.24682143  1
  Cu  Cu97  1  0.32557142  0.33370896  -0.00177846  1
  Cu  Cu98  1  -0.00419519  0.32799523  0.00257317  1
  Cu  Cu99  1  0.67018600  0.33275923  0.50369683  1
  Cu  Cu100  1  0.82689923  0.50487279  0.74927552  1
  Cu  Cu101  1  0.67184781  0.67259988  0.49939452  1
  Cu  Cu102  1  0.49696083  0.82852860  0.24085258  1
  Cu  Cu103  1  0.83580575  0.50204002  0.25341610  1
  Cu  Cu104  1  0.32921582  0.00547155  0.50315057  1
  Cu  Cu105  1  0.82900611  0.83489430  0.75305599  1
  Cu  Cu106  1  0.67237710  -0.00554257  -0.00156539  1
  Cu  Cu107  1  0.32714715  0.66870182  0.49473309  1
  Cu  Cu108  1  0.49968849  0.50144102  0.25175301  1
  Cu  Cu109  1  0.49641573  0.50219241  0.74945543  1
  Cu  Cu110  1  -0.00078565  0.67622723  0.49337543  1
  Cu  Cu111  1  0.17182626  0.83712566  0.75226709  1
  Cu  Cu112  1  0.67221692  0.32799418  0.00006414  1
  Cu  Cu113  1  0.33719016  0.32529102  0.50032825  1
  Cu  Cu114  1  0.83525960  0.82924956  0.24920087  1
  Se  Se115  1  0.08333493  0.08472149  0.05436472  1
  Se  Se116  1  0.08221352  0.07839208  0.55009998  1
  Se  Se117  1  0.07207791  0.40870769  0.06645842  1
  Se  Se118  1  0.10255783  0.42674643  0.54678078  1
  Se  Se119  1  0.08509478  0.75051726  0.05904837  1
  Se  Se120  1  0.08578535  0.75427527  0.54880666  1
  Se  Se121  1  0.40795277  0.08072808  0.06343831  1
  Se  Se122  1  0.41841659  0.07948024  0.55904076  1
  Se  Se123  1  0.40952212  0.41469440  0.05507386  1
  Se  Se124  1  0.41554398  0.41315597  0.55722540  1
  Se  Se125  1  0.43446139  0.76025953  0.05166997  1
  Se  Se126  1  0.40650139  0.74401848  0.55933995  1
  Se  Se127  1  0.75244164  0.08125182  0.05190929  1
  Se  Se128  1  0.75792588  0.08713031  0.55305959  1
  Se  Se129  1  0.75449168  0.41424849  0.05132939  1
  Se  Se130  1  0.74995940  0.42405073  0.55156663  1
  Se  Se131  1  0.75444514  0.74966355  0.05476486  1
  Se  Se132  1  0.74569230  0.75670335  0.55897819  1
  Se  Se133  1  0.24379988  0.24988242  0.05160230  1
  Se  Se134  1  0.25299369  0.24384058  0.55503105  1
  Se  Se135  1  0.25752838  0.59104825  0.06140461  1
  Se  Se136  1  0.24663604  0.58003070  0.54462633  1
  Se  Se137  1  0.25059553  0.92313553  0.05108545  1
  Se  Se138  1  0.24845787  0.91335937  0.55028101  1
  Se  Se139  1  0.58867230  0.25954539  0.06433404  1
  Se  Se140  1  0.58594369  0.24653972  0.55237234  1
  Se  Se141  1  0.59046519  0.58669295  0.06062337  1
  Se  Se142  1  0.58483308  0.59246783  0.55544107  1
  Se  Se143  1  0.58289001  0.91429193  0.04792055  1
  Se  Se144  1  0.59054507  0.92590554  0.56575414  1
  Se  Se145  1  0.91466615  0.24175126  0.05534351  1
  Se  Se146  1  0.93399794  0.26689567  0.55021361  1
  Se  Se147  1  0.91400557  0.58001809  0.05645249  1
  Se  Se148  1  0.91695027  0.59582337  0.55185268  1
  Se  Se149  1  0.91882025  0.91476901  0.05401658  1
  Se  Se150  1  0.91086918  0.91153691  0.54968422  1
  Se  Se151  1  0.06425428  0.25687643  0.44864038  1
  Se  Se152  1  0.08236008  0.25083855  0.94739806  1
  Se  Se153  1  0.08408096  0.59059811  0.44325068  1
  Se  Se154  1  0.07413176  0.59355000  0.94002510  1
  Se  Se155  1  0.08293854  0.91422600  0.44414471  1
  Se  Se156  1  0.08953623  0.91565723  0.94889193  1
  Se  Se157  1  0.42302896  0.24305276  0.44913366  1
  Se  Se158  1  0.40941014  0.25303710  0.94099670  1
  Se  Se159  1  0.41317853  0.59484654  0.43444937  1
  Se  Se160  1  0.40469407  0.59613990  0.94452792  1
  Se  Se161  1  0.40768913  0.92590802  0.43929991  1
  Se  Se162  1  0.42096725  0.92367400  0.94658640  1
  Se  Se163  1  0.75481816  0.24695843  0.45313001  1
  Se  Se164  1  0.75146143  0.24213360  0.94618685  1
  Se  Se165  1  0.75378344  0.58838937  0.44605237  1
  Se  Se166  1  0.75341029  0.57719584  0.94864353  1
  Se  Se167  1  0.74702687  0.91415501  0.44977013  1
  Se  Se168  1  0.75732319  0.91061097  0.94660606  1
  Se  Se169  1  0.24609049  0.08878405  0.44893824  1
  Se  Se170  1  0.24703144  0.09012266  0.94502510  1
  Se  Se171  1  0.25697681  0.41083534  0.44612326  1
  Se  Se172  1  0.24897105  0.42063464  0.94058459  1
  Se  Se173  1  0.24733309  0.75639187  0.44341881  1
  Se  Se174  1  0.24983976  0.75162072  0.95813629  1
  Se  Se175  1  0.58324130  0.08574351  0.45214369  1
  Se  Se176  1  0.58811219  0.07636463  0.94006023  1
  Se  Se177  1  0.59548278  0.40700870  0.43470423  1
  Se  Se178  1  0.59161219  0.40467851  0.93749340  1
  Se  Se179  1  0.58416109  0.74859678  0.44121204  1
  Se  Se180  1  0.58906808  0.74721273  0.94472341  1
  Se  Se181  1  0.91323019  0.07902224  0.44583912  1
  Se  Se182  1  0.91827524  0.07856959  0.94413677  1
  Se  Se183  1  0.91434670  0.42865012  0.45469416  1
  Se  Se184  1  0.91381703  0.41542143  0.95219056  1
  Se  Se185  1  0.91279862  0.75718683  0.44086421  1
  Se  Se186  1  0.91678829  0.75120291  0.95287190  1
  Se  Se187  1  0.24671098  0.25038900  0.30847593  1
  Se  Se188  1  0.26353520  0.26654997  0.80655174  1
  Se  Se189  1  0.25358156  0.58942960  0.30401640  1
  Se  Se190  1  0.23638469  0.57927457  0.80499557  1
  Se  Se191  1  0.24016708  0.91357197  0.31148242  1
  Se  Se192  1  0.25295141  0.91734259  0.80847985  1
  Se  Se193  1  0.58063341  0.24200493  0.30876897  1
  Se  Se194  1  0.57800205  0.24249183  0.81223183  1
  Se  Se195  1  0.58916336  0.58344269  0.29907400  1
  Se  Se196  1  0.58289749  0.58226408  0.80101063  1
  Se  Se197  1  0.57441688  0.90643897  0.30535502  1
  Se  Se198  1  0.61116734  0.94069908  0.80952653  1
  Se  Se199  1  0.90488470  0.23992614  0.31076120  1
  Se  Se200  1  0.91291054  0.24147467  0.80652257  1
  Se  Se201  1  0.92115149  0.58650802  0.30322813  1
  Se  Se202  1  0.90815266  0.57578593  0.81470195  1
  Se  Se203  1  0.91515436  0.91683464  0.30137125  1
  Se  Se204  1  0.91651902  0.90996692  0.81105964  1
  Se  Se205  1  0.07755624  0.08055778  0.30353845  1
  Se  Se206  1  0.09678575  0.09525867  0.80602178  1
  Se  Se207  1  0.09291335  0.42533728  0.31874064  1
  Se  Se208  1  0.08293541  0.41956315  0.80144697  1
  Se  Se209  1  0.08131440  0.75017521  0.30125182  1
  Se  Se210  1  0.08843827  0.75517359  0.80805188  1
  Se  Se211  1  0.42264776  0.08816755  0.31148415  1
  Se  Se212  1  0.41372334  0.07898455  0.79850678  1
  Se  Se213  1  0.41735687  0.41683921  0.30394869  1
  Se  Se214  1  0.40872075  0.41918595  0.79657323  1
  Se  Se215  1  0.41213105  0.74730072  0.29466709  1
  Se  Se216  1  0.41682849  0.75724641  0.81960599  1
  Se  Se217  1  0.75167456  0.08359995  0.31321273  1
  Se  Se218  1  0.75768322  0.08096510  0.79510323  1
  Se  Se219  1  0.76332440  0.41632299  0.31500752  1
  Se  Se220  1  0.75475535  0.41516990  0.80860968  1
  Se  Se221  1  0.74855052  0.74765045  0.30110543  1
  Se  Se222  1  0.74982475  0.74740754  0.80599065  1
  Se  Se223  1  0.24084436  0.08838922  0.19151680  1
  Se  Se224  1  0.26146694  0.06435484  0.69512999  1
  Se  Se225  1  0.25137859  0.41315043  0.20323340  1
  Se  Se226  1  0.24900995  0.41188179  0.69219674  1
  Se  Se227  1  0.25304609  0.75658381  0.19408869  1
  Se  Se228  1  0.24079080  0.75138716  0.68780113  1
  Se  Se229  1  0.57012961  0.09340575  0.19576407  1
  Se  Se230  1  0.58456758  0.08698433  0.69623051  1
  Se  Se231  1  0.57623765  0.42296236  0.18670697  1
  Se  Se232  1  0.57321772  0.42290978  0.68448721  1
  Se  Se233  1  0.58890509  0.74604373  0.19524548  1
  Se  Se234  1  0.57738254  0.75757175  0.70827079  1
  Se  Se235  1  0.91231882  0.08065314  0.20233976  1
  Se  Se236  1  0.91556207  0.09071917  0.68734495  1
  Se  Se237  1  0.91182093  0.41442525  0.19526057  1
  Se  Se238  1  0.90544765  0.42731519  0.68587383  1
  Se  Se239  1  0.92019469  0.74621467  0.19593517  1
  Se  Se240  1  0.91276527  0.75784445  0.69246679  1
  Se  Se241  1  0.08460936  0.24531149  0.19268883  1
  Se  Se242  1  0.09667097  0.23668218  0.68903180  1
  Se  Se243  1  0.08439799  0.58411626  0.20167027  1
  Se  Se244  1  0.07787248  0.57234281  0.68230092  1
  Se  Se245  1  0.07888951  0.92024928  0.19778553  1
  Se  Se246  1  0.08775081  0.91029683  0.69023136  1
  Se  Se247  1  0.41053529  0.24758206  0.20503491  1
  Se  Se248  1  0.41189269  0.24902952  0.69732755  1
  Se  Se249  1  0.41532122  0.58339938  0.19701937  1
  Se  Se250  1  0.41968179  0.58100455  0.68443550  1
  Se  Se251  1  0.41690550  0.91171569  0.18422781  1
  Se  Se252  1  0.43748922  0.89056064  0.69812137  1
  Se  Se253  1  0.75552705  0.23939735  0.19488275  1
  Se  Se254  1  0.76083284  0.24364135  0.68920799  1
  Se  Se255  1  0.75196073  0.58303832  0.19855685  1
  Se  Se256  1  0.74425239  0.59128698  0.69917722  1
  Se  Se257  1  0.75605440  0.90838979  0.18534216  1
  Se  Se258  1  0.75340337  0.92048561  0.69620234  1
