# generated using pymatgen
data_In86Cu29Se144
_symmetry_space_group_name_H-M   'P 1'
_cell_length_a   17.57633195
_cell_length_b   17.57750293
_cell_length_c   23.43999714
_cell_angle_alpha   89.99579825
_cell_angle_beta   89.96491301
_cell_angle_gamma   89.98149553
_symmetry_Int_Tables_number   1
_chemical_formula_structural   In86Cu29Se144
_chemical_formula_sum   'In86 Cu29 Se144'
_cell_volume   7241.73909601
_cell_formula_units_Z   1
loop_
 _symmetry_equiv_pos_site_id
 _symmetry_equiv_pos_as_xyz
  1  'x, y, z'
loop_
 _atom_site_type_symbol
 _atom_site_label
 _atom_site_symmetry_multiplicity
 _atom_site_fract_x
 _atom_site_fract_y
 _atom_site_fract_z
 _atom_site_occupancy
  In  In0  1  0.02084554  0.15217104  0.14198890  1
  In  In1  1  0.00561011  0.16743179  0.62330037  1
  In  In2  1  -0.00077229  0.50276886  0.12860445  1
  In  In3  1  -0.00286809  0.51223575  0.61937861  1
  In  In4  1  -0.00356916  0.83400211  0.12136207  1
  In  In5  1  -0.00375758  0.84458546  0.61855153  1
  In  In6  1  0.33471557  0.16750799  0.11870779  1
  In  In7  1  0.38228716  0.16291974  0.63818928  1
  In  In8  1  0.33596744  0.51815297  0.12679702  1
  In  In9  1  0.33566846  0.49655063  0.62914056  1
  In  In10  1  0.32505420  0.82923918  0.11982157  1
  In  In11  1  0.33802751  0.82352372  0.62561974  1
  In  In12  1  0.65048188  0.15689727  0.12452456  1
  In  In13  1  0.64329125  0.16558120  0.63019357  1
  In  In14  1  0.68346566  0.50082924  0.12219986  1
  In  In15  1  0.67363352  0.51631253  0.61692277  1
  In  In16  1  0.66713306  0.83249638  0.12714180  1
  In  In17  1  0.66373106  0.83328272  0.62321368  1
  In  In18  1  0.16003149  0.00433074  0.36443109  1
  In  In19  1  0.16644271  0.00011808  0.89576641  1
  In  In20  1  0.16408845  0.33472118  0.36525683  1
  In  In21  1  0.18066581  0.32662213  0.88850706  1
  In  In22  1  0.16980179  0.67103408  0.36131764  1
  In  In23  1  0.17302841  0.65961774  0.88477389  1
  In  In24  1  0.50022387  -0.01220322  0.38301029  1
  In  In25  1  0.50456793  -0.00792912  0.88061959  1
  In  In26  1  0.50033120  0.33439996  0.38359597  1
  In  In27  1  0.49080892  0.33525242  0.87332100  1
  In  In28  1  0.50236888  0.66707295  0.37259591  1
  In  In29  1  0.51071504  0.67334273  0.86661622  1
  In  In30  1  0.82393132  -0.00818968  0.36349529  1
  In  In31  1  0.81887624  -0.00356896  0.87810861  1
  In  In32  1  0.84009150  0.33608373  0.37024744  1
  In  In33  1  0.84130409  0.32989282  0.88166426  1
  In  In34  1  0.82974579  0.66992435  0.37292836  1
  In  In35  1  0.82498981  0.67077565  0.88257830  1
  In  In36  1  0.00326047  0.16689794  0.34875456  1
  In  In37  1  0.00372546  0.17034189  0.88396479  1
  In  In38  1  -0.00818143  0.49696600  0.36782738  1
  In  In39  1  -0.00296926  0.50439442  0.88981829  1
  In  In40  1  -0.00911082  0.82226141  0.36049861  1
  In  In41  1  -0.00114307  0.83574870  0.89506030  1
  In  In42  1  0.33402478  0.16583120  0.37742676  1
  In  In43  1  0.33303205  0.17089333  0.88222852  1
  In  In44  1  0.33617444  0.50633957  0.37712445  1
  In  In45  1  0.33262797  0.49686438  0.87193160  1
  In  In46  1  0.35025613  0.82678113  0.38232801  1
  In  In47  1  0.34445478  0.82728197  0.88069812  1
  In  In48  1  0.65657301  0.15571979  0.36834956  1
  In  In49  1  0.66931183  0.15009675  0.87369438  1
  In  In50  1  0.65089807  0.51337762  0.38496543  1
  In  In51  1  0.66008526  0.51186178  0.87668671  1
  In  In52  1  0.66933153  0.83661254  0.37344076  1
  In  In53  1  0.66536386  0.82701629  0.87812040  1
  In  In54  1  0.15760309  -0.00119435  0.11230940  1
  In  In55  1  0.16194654  0.00234431  0.62944586  1
  In  In56  1  0.15248689  0.32228669  0.11947268  1
  In  In57  1  0.17776866  0.34558926  0.62764103  1
  In  In58  1  0.16663232  0.66561576  0.12524111  1
  In  In59  1  0.17480490  0.67349113  0.62933818  1
  In  In60  1  0.51321338  0.00753241  0.12419486  1
  In  In61  1  0.50646218  0.01296038  0.60993681  1
  In  In62  1  0.50854341  0.31617107  0.12217442  1
  In  In63  1  0.49290915  0.32791061  0.62290572  1
  In  In64  1  0.49153422  0.67758484  0.13502977  1
  In  In65  1  0.49746287  0.67394138  0.61897974  1
  In  In66  1  0.84613018  -0.01771555  0.12810840  1
  In  In67  1  0.82432872  -0.01969449  0.61861155  1
  In  In68  1  0.83325632  0.35166000  0.11956413  1
  In  In69  1  0.82267446  0.34091876  0.62281594  1
  In  In70  1  0.83270565  0.67034455  0.12701216  1
  In  In71  1  0.82382019  0.66066005  0.61305806  1
  In  In72  1  0.50193655  0.49784346  -0.00212239  1
  In  In73  1  0.33303103  -0.00492049  0.24990495  1
  In  In74  1  0.82427370  0.16395312  0.48485549  1
  In  In75  1  0.33794827  -0.00224168  0.75217873  1
  In  In76  1  0.00183981  0.33457924  0.76622067  1
  In  In77  1  0.16693319  0.50011942  0.50119811  1
  In  In78  1  0.17285876  0.83169078  0.49859550  1
  In  In79  1  0.32642999  0.33016723  0.24371299  1
  In  In80  1  0.84064569  0.16372867  0.00651470  1
  In  In81  1  0.66902238  0.33799152  0.24812637  1
  In  In82  1  0.17305512  0.17062717  0.49125490  1
  In  In83  1  0.00132920  0.66980047  0.74846667  1
  In  In84  1  -0.00416974  0.00041495  0.76737079  1
  In  In85  1  0.65995665  0.33718675  0.75299969  1
  Cu  Cu86  1  0.83168557  0.51050193  0.24973001  1
  Cu  Cu87  1  -0.00272569  0.33769271  0.00632053  1
  Cu  Cu88  1  0.18176922  0.49983336  0.75834397  1
  Cu  Cu89  1  -0.01341326  0.33319406  0.49164776  1
  Cu  Cu90  1  0.16746451  0.83260791  0.23999988  1
  Cu  Cu91  1  0.33325959  0.67122856  0.00149282  1
  Cu  Cu92  1  0.66575470  0.67698134  0.49605641  1
  Cu  Cu93  1  0.66827843  0.00034266  0.49401965  1
  Cu  Cu94  1  0.33648244  0.32488478  0.50394155  1
  Cu  Cu95  1  0.50187431  0.51025162  0.74484059  1
  Cu  Cu96  1  0.66690233  -0.00881396  0.00102083  1
  Cu  Cu97  1  0.83418478  0.50133959  0.74713032  1
  Cu  Cu98  1  0.16852653  0.83038362  0.75784003  1
  Cu  Cu99  1  -0.00157864  0.66353845  0.00975652  1
  Cu  Cu100  1  0.50635362  0.83456295  0.25410302  1
  Cu  Cu101  1  0.16207351  0.49922531  0.24717556  1
  Cu  Cu102  1  -0.00652470  -0.00410397  0.48950925  1
  Cu  Cu103  1  0.34011439  0.00108705  0.00452710  1
  Cu  Cu104  1  0.50269328  0.50132486  0.25168980  1
  Cu  Cu105  1  -0.00585282  0.66746938  0.49142784  1
  Cu  Cu106  1  0.66449548  0.66653448  0.00207351  1
  Cu  Cu107  1  0.82504222  0.14751876  0.74527717  1
  Cu  Cu108  1  0.83067592  0.16900350  0.24337528  1
  Cu  Cu109  1  0.66516127  0.34057182  0.50498188  1
  Cu  Cu110  1  0.18119756  0.17881945  0.75549986  1
  Cu  Cu111  1  0.82010205  0.82378107  0.74887560  1
  Cu  Cu112  1  0.33267894  0.33960629  0.00080017  1
  Cu  Cu113  1  0.83211455  0.83371819  0.24689430  1
  Cu  Cu114  1  0.50562382  0.83145204  0.75031500  1
  Se  Se115  1  0.08256053  0.09733419  0.05216923  1
  Se  Se116  1  0.07548909  0.07469304  0.54967630  1
  Se  Se117  1  0.08242406  0.42246269  0.05639988  1
  Se  Se118  1  0.07177115  0.40462833  0.55691801  1
  Se  Se119  1  0.08507915  0.74931128  0.05635042  1
  Se  Se120  1  0.07511617  0.74058385  0.55736083  1
  Se  Se121  1  0.42449798  0.08548862  0.05562368  1
  Se  Se122  1  0.40286965  0.08178382  0.55018380  1
  Se  Se123  1  0.41336540  0.41227417  0.06512102  1
  Se  Se124  1  0.41270792  0.41580781  0.55569841  1
  Se  Se125  1  0.41920637  0.75059126  0.05523757  1
  Se  Se126  1  0.41435220  0.75432474  0.54889797  1
  Se  Se127  1  0.74777260  0.07172443  0.06232732  1
  Se  Se128  1  0.74357224  0.08378782  0.55938654  1
  Se  Se129  1  0.73813228  0.40805933  0.04812172  1
  Se  Se130  1  0.75397417  0.42497744  0.55007966  1
  Se  Se131  1  0.74819064  0.74983105  0.05588308  1
  Se  Se132  1  0.75099860  0.75761239  0.55095202  1
  Se  Se133  1  0.25064236  0.25372375  0.05394227  1
  Se  Se134  1  0.25541927  0.24818274  0.56513761  1
  Se  Se135  1  0.25088441  0.58549644  0.05265335  1
  Se  Se136  1  0.25638095  0.59140787  0.55793502  1
  Se  Se137  1  0.25084577  0.91739333  0.05075577  1
  Se  Se138  1  0.25241727  0.92436596  0.56359265  1
  Se  Se139  1  0.58783404  0.24390356  0.04929960  1
  Se  Se140  1  0.58292833  0.25253599  0.55360149  1
  Se  Se141  1  0.58291758  0.58905491  0.06395198  1
  Se  Se142  1  0.58387078  0.59174259  0.55007152  1
  Se  Se143  1  0.58126312  0.91196979  0.05643210  1
  Se  Se144  1  0.58647345  0.91808948  0.55085259  1
  Se  Se145  1  0.92605541  0.25268058  0.06904534  1
  Se  Se146  1  0.91353606  0.25002451  0.55527311  1
  Se  Se147  1  0.91133916  0.58041440  0.05918492  1
  Se  Se148  1  0.91392163  0.58158858  0.54586483  1
  Se  Se149  1  0.91495765  0.91139362  0.04825300  1
  Se  Se150  1  0.91196409  0.91291316  0.54414055  1
  Se  Se151  1  0.07033857  0.25447412  0.43447719  1
  Se  Se152  1  0.08204965  0.25481578  0.95182324  1
  Se  Se153  1  0.08120320  0.58835833  0.43606004  1
  Se  Se154  1  0.08528385  0.58410022  0.95419092  1
  Se  Se155  1  0.07841041  0.91472697  0.43455473  1
  Se  Se156  1  0.08100031  0.91915154  0.95977053  1
  Se  Se157  1  0.41793144  0.24397266  0.44681139  1
  Se  Se158  1  0.41771909  0.25634933  0.94926710  1
  Se  Se159  1  0.42854180  0.57580553  0.44181854  1
  Se  Se160  1  0.41599062  0.59249312  0.93900557  1
  Se  Se161  1  0.41173610  0.91728679  0.45383081  1
  Se  Se162  1  0.41984286  0.91404230  0.95063410  1
  Se  Se163  1  0.73354391  0.26312525  0.43368034  1
  Se  Se164  1  0.74728524  0.24542158  0.94141693  1
  Se  Se165  1  0.74889201  0.58968011  0.44544249  1
  Se  Se166  1  0.74702044  0.58033971  0.95013361  1
  Se  Se167  1  0.75452719  0.91909076  0.44384263  1
  Se  Se168  1  0.75027999  0.90723365  0.94920109  1
  Se  Se169  1  0.25424999  0.06524167  0.44005790  1
  Se  Se170  1  0.25576501  0.08818183  0.95388240  1
  Se  Se171  1  0.25454940  0.40261142  0.44158388  1
  Se  Se172  1  0.25262773  0.42757131  0.94966887  1
  Se  Se173  1  0.25582875  0.73394907  0.44149231  1
  Se  Se174  1  0.24977450  0.75518726  0.94762754  1
  Se  Se175  1  0.58086522  0.08461500  0.44595291  1
  Se  Se176  1  0.58703877  0.07828503  0.94833079  1
  Se  Se177  1  0.57745277  0.42070779  0.45191964  1
  Se  Se178  1  0.59260299  0.40653536  0.93948238  1
  Se  Se179  1  0.58204022  0.75580176  0.44053569  1
  Se  Se180  1  0.57929168  0.74668940  0.94775920  1
  Se  Se181  1  0.92522222  0.08294739  0.42781652  1
  Se  Se182  1  0.92253805  0.07047302  0.94157174  1
  Se  Se183  1  0.90854754  0.42393377  0.44348096  1
  Se  Se184  1  0.91112998  0.41756315  0.95277990  1
  Se  Se185  1  0.91431974  0.75574899  0.44128527  1
  Se  Se186  1  0.91415844  0.74277337  0.95264205  1
  Se  Se187  1  0.24146690  0.23348771  0.30409363  1
  Se  Se188  1  0.26169363  0.26125395  0.80948166  1
  Se  Se189  1  0.25019149  0.57440497  0.30297090  1
  Se  Se190  1  0.25718988  0.59356030  0.80770294  1
  Se  Se191  1  0.24529242  0.90063493  0.31099993  1
  Se  Se192  1  0.24288117  0.91712075  0.81683653  1
  Se  Se193  1  0.57339655  0.25113200  0.30579668  1
  Se  Se194  1  0.57782972  0.24083044  0.81077309  1
  Se  Se195  1  0.58693526  0.58601585  0.30151992  1
  Se  Se196  1  0.59035406  0.58657558  0.79800361  1
  Se  Se197  1  0.58490268  0.92251155  0.30608675  1
  Se  Se198  1  0.58463053  0.91214430  0.80867143  1
  Se  Se199  1  0.91146557  0.25734689  0.29425733  1
  Se  Se200  1  0.90391577  0.22957705  0.80730253  1
  Se  Se201  1  0.91758497  0.59125537  0.30315016  1
  Se  Se202  1  0.91434154  0.57851008  0.81015298  1
  Se  Se203  1  0.91841320  0.92019596  0.29696007  1
  Se  Se204  1  0.90467591  0.89744015  0.81304229  1
  Se  Se205  1  0.08478743  0.07691697  0.28876113  1
  Se  Se206  1  0.09932433  0.09440759  0.81373586  1
  Se  Se207  1  0.07879016  0.41611079  0.30021679  1
  Se  Se208  1  0.09427465  0.42779868  0.81984159  1
  Se  Se209  1  0.08321491  0.74813180  0.29368874  1
  Se  Se210  1  0.08349551  0.75540065  0.81713552  1
  Se  Se211  1  0.42210325  0.08303663  0.31152563  1
  Se  Se212  1  0.42288327  0.08740554  0.81468375  1
  Se  Se213  1  0.42074182  0.41638292  0.30585006  1
  Se  Se214  1  0.42440817  0.42655713  0.80223232  1
  Se  Se215  1  0.41806769  0.75069016  0.30271479  1
  Se  Se216  1  0.41697918  0.75162796  0.80239662  1
  Se  Se217  1  0.74981309  0.08831174  0.30006442  1
  Se  Se218  1  0.74222005  0.06651180  0.79898131  1
  Se  Se219  1  0.75017865  0.43113907  0.31155260  1
  Se  Se220  1  0.75987670  0.42033803  0.81131815  1
  Se  Se221  1  0.74939205  0.75301788  0.30281352  1
  Se  Se222  1  0.74348675  0.74016598  0.80610203  1
  Se  Se223  1  0.24724943  0.08203241  0.18523658  1
  Se  Se224  1  0.24982894  0.09417383  0.69013535  1
  Se  Se225  1  0.24213510  0.42400256  0.18361680  1
  Se  Se226  1  0.25918895  0.41394880  0.70307733  1
  Se  Se227  1  0.25484752  0.74574684  0.19481123  1
  Se  Se228  1  0.25248902  0.75269159  0.70150996  1
  Se  Se229  1  0.58321377  0.08208003  0.20384367  1
  Se  Se230  1  0.56905468  0.07792433  0.69668984  1
  Se  Se231  1  0.57593712  0.42468993  0.18606264  1
  Se  Se232  1  0.58244640  0.42767073  0.68480233  1
  Se  Se233  1  0.58785631  0.74938453  0.19982991  1
  Se  Se234  1  0.58392403  0.74777567  0.69200650  1
  Se  Se235  1  0.91351482  0.08065301  0.19548378  1
  Se  Se236  1  0.91619720  0.07708616  0.68701237  1
  Se  Se237  1  0.91088862  0.42186663  0.19724364  1
  Se  Se238  1  0.91859004  0.41969559  0.69212303  1
  Se  Se239  1  0.91832691  0.75174154  0.19487189  1
  Se  Se240  1  0.91036883  0.75682194  0.68652153  1
  Se  Se241  1  0.08292857  0.25777852  0.20285457  1
  Se  Se242  1  0.08917505  0.24908042  0.69688180  1
  Se  Se243  1  0.08183934  0.58731711  0.19645884  1
  Se  Se244  1  0.09630224  0.57157347  0.69471872  1
  Se  Se245  1  0.08568931  0.91688749  0.18809411  1
  Se  Se246  1  0.08382324  0.90944685  0.70020948  1
  Se  Se247  1  0.42473660  0.23726444  0.19567003  1
  Se  Se248  1  0.41979233  0.26745379  0.70748372  1
  Se  Se249  1  0.41608248  0.58660668  0.20339071  1
  Se  Se250  1  0.41666711  0.58938260  0.69056898  1
  Se  Se251  1  0.42378522  0.90844067  0.18852025  1
  Se  Se252  1  0.42709229  0.91254668  0.68907870  1
  Se  Se253  1  0.75230522  0.24807892  0.18264444  1
  Se  Se254  1  0.75278111  0.24245849  0.69154664  1
  Se  Se255  1  0.74528403  0.58973900  0.19696944  1
  Se  Se256  1  0.75467792  0.58667985  0.69401306  1
  Se  Se257  1  0.74740513  0.91900477  0.19631712  1
  Se  Se258  1  0.74458374  0.91525831  0.69688331  1
