# generated using pymatgen
data_In86Cu29Se144
_symmetry_space_group_name_H-M   'P 1'
_cell_length_a   17.59169376
_cell_length_b   17.59634520
_cell_length_c   23.46310868
_cell_angle_alpha   90.01338463
_cell_angle_beta   89.98802594
_cell_angle_gamma   90.01970054
_symmetry_Int_Tables_number   1
_chemical_formula_structural   In86Cu29Se144
_chemical_formula_sum   'In86 Cu29 Se144'
_cell_volume   7262.99314978
_cell_formula_units_Z   1
loop_
 _symmetry_equiv_pos_site_id
 _symmetry_equiv_pos_as_xyz
  1  'x, y, z'
loop_
 _atom_site_type_symbol
 _atom_site_label
 _atom_site_symmetry_multiplicity
 _atom_site_fract_x
 _atom_site_fract_y
 _atom_site_fract_z
 _atom_site_occupancy
  In  In0  1  0.00685185  0.18205263  0.11764590  1
  In  In1  1  -0.00274799  0.16154818  0.62868113  1
  In  In2  1  0.00092128  0.50064656  0.12493284  1
  In  In3  1  -0.01237615  0.51398381  0.62961999  1
  In  In4  1  -0.01284954  0.83743503  0.12388971  1
  In  In5  1  -0.00009784  0.84290380  0.63251560  1
  In  In6  1  0.33225287  0.16759373  0.12353474  1
  In  In7  1  0.32943687  0.16259823  0.61936383  1
  In  In8  1  0.32850593  0.51649623  0.12385970  1
  In  In9  1  0.33140819  0.51231646  0.62351759  1
  In  In10  1  0.33060172  0.81881569  0.12081731  1
  In  In11  1  0.31672935  0.83786541  0.62927906  1
  In  In12  1  0.66867786  0.16060883  0.11897787  1
  In  In13  1  0.66864649  0.15486082  0.62088152  1
  In  In14  1  0.68567659  0.50048736  0.12482999  1
  In  In15  1  0.68075950  0.49227060  0.62322761  1
  In  In16  1  0.66339185  0.83064483  0.11940168  1
  In  In17  1  0.68034607  0.83621854  0.62584418  1
  In  In18  1  0.15591894  0.00287766  0.38603776  1
  In  In19  1  0.16957596  0.01037375  0.87383195  1
  In  In20  1  0.15413499  0.33371646  0.37331147  1
  In  In21  1  0.15704478  0.34132965  0.88150592  1
  In  In22  1  0.16121156  0.66563385  0.37174589  1
  In  In23  1  0.15279084  0.66168754  0.86618478  1
  In  In24  1  0.50629844  0.00799149  0.37668241  1
  In  In25  1  0.51180770  -0.01197734  0.87893150  1
  In  In26  1  0.49687210  0.32241614  0.37401444  1
  In  In27  1  0.48763188  0.32601704  0.87908395  1
  In  In28  1  0.49518007  0.66135558  0.36452415  1
  In  In29  1  0.50357942  0.68971605  0.87470667  1
  In  In30  1  0.83299564  -0.00641606  0.39002217  1
  In  In31  1  0.83249156  0.00205141  0.86699973  1
  In  In32  1  0.84343841  0.32144249  0.37899263  1
  In  In33  1  0.85147162  0.31707896  0.88129739  1
  In  In34  1  0.83431067  0.66567404  0.37624765  1
  In  In35  1  0.84190693  0.66228869  0.88111482  1
  In  In36  1  -0.00419844  0.16841519  0.37774577  1
  In  In37  1  -0.00497487  0.16954262  0.86785588  1
  In  In38  1  -0.00461987  0.49838866  0.37204549  1
  In  In39  1  -0.00055446  0.49937218  0.87398474  1
  In  In40  1  0.00221511  0.82241818  0.38893799  1
  In  In41  1  -0.00674138  0.82044568  0.86731388  1
  In  In42  1  0.33408247  0.16150859  0.38108680  1
  In  In43  1  0.32954930  0.16617373  0.88629076  1
  In  In44  1  0.32057673  0.50576010  0.37061439  1
  In  In45  1  0.31557400  0.49929501  0.88074373  1
  In  In46  1  0.32992383  0.81775439  0.37455786  1
  In  In47  1  0.34831852  0.83774917  0.87070500  1
  In  In48  1  0.66960464  0.15858887  0.38396174  1
  In  In49  1  0.68456924  0.14510697  0.88128150  1
  In  In50  1  0.66486748  0.51211395  0.37169456  1
  In  In51  1  0.67802534  0.51010508  0.87991684  1
  In  In52  1  0.68618686  0.83150928  0.38053617  1
  In  In53  1  0.65986701  0.84949913  0.87562295  1
  In  In54  1  0.15637328  0.01452914  0.12189574  1
  In  In55  1  0.15061404  -0.01698150  0.61891329  1
  In  In56  1  0.14859287  0.32243327  0.12019443  1
  In  In57  1  0.16112982  0.31827688  0.62240456  1
  In  In58  1  0.17227308  0.66106257  0.12685183  1
  In  In59  1  0.13587956  0.70319524  0.65526820  1
  In  In60  1  0.50745278  0.00400170  0.11738655  1
  In  In61  1  0.49746748  0.01312375  0.62896322  1
  In  In62  1  0.50477353  0.32257564  0.12304134  1
  In  In63  1  0.51586777  0.32483067  0.62590729  1
  In  In64  1  0.49489423  0.67647245  0.12650499  1
  In  In65  1  0.49216634  0.67189527  0.63040394  1
  In  In66  1  0.83074274  -0.00289136  0.11493144  1
  In  In67  1  0.83908909  0.00414245  0.62926723  1
  In  In68  1  0.84451209  0.34543064  0.11729964  1
  In  In69  1  0.84323526  0.33682320  0.62096307  1
  In  In70  1  0.83862381  0.66856832  0.12658490  1
  In  In71  1  0.86436463  0.69521223  0.59822746  1
  In  In72  1  0.50367326  0.83911227  0.49672012  1
  In  In73  1  0.16124957  0.50159564  0.49558228  1
  In  In74  1  0.67496671  0.66985462  0.74408264  1
  In  In75  1  0.50272342  0.49992878  0.00609162  1
  In  In76  1  0.32591831  0.33381647  0.74889971  1
  In  In77  1  0.66757440  -0.00347826  0.25534410  1
  In  In78  1  0.33047257  0.33776080  0.24775760  1
  In  In79  1  0.67315106  0.33374337  0.25280243  1
  In  In80  1  0.32981599  -0.00055156  0.75090286  1
  In  In81  1  0.67411729  0.33039801  0.75037881  1
  In  In82  1  0.50448521  0.49320737  0.49882139  1
  In  In83  1  -0.00287231  -0.00001962  0.25355445  1
  In  In84  1  0.33196276  -0.00502704  0.24696778  1
  In  In85  1  0.16674781  0.83359791  -0.00750058  1
  Cu  Cu86  1  0.33938456  0.32451516  0.50120827  1
  Cu  Cu87  1  0.00189410  0.66259477  -0.00118850  1
  Cu  Cu88  1  0.83461050  0.82310863  0.25255617  1
  Cu  Cu89  1  0.00149965  0.32791512  0.50043307  1
  Cu  Cu90  1  0.15689018  0.16549892  0.74971202  1
  Cu  Cu91  1  0.84115898  0.17020222  0.24908734  1
  Cu  Cu92  1  0.67701313  0.67449726  -0.00002283  1
  Cu  Cu93  1  0.32615518  0.32765136  0.00235178  1
  Cu  Cu94  1  0.66711527  0.32884910  0.00158562  1
  Cu  Cu95  1  0.33546767  0.66717335  -0.00085221  1
  Cu  Cu96  1  0.32884301  0.00030504  0.50501797  1
  Cu  Cu97  1  0.32267659  0.66876219  0.50006201  1
  Cu  Cu98  1  0.16130800  0.49969594  0.75474851  1
  Cu  Cu99  1  -0.00983433  0.00493417  -0.00574067  1
  Cu  Cu100  1  0.33339718  0.00181942  -0.00093495  1
  Cu  Cu101  1  0.50183258  0.50632499  0.24451474  1
  Cu  Cu102  1  0.50508064  0.16337873  0.75433869  1
  Cu  Cu103  1  0.50119651  0.82583817  0.24696548  1
  Cu  Cu104  1  0.16510045  0.82817643  0.25305712  1
  Cu  Cu105  1  0.84131965  0.50606701  0.24817016  1
  Cu  Cu106  1  0.67008558  0.65970639  0.49883058  1
  Cu  Cu107  1  -0.00074091  -0.00068931  0.50817784  1
  Cu  Cu108  1  0.84086241  0.50381261  0.75006928  1
  Cu  Cu109  1  0.67523426  0.32419260  0.50331127  1
  Cu  Cu110  1  0.49771597  0.50855225  0.75309370  1
  Cu  Cu111  1  0.67087810  0.00135594  -0.00421074  1
  Cu  Cu112  1  0.16189791  0.50668831  0.24851672  1
  Cu  Cu113  1  -0.00318954  0.33480812  -0.00364851  1
  Cu  Cu114  1  0.83500386  0.83389364  0.74837714  1
  Se  Se115  1  0.07551735  0.08609953  0.04820034  1
  Se  Se116  1  0.08516559  0.08589916  0.55654110  1
  Se  Se117  1  0.08001018  0.41701812  0.05265363  1
  Se  Se118  1  0.07608711  0.41326604  0.56089258  1
  Se  Se119  1  0.08004511  0.74794056  0.05867011  1
  Se  Se120  1  0.07659707  0.75161462  0.56359030  1
  Se  Se121  1  0.41506528  0.08436157  0.05569408  1
  Se  Se122  1  0.41697502  0.08334807  0.55258408  1
  Se  Se123  1  0.40676607  0.40915820  0.06294153  1
  Se  Se124  1  0.41279770  0.40699493  0.56308318  1
  Se  Se125  1  0.42031181  0.75210433  0.04841599  1
  Se  Se126  1  0.40980241  0.74905548  0.55477750  1
  Se  Se127  1  0.75384352  0.08619070  0.04816152  1
  Se  Se128  1  0.76105573  0.08306973  0.55540982  1
  Se  Se129  1  0.75080100  0.41712778  0.04891041  1
  Se  Se130  1  0.75641041  0.41471385  0.54979005  1
  Se  Se131  1  0.75929805  0.75531973  0.05663241  1
  Se  Se132  1  0.74529986  0.75313448  0.54876699  1
  Se  Se133  1  0.24341187  0.24486765  0.05658937  1
  Se  Se134  1  0.24836042  0.24689226  0.55148199  1
  Se  Se135  1  0.24671851  0.58597359  0.04807188  1
  Se  Se136  1  0.24128466  0.59348255  0.56031746  1
  Se  Se137  1  0.25122460  0.92342992  0.06063335  1
  Se  Se138  1  0.24510240  0.91151785  0.55076319  1
  Se  Se139  1  0.58351441  0.24404242  0.05177744  1
  Se  Se140  1  0.58632793  0.24356704  0.55281767  1
  Se  Se141  1  0.59474339  0.59353526  0.06047633  1
  Se  Se142  1  0.58678136  0.58813242  0.56209020  1
  Se  Se143  1  0.58687251  0.91823832  0.05072476  1
  Se  Se144  1  0.58607643  0.92341889  0.56370930  1
  Se  Se145  1  0.91221149  0.25004312  0.04913579  1
  Se  Se146  1  0.91962581  0.24464156  0.55526726  1
  Se  Se147  1  0.91746110  0.58355976  0.05610023  1
  Se  Se148  1  0.90843104  0.57293309  0.54892154  1
  Se  Se149  1  0.91492009  0.91483057  0.04749205  1
  Se  Se150  1  0.91458333  0.91424168  0.55800013  1
  Se  Se151  1  0.08574525  0.24703225  0.44610549  1
  Se  Se152  1  0.07755070  0.24772466  0.94247716  1
  Se  Se153  1  0.06753948  0.59401152  0.44345537  1
  Se  Se154  1  0.08485980  0.58150435  0.94389388  1
  Se  Se155  1  0.08096691  0.91400492  0.45307405  1
  Se  Se156  1  0.07325805  0.92302991  0.93643015  1
  Se  Se157  1  0.42269101  0.24278387  0.44747977  1
  Se  Se158  1  0.41599985  0.24654823  0.95421539  1
  Se  Se159  1  0.40790312  0.58723214  0.44372155  1
  Se  Se160  1  0.41771237  0.58567132  0.93909880  1
  Se  Se161  1  0.40465727  0.92337957  0.43729646  1
  Se  Se162  1  0.41689212  0.91736684  0.94783430  1
  Se  Se163  1  0.75730051  0.24269682  0.44684591  1
  Se  Se164  1  0.74839008  0.25007757  0.94306765  1
  Se  Se165  1  0.75208695  0.57741845  0.44501444  1
  Se  Se166  1  0.75799912  0.58403225  0.95313140  1
  Se  Se167  1  0.72296282  0.93760641  0.44928893  1
  Se  Se168  1  0.75502738  0.91921971  0.94180625  1
  Se  Se169  1  0.24716201  0.08386862  0.44907388  1
  Se  Se170  1  0.24346990  0.08373627  0.95224849  1
  Se  Se171  1  0.25966410  0.40720932  0.44236069  1
  Se  Se172  1  0.24452430  0.41518370  0.95292387  1
  Se  Se173  1  0.23993184  0.74892523  0.44447686  1
  Se  Se174  1  0.25657122  0.74326483  0.93406246  1
  Se  Se175  1  0.58421213  0.07892959  0.45074408  1
  Se  Se176  1  0.58076474  0.08391360  0.94597442  1
  Se  Se177  1  0.59599658  0.40336972  0.43885676  1
  Se  Se178  1  0.58821290  0.41103348  0.94011897  1
  Se  Se179  1  0.58476557  0.73658667  0.43862373  1
  Se  Se180  1  0.59102378  0.75582320  0.94755250  1
  Se  Se181  1  0.92106817  0.08188438  0.44857457  1
  Se  Se182  1  0.91075563  0.08821485  0.93811575  1
  Se  Se183  1  0.92222207  0.41209083  0.44406855  1
  Se  Se184  1  0.91385427  0.42089404  0.94473079  1
  Se  Se185  1  0.89200320  0.76488785  0.44660295  1
  Se  Se186  1  0.92074772  0.75117108  0.94870834  1
  Se  Se187  1  0.24775632  0.24641341  0.31100763  1
  Se  Se188  1  0.24174395  0.24193580  0.81059008  1
  Se  Se189  1  0.24784419  0.58960811  0.29967883  1
  Se  Se190  1  0.24899195  0.58094067  0.80486846  1
  Se  Se191  1  0.24018668  0.91309610  0.31243500  1
  Se  Se192  1  0.24127035  0.90771516  0.80982699  1
  Se  Se193  1  0.58406104  0.23789357  0.30730597  1
  Se  Se194  1  0.58047316  0.24738203  0.81360849  1
  Se  Se195  1  0.58711780  0.58753995  0.29728634  1
  Se  Se196  1  0.58269676  0.58348531  0.81096463  1
  Se  Se197  1  0.57573455  0.90293816  0.31216446  1
  Se  Se198  1  0.57871928  0.91551230  0.79874585  1
  Se  Se199  1  0.92463811  0.25223545  0.30189485  1
  Se  Se200  1  0.91554270  0.25283209  0.79734117  1
  Se  Se201  1  0.92016657  0.58973268  0.30471109  1
  Se  Se202  1  0.92082327  0.58885372  0.80534779  1
  Se  Se203  1  0.90874036  0.90967894  0.31329438  1
  Se  Se204  1  0.91904445  0.91511830  0.80258798  1
  Se  Se205  1  0.09130560  0.08965119  0.30789471  1
  Se  Se206  1  0.07940153  0.07900249  0.80367012  1
  Se  Se207  1  0.08296710  0.42048028  0.30259040  1
  Se  Se208  1  0.07940443  0.41228184  0.80445391  1
  Se  Se209  1  0.07625368  0.75327319  0.30749627  1
  Se  Se210  1  0.08610956  0.75394939  0.79733863  1
  Se  Se211  1  0.42171960  0.08779487  0.30470970  1
  Se  Se212  1  0.41807508  0.08911494  0.81355138  1
  Se  Se213  1  0.42600470  0.42717149  0.30900367  1
  Se  Se214  1  0.41862978  0.42466907  0.80956177  1
  Se  Se215  1  0.41168679  0.74726771  0.29922624  1
  Se  Se216  1  0.41619031  0.74831188  0.79994177  1
  Se  Se217  1  0.76479793  0.08765066  0.30934302  1
  Se  Se218  1  0.74569556  0.07891265  0.79701981  1
  Se  Se219  1  0.76263322  0.42492667  0.31091243  1
  Se  Se220  1  0.75920203  0.42540002  0.81003897  1
  Se  Se221  1  0.74628201  0.74450610  0.30479428  1
  Se  Se222  1  0.75651379  0.75526317  0.81308122  1
  Se  Se223  1  0.24025666  0.09185533  0.19567167  1
  Se  Se224  1  0.23925692  0.08682778  0.68918545  1
  Se  Se225  1  0.24031475  0.42483110  0.18657408  1
  Se  Se226  1  0.23817842  0.42434221  0.68759612  1
  Se  Se227  1  0.24949593  0.74970577  0.19653659  1
  Se  Se228  1  0.26938041  0.73188170  0.69485613  1
  Se  Se229  1  0.58045878  0.08850556  0.19498019  1
  Se  Se230  1  0.58730428  0.08419214  0.69883197  1
  Se  Se231  1  0.58070310  0.42221628  0.18863022  1
  Se  Se232  1  0.57868589  0.42792550  0.69509887  1
  Se  Se233  1  0.58948270  0.74839047  0.19353749  1
  Se  Se234  1  0.57894482  0.76145213  0.69180889  1
  Se  Se235  1  0.91231093  0.08526615  0.18601336  1
  Se  Se236  1  0.93540507  0.06648285  0.69950169  1
  Se  Se237  1  0.91910726  0.41660685  0.19575286  1
  Se  Se238  1  0.91903774  0.41579305  0.69611248  1
  Se  Se239  1  0.92353774  0.74889823  0.19776490  1
  Se  Se240  1  0.91410132  0.74748596  0.69371851  1
  Se  Se241  1  0.08059818  0.24649979  0.19843974  1
  Se  Se242  1  0.07745636  0.25249404  0.69746850  1
  Se  Se243  1  0.07930371  0.58910149  0.19408103  1
  Se  Se244  1  0.07742330  0.58234154  0.70143851  1
  Se  Se245  1  0.09065933  0.91132122  0.19098125  1
  Se  Se246  1  0.09429376  0.90932073  0.70245538  1
  Se  Se247  1  0.42476279  0.24208718  0.19682321  1
  Se  Se248  1  0.42345553  0.24291198  0.69425920  1
  Se  Se249  1  0.41520508  0.58853718  0.19429157  1
  Se  Se250  1  0.41296349  0.58528408  0.69774383  1
  Se  Se251  1  0.42532195  0.90815697  0.18616662  1
  Se  Se252  1  0.42108723  0.91197222  0.69066882  1
  Se  Se253  1  0.75853146  0.24607872  0.18734264  1
  Se  Se254  1  0.75837561  0.24397689  0.68684960  1
  Se  Se255  1  0.75378457  0.58692985  0.19727497  1
  Se  Se256  1  0.76574239  0.58246179  0.68550331  1
  Se  Se257  1  0.75910289  0.91036673  0.19332957  1
  Se  Se258  1  0.75258842  0.91958080  0.69832927  1
