# generated using pymatgen
data_In86Cu29Se144
_symmetry_space_group_name_H-M   'P 1'
_cell_length_a   17.60173955
_cell_length_b   17.60855669
_cell_length_c   23.46277141
_cell_angle_alpha   89.95283543
_cell_angle_beta   89.99381113
_cell_angle_gamma   90.04095469
_symmetry_Int_Tables_number   1
_chemical_formula_structural   In86Cu29Se144
_chemical_formula_sum   'In86 Cu29 Se144'
_cell_volume   7272.07583942
_cell_formula_units_Z   1
loop_
 _symmetry_equiv_pos_site_id
 _symmetry_equiv_pos_as_xyz
  1  'x, y, z'
loop_
 _atom_site_type_symbol
 _atom_site_label
 _atom_site_symmetry_multiplicity
 _atom_site_fract_x
 _atom_site_fract_y
 _atom_site_fract_z
 _atom_site_occupancy
  In  In0  1  0.00807081  0.16897824  0.13091401  1
  In  In1  1  -0.01753902  0.14855665  0.61274643  1
  In  In2  1  -0.00067146  0.50841064  0.12975249  1
  In  In3  1  -0.01535803  0.51849619  0.62097001  1
  In  In4  1  -0.01350582  0.82727068  0.12453919  1
  In  In5  1  0.00121434  0.83420866  0.62146397  1
  In  In6  1  0.34205116  0.16180950  0.12772533  1
  In  In7  1  0.33810336  0.17142895  0.61634330  1
  In  In8  1  0.34968721  0.50978635  0.12232199  1
  In  In9  1  0.33844137  0.49560990  0.62803191  1
  In  In10  1  0.33366484  0.81841412  0.12875915  1
  In  In11  1  0.33194346  0.83865421  0.61957822  1
  In  In12  1  0.65827932  0.17323469  0.12952477  1
  In  In13  1  0.65449279  0.15787285  0.61721806  1
  In  In14  1  0.67901526  0.50699601  0.11770795  1
  In  In15  1  0.69240626  0.52363639  0.59323272  1
  In  In16  1  0.66967882  0.83246891  0.12925722  1
  In  In17  1  0.67118988  0.83535988  0.61725006  1
  In  In18  1  0.16499487  0.00217822  0.38478249  1
  In  In19  1  0.16326531  0.00843593  0.86803876  1
  In  In20  1  0.14168904  0.34220535  0.37172701  1
  In  In21  1  0.17596364  0.33483792  0.87682084  1
  In  In22  1  0.16880958  0.66173703  0.36791570  1
  In  In23  1  0.14972744  0.67574490  0.87745650  1
  In  In24  1  0.51387475  -0.01650952  0.38236528  1
  In  In25  1  0.52172672  -0.01807895  0.88440122  1
  In  In26  1  0.51914518  0.33199694  0.38859589  1
  In  In27  1  0.50286212  0.33539335  0.88743781  1
  In  In28  1  0.50067648  0.66852387  0.37643115  1
  In  In29  1  0.50521169  0.66558589  0.88258434  1
  In  In30  1  0.82118003  0.00029872  0.37750268  1
  In  In31  1  0.82143359  -0.01029819  0.86206574  1
  In  In32  1  0.83943107  0.32420312  0.38005595  1
  In  In33  1  0.83775394  0.34191110  0.87767379  1
  In  In34  1  0.83601078  0.66630301  0.38246335  1
  In  In35  1  0.83823835  0.66634270  0.87944551  1
  In  In36  1  -0.01963975  0.18208631  0.38405355  1
  In  In37  1  0.00843111  0.16339501  0.87002906  1
  In  In38  1  0.00279457  0.49352474  0.36502442  1
  In  In39  1  -0.01021351  0.51685701  0.88798930  1
  In  In40  1  0.00268353  0.81687426  0.39446151  1
  In  In41  1  -0.00954656  0.82440659  0.86578782  1
  In  In42  1  0.34118769  0.16264946  0.37997725  1
  In  In43  1  0.33121264  0.17759921  0.87278882  1
  In  In44  1  0.33006913  0.51437287  0.36595228  1
  In  In45  1  0.33802802  0.49407551  0.88459192  1
  In  In46  1  0.34267972  0.81927330  0.38049026  1
  In  In47  1  0.34558599  0.83957131  0.87494777  1
  In  In48  1  0.68852543  0.14877399  0.38657337  1
  In  In49  1  0.67099073  0.15080661  0.87202221  1
  In  In50  1  0.66381897  0.51570633  0.39036887  1
  In  In51  1  0.66602034  0.50240120  0.88786374  1
  In  In52  1  0.66399874  0.82660314  0.38041803  1
  In  In53  1  0.66379771  0.83904436  0.87675428  1
  In  In54  1  0.16784818  0.00703716  0.12662655  1
  In  In55  1  0.14884823  -0.01562548  0.61262465  1
  In  In56  1  0.14785997  0.34051165  0.13670721  1
  In  In57  1  0.17606714  0.33278041  0.62087512  1
  In  In58  1  0.18277470  0.64827218  0.14925083  1
  In  In59  1  0.14510246  0.66681056  0.62338416  1
  In  In60  1  0.51444309  0.00956597  0.12091659  1
  In  In61  1  0.50113597  0.00137553  0.62411536  1
  In  In62  1  0.51453539  0.33808691  0.11379433  1
  In  In63  1  0.51899219  0.34480024  0.60851690  1
  In  In64  1  0.50551388  0.66972993  0.12836745  1
  In  In65  1  0.52246226  0.68312698  0.59804697  1
  In  In66  1  0.83801512  -0.01782889  0.12572474  1
  In  In67  1  0.83035634  -0.00323452  0.62501542  1
  In  In68  1  0.82810568  0.35072106  0.12996018  1
  In  In69  1  0.82908298  0.33508691  0.60997101  1
  In  In70  1  0.83343865  0.66560449  0.13157296  1
  In  In71  1  0.85641380  0.71037452  0.57125565  1
  In  In72  1  0.67322865  0.33526175  0.25348173  1
  In  In73  1  0.33567513  -0.00688532  0.24621102  1
  In  In74  1  0.67298592  0.66977307  0.73406857  1
  In  In75  1  0.16612920  0.83098556  0.00289453  1
  In  In76  1  -0.00472192  -0.00455696  0.25472517  1
  In  In77  1  0.16967003  0.17100950  -0.00155134  1
  In  In78  1  0.33500113  0.33174173  0.74910650  1
  In  In79  1  0.33395763  0.66275606  0.75550355  1
  In  In80  1  0.66359303  0.33357512  0.74500203  1
  In  In81  1  0.00119626  0.33165039  0.74941572  1
  In  In82  1  0.82851505  0.17294014  -0.00132686  1
  In  In83  1  0.33133242  0.00469756  0.74620835  1
  In  In84  1  0.16854196  0.50295358  0.49253882  1
  In  In85  1  0.33955381  0.33511402  0.25163276  1
  Cu  Cu86  1  0.33690802  0.66432983  0.00563216  1
  Cu  Cu87  1  0.83607061  0.82369913  0.73741604  1
  Cu  Cu88  1  0.83241757  0.50651548  0.25490009  1
  Cu  Cu89  1  0.83068150  0.16065371  0.74324445  1
  Cu  Cu90  1  0.83556251  0.50498756  0.75112842  1
  Cu  Cu91  1  0.66584232  -0.00008561  0.50206576  1
  Cu  Cu92  1  0.67240887  0.67275826  0.00537312  1
  Cu  Cu93  1  0.15277396  0.50905217  0.75498258  1
  Cu  Cu94  1  0.34659316  -0.00186030  0.00136618  1
  Cu  Cu95  1  0.50767487  0.16010233  0.25235545  1
  Cu  Cu96  1  0.15892817  0.17551391  0.26081297  1
  Cu  Cu97  1  0.15338351  0.15532475  0.73739643  1
  Cu  Cu98  1  0.50696712  0.50615006  0.74833583  1
  Cu  Cu99  1  0.50078118  0.16548781  0.74521081  1
  Cu  Cu100  1  0.00164847  0.66345338  0.00744730  1
  Cu  Cu101  1  -0.00602210  0.34643303  0.00467168  1
  Cu  Cu102  1  0.15955267  0.82789566  0.74528713  1
  Cu  Cu103  1  0.16124655  0.83241008  0.25781704  1
  Cu  Cu104  1  0.50632905  0.50616929  0.25473323  1
  Cu  Cu105  1  0.00847154  0.32958457  0.49944220  1
  Cu  Cu106  1  0.67160748  -0.00374772  -0.00027984  1
  Cu  Cu107  1  0.32846992  0.66723503  0.49492605  1
  Cu  Cu108  1  0.33402547  0.32923491  0.49470992  1
  Cu  Cu109  1  0.50801500  0.82860546  0.25399663  1
  Cu  Cu110  1  0.82884264  0.82773800  0.25691812  1
  Cu  Cu111  1  0.33165403  0.00229052  0.50128190  1
  Cu  Cu112  1  0.32934813  0.33392222  0.00582743  1
  Cu  Cu113  1  -0.00320005  0.00268726  0.49621943  1
  Cu  Cu114  1  -0.00832832  -0.00429807  -0.00600300  1
  Se  Se115  1  0.07341040  0.07560925  0.05236152  1
  Se  Se116  1  0.08452560  0.08583726  0.54773752  1
  Se  Se117  1  0.08152872  0.42168471  0.06001003  1
  Se  Se118  1  0.07842659  0.41738757  0.56146510  1
  Se  Se119  1  0.08535374  0.74141096  0.06745560  1
  Se  Se120  1  0.08071082  0.75106170  0.55028773  1
  Se  Se121  1  0.42166822  0.08712866  0.05510310  1
  Se  Se122  1  0.41923504  0.08243387  0.55340728  1
  Se  Se123  1  0.41823357  0.41661932  0.05371833  1
  Se  Se124  1  0.40783323  0.41289913  0.55463328  1
  Se  Se125  1  0.41989161  0.74989638  0.05646704  1
  Se  Se126  1  0.40942383  0.75260833  0.54987275  1
  Se  Se127  1  0.75016008  0.07688319  0.06153504  1
  Se  Se128  1  0.75140283  0.08236639  0.55513852  1
  Se  Se129  1  0.73681580  0.40102051  0.05451119  1
  Se  Se130  1  0.73306441  0.39904560  0.54377041  1
  Se  Se131  1  0.75659151  0.75290568  0.06027056  1
  Se  Se132  1  0.70917277  0.71482091  0.55969020  1
  Se  Se133  1  0.25063835  0.25542579  0.06851175  1
  Se  Se134  1  0.24855929  0.24955549  0.54921142  1
  Se  Se135  1  0.25035681  0.58761143  0.06119376  1
  Se  Se136  1  0.25402576  0.58832210  0.56236331  1
  Se  Se137  1  0.25923372  0.92557944  0.06126676  1
  Se  Se138  1  0.24715267  0.91411874  0.54936005  1
  Se  Se139  1  0.58378988  0.24046683  0.05112290  1
  Se  Se140  1  0.57873793  0.24147190  0.54732493  1
  Se  Se141  1  0.58654720  0.58899087  0.05637817  1
  Se  Se142  1  0.55908835  0.55680510  0.55232738  1
  Se  Se143  1  0.58887917  0.91514592  0.05662478  1
  Se  Se144  1  0.58016446  0.91723659  0.55412670  1
  Se  Se145  1  0.92282101  0.25506140  0.06211206  1
  Se  Se146  1  0.91743806  0.24929891  0.54862850  1
  Se  Se147  1  0.91226346  0.58338113  0.05792764  1
  Se  Se148  1  0.89665245  0.56998345  0.54283607  1
  Se  Se149  1  0.91606211  0.90987510  0.04902266  1
  Se  Se150  1  0.91663055  0.92038944  0.55434540  1
  Se  Se151  1  0.08893344  0.24599381  0.44515744  1
  Se  Se152  1  0.07096250  0.26289207  0.94372442  1
  Se  Se153  1  0.07232460  0.59019435  0.44015144  1
  Se  Se154  1  0.08927523  0.58602425  0.95212672  1
  Se  Se155  1  0.08333028  0.91599397  0.45068312  1
  Se  Se156  1  0.08034330  0.92059906  0.93695829  1
  Se  Se157  1  0.42293436  0.24829620  0.44603517  1
  Se  Se158  1  0.40864052  0.25209337  0.94717458  1
  Se  Se159  1  0.41070006  0.58335127  0.44188619  1
  Se  Se160  1  0.41842556  0.58330359  0.94796866  1
  Se  Se161  1  0.41074525  0.91842143  0.44474394  1
  Se  Se162  1  0.42559166  0.91028912  0.95040659  1
  Se  Se163  1  0.74038445  0.26058432  0.44681515  1
  Se  Se164  1  0.73863308  0.25862708  0.93514697  1
  Se  Se165  1  0.77553265  0.56727436  0.45261110  1
  Se  Se166  1  0.75313616  0.58864658  0.94893026  1
  Se  Se167  1  0.74713430  0.91346260  0.44838259  1
  Se  Se168  1  0.75552481  0.91560538  0.94418732  1
  Se  Se169  1  0.25168170  0.08726602  0.44760077  1
  Se  Se170  1  0.26084553  0.07350375  0.94180408  1
  Se  Se171  1  0.25619153  0.40960090  0.43303138  1
  Se  Se172  1  0.24696628  0.41613046  0.95079791  1
  Se  Se173  1  0.24231389  0.74672581  0.44208220  1
  Se  Se174  1  0.26018724  0.74467806  0.94056482  1
  Se  Se175  1  0.58269138  0.08244453  0.44654282  1
  Se  Se176  1  0.58770419  0.08298278  0.94832932  1
  Se  Se177  1  0.57482438  0.43445112  0.45460931  1
  Se  Se178  1  0.57475341  0.42719929  0.95166107  1
  Se  Se179  1  0.56598380  0.76117889  0.44745209  1
  Se  Se180  1  0.58891347  0.75147389  0.94703355  1
  Se  Se181  1  0.90838172  0.08249976  0.44549352  1
  Se  Se182  1  0.91638501  0.08083358  0.93517313  1
  Se  Se183  1  0.93051659  0.41089470  0.44012692  1
  Se  Se184  1  0.90859767  0.42520982  0.95063625  1
  Se  Se185  1  0.89965870  0.75645550  0.45946395  1
  Se  Se186  1  0.92571332  0.74788565  0.94699283  1
  Se  Se187  1  0.24869799  0.25021633  0.31522733  1
  Se  Se188  1  0.23174344  0.23734329  0.79809202  1
  Se  Se189  1  0.24245320  0.57963665  0.29461143  1
  Se  Se190  1  0.24160009  0.57557969  0.81715555  1
  Se  Se191  1  0.24540729  0.91391591  0.31283853  1
  Se  Se192  1  0.24157405  0.90582790  0.80658918  1
  Se  Se193  1  0.58490880  0.24219293  0.31218113  1
  Se  Se194  1  0.57520964  0.24668271  0.80953781  1
  Se  Se195  1  0.58964657  0.58678980  0.31008973  1
  Se  Se196  1  0.58876570  0.58313213  0.80792059  1
  Se  Se197  1  0.59119936  0.91350217  0.30490587  1
  Se  Se198  1  0.59007811  0.91804690  0.80197489  1
  Se  Se199  1  0.91994003  0.25680776  0.30247244  1
  Se  Se200  1  0.90496272  0.24115192  0.80698167  1
  Se  Se201  1  0.91659672  0.58835566  0.30862471  1
  Se  Se202  1  0.91787451  0.58566869  0.80635633  1
  Se  Se203  1  0.91381852  0.90359904  0.31847114  1
  Se  Se204  1  0.91233342  0.90999832  0.79730044  1
  Se  Se205  1  0.08084561  0.08859378  0.31560167  1
  Se  Se206  1  0.07459799  0.07609852  0.79576878  1
  Se  Se207  1  0.09932020  0.43317070  0.29390550  1
  Se  Se208  1  0.08221090  0.42172525  0.81609631  1
  Se  Se209  1  0.07679321  0.75358054  0.31179322  1
  Se  Se210  1  0.07577836  0.74349116  0.79725947  1
  Se  Se211  1  0.42595099  0.07899091  0.30888942  1
  Se  Se212  1  0.41919888  0.09145073  0.80909937  1
  Se  Se213  1  0.43240182  0.41914709  0.31430965  1
  Se  Se214  1  0.42785790  0.42331512  0.80644155  1
  Se  Se215  1  0.41775833  0.74699420  0.30221509  1
  Se  Se216  1  0.43035576  0.75464163  0.80745478  1
  Se  Se217  1  0.75537646  0.08553880  0.30256860  1
  Se  Se218  1  0.74426910  0.07850226  0.79421259  1
  Se  Se219  1  0.75377774  0.42706759  0.31784309  1
  Se  Se220  1  0.75201246  0.42695310  0.80768414  1
  Se  Se221  1  0.74915314  0.74366422  0.31263881  1
  Se  Se222  1  0.75660265  0.75256392  0.80569011  1
  Se  Se223  1  0.24031549  0.09794145  0.20005735  1
  Se  Se224  1  0.24180805  0.08434472  0.67940647  1
  Se  Se225  1  0.25499029  0.42149764  0.18810790  1
  Se  Se226  1  0.23668627  0.42780955  0.69908625  1
  Se  Se227  1  0.25220927  0.75476898  0.20620047  1
  Se  Se228  1  0.24507942  0.74973531  0.68957724  1
  Se  Se229  1  0.59218508  0.07849720  0.19970362  1
  Se  Se230  1  0.58395234  0.08009843  0.69580177  1
  Se  Se231  1  0.58122848  0.42359228  0.19263142  1
  Se  Se232  1  0.58609802  0.43207615  0.68527874  1
  Se  Se233  1  0.59096248  0.74653127  0.19916220  1
  Se  Se234  1  0.57046652  0.75796245  0.68821216  1
  Se  Se235  1  0.91186087  0.08514793  0.19039666  1
  Se  Se236  1  0.91762991  0.07674638  0.69543869  1
  Se  Se237  1  0.91506394  0.42392605  0.19941964  1
  Se  Se238  1  0.90756787  0.41707109  0.69005971  1
  Se  Se239  1  0.91611167  0.74978693  0.20152476  1
  Se  Se240  1  0.90644922  0.74147652  0.67409022  1
  Se  Se241  1  0.07417481  0.25370340  0.20681580  1
  Se  Se242  1  0.08017398  0.24435833  0.68070829  1
  Se  Se243  1  0.06422961  0.60157410  0.20081535  1
  Se  Se244  1  0.07123631  0.58412804  0.69672471  1
  Se  Se245  1  0.09058624  0.91070339  0.19019861  1
  Se  Se246  1  0.07896095  0.91612713  0.69519788  1
  Se  Se247  1  0.43254797  0.24490312  0.19272576  1
  Se  Se248  1  0.42963467  0.25278629  0.68597804  1
  Se  Se249  1  0.42218702  0.58680365  0.19923175  1
  Se  Se250  1  0.42577513  0.58518448  0.68939959  1
  Se  Se251  1  0.43100806  0.90734734  0.18867839  1
  Se  Se252  1  0.42046068  0.90840242  0.69467072  1
  Se  Se253  1  0.76122009  0.24323381  0.19328326  1
  Se  Se254  1  0.75463068  0.24468219  0.68581541  1
  Se  Se255  1  0.74596974  0.58282708  0.19818564  1
  Se  Se256  1  0.76437058  0.57808633  0.68180222  1
  Se  Se257  1  0.75342576  0.91435674  0.20031423  1
  Se  Se258  1  0.74842708  0.91062479  0.69284345  1
