# generated using pymatgen
data_In86Cu29Se144
_symmetry_space_group_name_H-M   'P 1'
_cell_length_a   17.57952592
_cell_length_b   17.57583527
_cell_length_c   23.44315438
_cell_angle_alpha   90.01315573
_cell_angle_beta   90.02024932
_cell_angle_gamma   89.99632601
_symmetry_Int_Tables_number   1
_chemical_formula_structural   In86Cu29Se144
_chemical_formula_sum   'In86 Cu29 Se144'
_cell_volume   7243.34449031
_cell_formula_units_Z   1
loop_
 _symmetry_equiv_pos_site_id
 _symmetry_equiv_pos_as_xyz
  1  'x, y, z'
loop_
 _atom_site_type_symbol
 _atom_site_label
 _atom_site_symmetry_multiplicity
 _atom_site_fract_x
 _atom_site_fract_y
 _atom_site_fract_z
 _atom_site_occupancy
  In  In0  1  0.00249058  0.17024272  0.11327907  1
  In  In1  1  -0.01168567  0.16901344  0.63407933  1
  In  In2  1  0.00344990  0.49596121  0.13772822  1
  In  In3  1  -0.00143516  0.48204254  0.62317564  1
  In  In4  1  -0.01582376  0.84641521  0.12465628  1
  In  In5  1  -0.00084701  0.84890858  0.62741958  1
  In  In6  1  0.33108413  0.17335313  0.11737292  1
  In  In7  1  0.34925478  0.15820649  0.64018416  1
  In  In8  1  0.34042407  0.48563821  0.11928884  1
  In  In9  1  0.33648610  0.49804252  0.62644227  1
  In  In10  1  0.33665869  0.82382490  0.11736865  1
  In  In11  1  0.32464490  0.83635087  0.63784385  1
  In  In12  1  0.67276103  0.15116660  0.13639484  1
  In  In13  1  0.67384234  0.17826257  0.62535028  1
  In  In14  1  0.66357324  0.50608965  0.12986023  1
  In  In15  1  0.65854145  0.50614153  0.62789299  1
  In  In16  1  0.66990981  0.83617798  0.12339665  1
  In  In17  1  0.66836917  0.82275050  0.62529121  1
  In  In18  1  0.15992140  -0.00187141  0.37022869  1
  In  In19  1  0.17797489  0.01611558  0.87546662  1
  In  In20  1  0.17448346  0.34438397  0.37546796  1
  In  In21  1  0.15347078  0.31679193  0.86525318  1
  In  In22  1  0.15272232  0.66334335  0.37376473  1
  In  In23  1  0.17110995  0.65521068  0.87381875  1
  In  In24  1  0.51467513  0.00423420  0.37092166  1
  In  In25  1  0.47463922  0.00048520  0.87590162  1
  In  In26  1  0.51585936  0.32181049  0.39270273  1
  In  In27  1  0.51208162  0.33286063  0.86389273  1
  In  In28  1  0.49846252  0.65169696  0.37536936  1
  In  In29  1  0.50322081  0.66676922  0.87357914  1
  In  In30  1  0.82202011  0.01474744  0.38390990  1
  In  In31  1  0.84127690  0.00194992  0.87975462  1
  In  In32  1  0.81970716  0.32326939  0.36857174  1
  In  In33  1  0.82383967  0.31671503  0.86299399  1
  In  In34  1  0.83717721  0.67480204  0.36900652  1
  In  In35  1  0.82844285  0.67921344  0.87638540  1
  In  In36  1  -0.01616913  0.15949936  0.37211334  1
  In  In37  1  -0.00296546  0.16376253  0.87860613  1
  In  In38  1  0.00141211  0.50331418  0.37361681  1
  In  In39  1  0.00921013  0.49098535  0.87381943  1
  In  In40  1  -0.00627302  0.81813310  0.36915878  1
  In  In41  1  -0.01899235  0.83994549  0.88558854  1
  In  In42  1  0.33483340  0.18193727  0.37710095  1
  In  In43  1  0.32621681  0.15300621  0.85772483  1
  In  In44  1  0.34239607  0.48828166  0.38822422  1
  In  In45  1  0.34255842  0.50599222  0.86647566  1
  In  In46  1  0.33353750  0.84007776  0.37513278  1
  In  In47  1  0.34719921  0.84583669  0.87128458  1
  In  In48  1  0.66326817  0.17303924  0.37492240  1
  In  In49  1  0.66782855  0.17639205  0.87028981  1
  In  In50  1  0.65530686  0.48945396  0.36917198  1
  In  In51  1  0.65491760  0.49015179  0.86811012  1
  In  In52  1  0.67682564  0.84738071  0.36751982  1
  In  In53  1  0.67407911  0.82807605  0.87883729  1
  In  In54  1  0.15418412  0.01047421  0.11793031  1
  In  In55  1  0.16293781  0.00102104  0.63580329  1
  In  In56  1  0.16059272  0.31825265  0.12359269  1
  In  In57  1  0.16377475  0.33868016  0.62607214  1
  In  In58  1  0.16721124  0.65799408  0.12954117  1
  In  In59  1  0.17941014  0.66849851  0.62604743  1
  In  In60  1  0.51808202  0.00809414  0.12164762  1
  In  In61  1  0.48919298  -0.00222071  0.62916757  1
  In  In62  1  0.49768370  0.33854893  0.12033214  1
  In  In63  1  0.50074625  0.33273203  0.62882974  1
  In  In64  1  0.51350459  0.67566449  0.11524827  1
  In  In65  1  0.50556307  0.65847662  0.63011101  1
  In  In66  1  0.82929545  -0.00773143  0.11046171  1
  In  In67  1  0.83812775  0.01058743  0.62126990  1
  In  In68  1  0.84132775  0.32353870  0.13217884  1
  In  In69  1  0.83782523  0.31782459  0.63851581  1
  In  In70  1  0.82100656  0.67809952  0.13447039  1
  In  In71  1  0.81863656  0.66627460  0.62373477  1
  In  In72  1  0.33576394  0.33130008  0.24610181  1
  In  In73  1  0.33463892  0.66440414  0.24956440  1
  In  In74  1  0.50371052  0.83119828  0.50405297  1
  In  In75  1  0.50089789  0.16641543  -0.00582140  1
  In  In76  1  0.17000391  0.83901582  -0.00043274  1
  In  In77  1  0.83002994  0.49726221  0.49953837  1
  In  In78  1  0.17232190  0.49476999  -0.00036484  1
  In  In79  1  0.16596512  0.17068589  0.50046582  1
  In  In80  1  -0.00331478  0.00303245  0.24376083  1
  In  In81  1  0.83142164  0.50057935  0.00400445  1
  In  In82  1  0.66401405  0.00365459  0.75655370  1
  In  In83  1  0.33435689  0.00393582  0.24233115  1
  In  In84  1  -0.00070312  0.66456352  0.75505688  1
  In  In85  1  0.16277186  0.82899893  0.49310094  1
  Cu  Cu86  1  0.50370996  0.49912014  0.24763857  1
  Cu  Cu87  1  0.33470447  0.33195123  -0.00769002  1
  Cu  Cu88  1  0.33305207  0.00559379  0.50740227  1
  Cu  Cu89  1  0.66797138  0.33126979  -0.00485172  1
  Cu  Cu90  1  0.82902160  0.49788234  0.74589977  1
  Cu  Cu91  1  0.67045076  0.67081509  0.49822333  1
  Cu  Cu92  1  -0.00581478  0.67117343  0.00802295  1
  Cu  Cu93  1  0.83044635  0.83953670  0.24786639  1
  Cu  Cu94  1  0.83056367  0.83492532  0.75506651  1
  Cu  Cu95  1  -0.01237727  0.00186604  0.50379854  1
  Cu  Cu96  1  0.33891354  0.33412501  0.50842809  1
  Cu  Cu97  1  -0.00216309  0.32841049  0.50381792  1
  Cu  Cu98  1  0.83480854  0.50150439  0.25418131  1
  Cu  Cu99  1  0.49718793  0.82825257  0.75116664  1
  Cu  Cu100  1  0.66658959  0.33354393  0.50333020  1
  Cu  Cu101  1  -0.00182306  0.66527293  0.49489014  1
  Cu  Cu102  1  0.16651412  0.16697653  0.74835736  1
  Cu  Cu103  1  0.17113921  0.49691757  0.74866961  1
  Cu  Cu104  1  -0.00539056  0.32487792  -0.00407494  1
  Cu  Cu105  1  0.67043107  0.00690609  0.49697328  1
  Cu  Cu106  1  0.66406877  0.66629082  0.00355232  1
  Cu  Cu107  1  0.49933915  0.50276398  0.74805088  1
  Cu  Cu108  1  0.33752232  0.65790434  0.50531582  1
  Cu  Cu109  1  0.34744693  0.66661020  -0.00760124  1
  Cu  Cu110  1  0.50967360  0.83140147  0.24491311  1
  Cu  Cu111  1  0.82765891  0.16700802  0.25031587  1
  Cu  Cu112  1  0.16465980  0.83513527  0.75737358  1
  Cu  Cu113  1  0.16226373  0.50237365  0.25466696  1
  Cu  Cu114  1  0.66838028  -0.00352145  -0.00259272  1
  Se  Se115  1  0.07854878  0.08450870  0.04389534  1
  Se  Se116  1  0.07869572  0.07698251  0.55947759  1
  Se  Se117  1  0.07178312  0.41141704  0.05542705  1
  Se  Se118  1  0.08479952  0.41441268  0.54926226  1
  Se  Se119  1  0.08254631  0.74704228  0.06311678  1
  Se  Se120  1  0.07524875  0.74420333  0.56109063  1
  Se  Se121  1  0.41313269  0.07648384  0.05678373  1
  Se  Se122  1  0.41896376  0.08643446  0.55723206  1
  Se  Se123  1  0.42021589  0.41453402  0.04389611  1
  Se  Se124  1  0.42386104  0.42044887  0.55722115  1
  Se  Se125  1  0.42488360  0.75281209  0.04735423  1
  Se  Se126  1  0.40648829  0.74945342  0.56464100  1
  Se  Se127  1  0.74336062  0.08656317  0.05212895  1
  Se  Se128  1  0.74992021  0.08957574  0.55527159  1
  Se  Se129  1  0.74408571  0.40749192  0.06228902  1
  Se  Se130  1  0.74839461  0.40958354  0.56610032  1
  Se  Se131  1  0.75112206  0.74996571  0.05352127  1
  Se  Se132  1  0.75337192  0.75469591  0.54945260  1
  Se  Se133  1  0.24927003  0.25513817  0.04838389  1
  Se  Se134  1  0.25894589  0.24889070  0.56492563  1
  Se  Se135  1  0.26463818  0.59143397  0.05570417  1
  Se  Se136  1  0.24847642  0.57875276  0.55611510  1
  Se  Se137  1  0.25881015  0.92819776  0.06041204  1
  Se  Se138  1  0.24887704  0.92020910  0.55850544  1
  Se  Se139  1  0.59120896  0.24973581  0.05886832  1
  Se  Se140  1  0.58214056  0.25083858  0.55671847  1
  Se  Se141  1  0.58333631  0.57539614  0.05179361  1
  Se  Se142  1  0.58675752  0.58970375  0.55279024  1
  Se  Se143  1  0.58504766  0.91522257  0.05212613  1
  Se  Se144  1  0.59302767  0.92670818  0.56082619  1
  Se  Se145  1  0.90668064  0.24862002  0.05055173  1
  Se  Se146  1  0.91429030  0.24856234  0.55822769  1
  Se  Se147  1  0.92032128  0.58651995  0.06839547  1
  Se  Se148  1  0.92177255  0.58759528  0.56083318  1
  Se  Se149  1  0.92413935  0.92250599  0.04412010  1
  Se  Se150  1  0.90912695  0.91223046  0.55442100  1
  Se  Se151  1  0.07540348  0.25436680  0.43653759  1
  Se  Se152  1  0.08678105  0.24641231  0.94755720  1
  Se  Se153  1  0.08379805  0.57927512  0.44823453  1
  Se  Se154  1  0.07332903  0.59023026  0.94787093  1
  Se  Se155  1  0.06729339  0.92413212  0.44071823  1
  Se  Se156  1  0.08206253  0.92584079  0.93828256  1
  Se  Se157  1  0.41714223  0.24702203  0.45391570  1
  Se  Se158  1  0.41389540  0.25328575  0.93071375  1
  Se  Se159  1  0.42400695  0.57814028  0.45262111  1
  Se  Se160  1  0.42473333  0.57618422  0.94221286  1
  Se  Se161  1  0.41412911  0.92594157  0.44509049  1
  Se  Se162  1  0.42072951  0.91094164  0.95246760  1
  Se  Se163  1  0.74837453  0.25026827  0.44790000  1
  Se  Se164  1  0.75212068  0.24711497  0.94505718  1
  Se  Se165  1  0.74476550  0.58679551  0.43594738  1
  Se  Se166  1  0.74146355  0.58531786  0.93983094  1
  Se  Se167  1  0.75077969  0.91592616  0.44828473  1
  Se  Se168  1  0.75474126  0.91553347  0.94446461  1
  Se  Se169  1  0.25399394  0.07539150  0.43946251  1
  Se  Se170  1  0.26888043  0.08577344  0.94465630  1
  Se  Se171  1  0.25063005  0.41307306  0.45483867  1
  Se  Se172  1  0.25251217  0.40989798  0.93057834  1
  Se  Se173  1  0.26222963  0.73791487  0.44041911  1
  Se  Se174  1  0.25628465  0.74343563  0.93910370  1
  Se  Se175  1  0.58252931  0.08716432  0.44597975  1
  Se  Se176  1  0.58969614  0.07358362  0.93358114  1
  Se  Se177  1  0.58540013  0.42423845  0.45397480  1
  Se  Se178  1  0.58117161  0.41156144  0.94402601  1
  Se  Se179  1  0.58853281  0.74799657  0.43569719  1
  Se  Se180  1  0.58458451  0.74880078  0.94499122  1
  Se  Se181  1  0.91021120  0.09212256  0.45263701  1
  Se  Se182  1  0.91501004  0.08717572  0.95098804  1
  Se  Se183  1  0.91794675  0.40656304  0.43924501  1
  Se  Se184  1  0.91672288  0.41137211  0.93950817  1
  Se  Se185  1  0.91340947  0.75048534  0.44670856  1
  Se  Se186  1  0.90831743  0.74885592  0.95386897  1
  Se  Se187  1  0.23901391  0.24384568  0.30396846  1
  Se  Se188  1  0.25194742  0.25328793  0.79757762  1
  Se  Se189  1  0.25230930  0.57200018  0.31460989  1
  Se  Se190  1  0.25190411  0.58428567  0.79927926  1
  Se  Se191  1  0.24322767  0.90990652  0.30318442  1
  Se  Se192  1  0.25017838  0.91931215  0.80829910  1
  Se  Se193  1  0.58136285  0.26009822  0.30844174  1
  Se  Se194  1  0.58749048  0.24521256  0.79502618  1
  Se  Se195  1  0.58444546  0.58531314  0.30101124  1
  Se  Se196  1  0.58475494  0.58581300  0.80156627  1
  Se  Se197  1  0.58673612  0.92046369  0.29812473  1
  Se  Se198  1  0.57503237  0.90914206  0.81357093  1
  Se  Se199  1  0.91404126  0.24934265  0.30188319  1
  Se  Se200  1  0.93995333  0.26543216  0.80945696  1
  Se  Se201  1  0.91976515  0.58643130  0.30477131  1
  Se  Se202  1  0.90626391  0.57362589  0.81331729  1
  Se  Se203  1  0.90804321  0.91999177  0.31172995  1
  Se  Se204  1  0.91602617  0.91716291  0.80532300  1
  Se  Se205  1  0.08819038  0.09414483  0.30418960  1
  Se  Se206  1  0.08547189  0.08671206  0.80686785  1
  Se  Se207  1  0.08266194  0.41490577  0.30686496  1
  Se  Se208  1  0.08351515  0.41495282  0.79852061  1
  Se  Se209  1  0.09322539  0.75751191  0.30376418  1
  Se  Se210  1  0.08335863  0.75680410  0.81877722  1
  Se  Se211  1  0.41754561  0.09040253  0.31031891  1
  Se  Se212  1  0.43221020  0.09086017  0.79670872  1
  Se  Se213  1  0.42397153  0.41943395  0.30877783  1
  Se  Se214  1  0.41971794  0.41545729  0.80071508  1
  Se  Se215  1  0.42696955  0.75887514  0.30867276  1
  Se  Se216  1  0.41334304  0.74601809  0.80562445  1
  Se  Se217  1  0.74539754  0.08531808  0.30637560  1
  Se  Se218  1  0.76353257  0.09101451  0.80753292  1
  Se  Se219  1  0.74708994  0.41664212  0.30203611  1
  Se  Se220  1  0.74771412  0.41470799  0.80242998  1
  Se  Se221  1  0.74909178  0.75290911  0.30102442  1
  Se  Se222  1  0.74527150  0.74757219  0.80065397  1
  Se  Se223  1  0.23974154  0.09578178  0.18878050  1
  Se  Se224  1  0.25261518  0.07918994  0.70060197  1
  Se  Se225  1  0.23942957  0.42448596  0.18961987  1
  Se  Se226  1  0.25321860  0.41395947  0.69456794  1
  Se  Se227  1  0.24535270  0.75809492  0.19278856  1
  Se  Se228  1  0.24495778  0.74875781  0.70461292  1
  Se  Se229  1  0.57809134  0.08232797  0.20329504  1
  Se  Se230  1  0.58069911  0.08698300  0.68824894  1
  Se  Se231  1  0.58199402  0.41322913  0.19252342  1
  Se  Se232  1  0.58506431  0.41789099  0.69709217  1
  Se  Se233  1  0.59124177  0.74641496  0.19263924  1
  Se  Se234  1  0.58314999  0.74980726  0.69633718  1
  Se  Se235  1  0.90457229  0.08925139  0.18462142  1
  Se  Se236  1  0.92846489  0.06527799  0.69730011  1
  Se  Se237  1  0.91515522  0.41467333  0.20107407  1
  Se  Se238  1  0.91760666  0.41468223  0.69905273  1
  Se  Se239  1  0.91687183  0.75661478  0.19675307  1
  Se  Se240  1  0.91091902  0.75338858  0.69235313  1
  Se  Se241  1  0.06732773  0.25330526  0.19102905  1
  Se  Se242  1  0.08470550  0.24963075  0.69250025  1
  Se  Se243  1  0.08152796  0.58862558  0.20233800  1
  Se  Se244  1  0.08579355  0.57720232  0.68954593  1
  Se  Se245  1  0.09173794  0.91133326  0.18956575  1
  Se  Se246  1  0.08081482  0.91667655  0.70355034  1
  Se  Se247  1  0.42668589  0.23890273  0.18963650  1
  Se  Se248  1  0.40692857  0.26615712  0.69894420  1
  Se  Se249  1  0.42335039  0.57760660  0.18570368  1
  Se  Se250  1  0.41273236  0.58675743  0.69697394  1
  Se  Se251  1  0.42485651  0.90821711  0.18645165  1
  Se  Se252  1  0.41391301  0.91649951  0.70215677  1
  Se  Se253  1  0.74450441  0.25237573  0.19769883  1
  Se  Se254  1  0.74729831  0.24668378  0.70590701  1
  Se  Se255  1  0.74967056  0.58279689  0.19959770  1
  Se  Se256  1  0.74638904  0.58538001  0.69730345  1
  Se  Se257  1  0.75209072  0.92346356  0.19049450  1
  Se  Se258  1  0.75194574  0.91376199  0.69180179  1
